@<TRIPOS>MOLECULE
tmp/2w35A00.pdb
 182 176 0 0 0
SMALL
GASTEIGER

@<TRIPOS>ATOM
      1  N         15.3890   40.4760   22.6750 N.3    20  GLN20      -0.1245
      2  CA        16.0130   41.7720   22.4380 C.3    20  GLN20       0.1566
      3  C         15.2180   42.9180   23.0440 C.2    20  GLN20       0.2260
      4  O         15.7890   43.8140   23.6630 O.2    20  GLN20      -0.2867
      5  CB        16.2060   42.0090   20.9400 C.3    20  GLN20       0.0367
      6  CG        17.2410   41.1070   20.3070 C.3    20  GLN20       0.0905
      7  CD        17.5110   41.4500   18.8550 C.2    20  GLN20       0.2608
      8  OE1       16.5820   41.6640   18.0680 O.2    20  GLN20      -0.2717
      9  NE2       18.7900   41.4900   18.4860 N.am   20  GLN20      -0.0878
     10  N         35.9280   39.4790   16.6230 N.3    43  ASP43      -0.1225
     11  CA        35.5050   39.2420   15.2540 C.3    43  ASP43       0.1805
     12  C         35.3670   37.7480   14.9520 C.2    43  ASP43       0.2597
     13  O         35.7760   36.9060   15.7470 O.2    43  ASP43      -0.2718
     14  CB        36.4790   39.9010   14.2710 C.3    43  ASP43       0.1424
     15  CG        35.8470   40.1400   12.9110 C.2    43  ASP43       0.3668
     16  OD1       34.5950   40.1690   12.8430 O.co2  43  ASP43      -0.2456
     17  OD2       36.5920   40.3120   11.9220 O.co2  43  ASP43      -0.2456
     18  N         34.7580   37.4280   13.8140 N.am   44  LEU44      -0.1979
     19  CA        34.5730   36.0400   13.3990 C.3    44  LEU44       0.1596
     20  C         34.7670   35.9030   11.8980 C.2    44  LEU44       0.2287
     21  O         34.4100   36.7930   11.1310 O.2    44  LEU44      -0.2864
     22  CB        33.1630   35.5410   13.7310 C.3    44  LEU44       0.0297
     23  CG        32.7990   35.0550   15.1280 C.3    44  LEU44       0.0022
     24  CD1       32.8070   36.2070   16.1170 C.3    44  LEU44       0.0001
     25  CD2       31.4230   34.4130   15.0660 C.3    44  LEU44       0.0001
     26  N         34.4960   32.7560    8.7260 N.3    46  PHE46      -0.1241
     27  CA        33.7260   31.5350    8.5950 C.3    46  PHE46       0.1605
     28  C         34.3330   30.5050    7.6580 C.2    46  PHE46       0.2264
     29  O         34.0330   30.4910    6.4610 O.2    46  PHE46      -0.2867
     30  CB        32.3080   31.8700    8.1420 C.3    46  PHE46       0.0534
     31  CG        31.5730   32.7670    9.0830 C.ar   46  PHE46      -0.0203
     32  CD1       31.8180   34.1370    9.0960 C.ar   46  PHE46      -0.0042
     33  CD2       30.6290   32.2440    9.9580 C.ar   46  PHE46      -0.0042
     34  CE1       31.1290   34.9750    9.9670 C.ar   46  PHE46      -0.0003
     35  CE2       29.9360   33.0700   10.8330 C.ar   46  PHE46      -0.0003
     36  CZ        30.1860   34.4400   10.8380 C.ar   46  PHE46      -0.0000
     37  N         22.1710   34.4520    9.1260 N.3    80  TYR80      -0.1241
     38  CA        22.3910   35.8870    9.1990 C.3    80  TYR80       0.1605
     39  C         21.1050   36.6200    8.8700 C.2    80  TYR80       0.2264
     40  O         20.5190   36.4300    7.8130 O.2    80  TYR80      -0.2867
     41  CB        23.4620   36.3710    8.2210 C.3    80  TYR80       0.0534
     42  CG        23.5600   37.8770    8.2390 C.ar   80  TYR80      -0.0201
     43  CD1       24.0310   38.5430    9.3680 C.ar   80  TYR80      -0.0009
     44  CD2       23.1110   38.6430    7.1580 C.ar   80  TYR80      -0.0009
     45  CE1       24.0520   39.9320    9.4330 C.ar   80  TYR80       0.0417
     46  CE2       23.1250   40.0420    7.2070 C.ar   80  TYR80       0.0417
     47  CZ        23.5980   40.6800    8.3510 C.ar   80  TYR80       0.1957
     48  OH        23.6190   42.0560    8.4230 O.3    80  TYR80      -0.2866
     49  N         19.7810   40.6570    9.3500 N.3    82  PRO82      -0.2102
     50  CA        20.0690   42.0050    9.8450 C.3    82  PRO82       0.1504
     51  C         19.2850   42.2730   11.1260 C.2    82  PRO82       0.2576
     52  O         18.0750   42.0650   11.1750 O.2    82  PRO82      -0.2718
     53  CB        19.6210   42.8950    8.6900 C.3    82  PRO82       0.0282
     54  CG        19.9610   42.0610    7.4980 C.3    82  PRO82       0.0208
     55  CD        19.5110   40.6690    7.9000 C.3    82  PRO82       0.0893
     56  N         19.9780   42.7150   12.1660 N.am   83  GLY83      -0.1943
     57  CA        19.2990   42.9890   13.4170 C.3    83  GLY83       0.2014
     58  C         19.3530   41.8460   14.4090 C.2    83  GLY83       0.2639
     59  O         18.9360   42.0050   15.5570 O.2    83  GLY83      -0.2714
     60  N         19.8610   40.6940   13.9760 N.am   84  LEU84      -0.1963
     61  CA        19.9720   39.5330   14.8550 C.3    84  LEU84       0.1728
     62  C         21.3580   38.9190   14.7660 C.2    84  LEU84       0.2616
     63  O         21.5340   37.7210   14.9810 O.2    84  LEU84      -0.2715
     64  CB        18.9320   38.4750   14.4980 C.3    84  LEU84       0.0311
     65  CG        17.4740   38.8280   14.7770 C.3    84  LEU84       0.0022
     66  CD1       16.5810   37.7920   14.1210 C.3    84  LEU84       0.0001
     67  CD2       17.2300   38.8620   16.2620 C.3    84  LEU84       0.0001
     68  N         22.3460   39.7420   14.4450 N.am   85  LEU85      -0.1963
     69  CA        23.7110   39.2470   14.3450 C.3    85  LEU85       0.1728
     70  C         24.1500   38.5700   15.6520 C.2    85  LEU85       0.2616
     71  O         24.8690   37.5730   15.6290 O.2    85  LEU85      -0.2715
     72  CB        24.6520   40.4020   14.0050 C.3    85  LEU85       0.0311
     73  CG        26.1400   40.1030   13.8390 C.3    85  LEU85       0.0022
     74  CD1       26.3680   39.0300   12.7820 C.3    85  LEU85       0.0001
     75  CD2       26.8280   41.3920   13.4500 C.3    85  LEU85       0.0001
     76  N         23.7060   39.1010   16.7860 N.am   86  ALA86      -0.1977
     77  CA        24.0750   38.5340   18.0830 C.3    86  ALA86       0.1597
     78  C         23.7420   37.0460   18.2040 C.2    86  ALA86       0.2287
     79  O         24.5380   36.2610   18.7310 O.2    86  ALA86      -0.2864
     80  CB        23.3920   39.3040   19.2040 C.3    86  ALA86       0.0319
     81  N         23.7360   34.9810   15.9810 N.3    88  ARG88      -0.1231
     82  CA        24.5620   34.2280   15.0570 C.3    88  ARG88       0.1694
     83  C         26.0120   34.1730   15.5410 C.2    88  ARG88       0.2591
     84  O         26.5720   33.0920   15.7100 O.2    88  ARG88      -0.2718
     85  CB        24.5080   34.8630   13.6670 C.3    88  ARG88       0.0321
     86  CG        25.4160   34.2040   12.6510 C.3    88  ARG88       0.0489
     87  CD        25.2280   34.8170   11.2810 C.3    88  ARG88       0.2205
     88  NE        26.1810   34.2840   10.3160 N.pl3  88  ARG88      -0.0865
     89  CZ        26.0800   33.0950    9.7280 C.cat  88  ARG88       0.5346
     90  NH1       25.0530   32.2930    9.9950 N.pl3  88  ARG88       0.1354
     91  NH2       27.0180   32.7060    8.8770 N.pl3  88  ARG88       0.1354
     92  N         26.6130   35.3350   15.7860 N.am   89  GLU89      -0.1979
     93  CA        28.0110   35.3830   16.2040 C.3    89  GLU89       0.1602
     94  C         28.2380   35.4110   17.7160 C.2    89  GLU89       0.2287
     95  O         29.3520   35.1600   18.1880 O.2    89  GLU89      -0.2864
     96  CB        28.7060   36.5950   15.5650 C.3    89  GLU89       0.0415
     97  CG        28.5310   36.7140   14.0490 C.3    89  GLU89       0.1163
     98  CD        29.4470   37.7700   13.4120 C.2    89  GLU89       0.3649
     99  OE1       29.6940   38.8240   14.0410 O.co2  89  GLU89      -0.2457
    100  OE2       29.9130   37.5590   12.2690 O.co2  89  GLU89      -0.2457
    101  N         32.7490   44.1860   16.0640 N.3   110  ASP110     -0.1225
    102  CA        32.6120   44.4900   14.6480 C.3   110  ASP110      0.1805
    103  C         31.1050   44.3920   14.3560 C.2   110  ASP110      0.2598
    104  O         30.6320   43.3660   13.8740 O.2   110  ASP110     -0.2718
    105  CB        33.3890   43.4410   13.8360 C.3   110  ASP110      0.1424
    106  CG        33.3460   43.6920   12.3300 C.2   110  ASP110      0.3668
    107  OD1       33.5630   42.7400   11.5470 O.co2 110  ASP110     -0.2456
    108  OD2       33.1100   44.8430   11.9200 O.co2 110  ASP110     -0.2456
    109  N         30.3560   45.4470   14.6820 N.am  111  GLY111     -0.1942
    110  CA        28.9150   45.4660   14.4560 C.3   111  GLY111      0.2014
    111  C         28.2940   46.6590   15.1630 C.2   111  GLY111      0.2638
    112  O         29.0080   47.3930   15.8340 O.2   111  GLY111     -0.2714
    113  N         26.9820   46.8640   15.0220 N.am  112  GLN112     -0.1977
    114  CA        26.3090   47.9890   15.6750 C.3   112  GLN112      0.1601
    115  C         26.1360   47.7260   17.1610 C.2   112  GLN112      0.2287
    116  O         26.2320   46.5870   17.6290 O.2   112  GLN112     -0.2864
    117  CB        24.8970   48.2100   15.1280 C.3   112  GLN112      0.0394
    118  CG        24.7340   48.1780   13.6300 C.3   112  GLN112      0.0908
    119  CD        25.4570   49.3060   12.9460 C.2   112  GLN112      0.2608
    120  OE1       25.4950   50.4290   13.4500 O.2   112  GLN112     -0.2717
    121  NE2       26.0240   49.0200   11.7780 N.am  112  GLN112     -0.0878
    122  N         20.7020   50.4090   16.1390 N.3   116  HIS116     -0.1241
    123  CA        20.0370   49.1690   15.7960 C.3   116  HIS116      0.1621
    124  C         18.5140   49.3540   15.9340 C.2   116  HIS116      0.2264
    125  O         18.0410   50.1340   16.7700 O.2   116  HIS116     -0.2867
    126  CB        20.5940   48.1120   16.7680 C.3   116  HIS116      0.0745
    127  CG        19.9520   46.7620   16.6820 C.ar  116  HIS116      0.0817
    128  ND1       18.7070   46.4920   17.2110 N.ar  116  HIS116     -0.2268
    129  CD2       20.4220   45.5840   16.2080 C.ar  116  HIS116      0.1154
    130  CE1       18.4420   45.2060   17.0720 C.ar  116  HIS116      0.1986
    131  NE2       19.4660   44.6340   16.4670 N.ar  116  HIS116     -0.2212
    132  N         22.0500   46.2980   19.4980 N.3   121  GLY121     -0.1210
    133  CA        22.9300   45.6860   18.5180 C.3   121  GLY121      0.1956
    134  C         23.7880   44.6500   19.2150 C.2   121  GLY121      0.2611
    135  O         23.8010   44.5920   20.4320 O.2   121  GLY121     -0.2717
    136  N         24.5080   43.8320   18.4560 N.am  122  ILE122     -0.1979
    137  CA        25.3500   42.8080   19.0600 C.3   122  ILE122      0.1595
    138  C         26.3010   43.3430   20.1410 C.2   122  ILE122      0.2287
    139  O         26.6540   42.6080   21.0550 O.2   122  ILE122     -0.2864
    140  CB        26.1720   42.0410   17.9850 C.3   122  ILE122      0.0276
    141  CG1       26.8230   40.8070   18.6250 C.3   122  ILE122      0.0022
    142  CG2       27.2390   42.9540   17.3770 C.3   122  ILE122      0.0022
    143  CD1       27.3800   39.8020   17.6250 C.3   122  ILE122      0.0001
    144  N         30.7610   49.3730   13.1220 N.3   138  ALA138     -0.1231
    145  CA        30.3660   48.6950   11.8950 C.3   138  ALA138      0.1694
    146  C         30.9280   49.3830   10.6560 C.2   138  ALA138      0.2592
    147  O         31.3160   50.5540   10.6960 O.2   138  ALA138     -0.2718
    148  CB        28.8420   48.6030   11.8100 C.3   138  ALA138      0.0304
    149  N         30.9640   48.6480    9.5500 N.am  139  LYS139     -0.1966
    150  CA        31.4960   49.1670    8.2990 C.3   139  LYS139      0.1728
    151  C         30.3950   49.6200    7.3530 C.2   139  LYS139      0.2617
    152  O         30.6600   50.0640    6.2370 O.2   139  LYS139     -0.2715
    153  CB        32.3760   48.1040    7.6460 C.3   139  LYS139      0.0311
    154  CG        33.5420   47.7070    8.5460 C.3   139  LYS139      0.0038
    155  CD        34.4480   46.6320    7.9470 C.3   139  LYS139      0.0206
    156  CE        33.7420   45.2870    7.8680 C.3   139  LYS139      0.1093
    157  NZ        33.1080   44.9150    9.1640 N.3   139  LYS139     -0.1314
    158  N         29.1530   49.5200    7.8090 N.am  140  SER140     -0.1936
    159  CA        28.0300   49.9540    6.9990 C.3   140  SER140      0.2055
    160  C         26.8580   50.2700    7.9160 C.2   140  SER140      0.2643
    161  O         26.8530   49.8930    9.0750 O.2   140  SER140     -0.2714
    162  CB        27.6620   48.8850    5.9630 C.3   140  SER140      0.2130
    163  OG        27.3520   47.6430    6.5640 O.3   140  SER140     -0.2179
    164  N         25.8730   50.9860    7.4000 N.am  141  ARG141     -0.1963
    165  CA        24.7270   51.3710    8.2010 C.3   141  ARG141      0.1729
    166  C         23.7050   50.2620    8.2870 C.2   141  ARG141      0.2616
    167  O         23.4910   49.5330    7.3210 O.2   141  ARG141     -0.2715
    168  CB        24.0680   52.6060    7.5970 C.3   141  ARG141      0.0348
    169  CG        23.0400   53.2510    8.4950 C.3   141  ARG141      0.0492
    170  CD        22.2230   54.2230    7.6790 C.3   141  ARG141      0.2205
    171  NE        21.5500   53.4980    6.6120 N.pl3 141  ARG141     -0.0865
    172  CZ        20.3120   53.0240    6.6970 C.cat 141  ARG141      0.5346
    173  NH1       19.5980   53.2110    7.7960 N.pl3 141  ARG141      0.1354
    174  NH2       19.8050   52.3280    5.6890 N.pl3 141  ARG141      0.1354
    175  N         23.0870   50.1270    9.4540 N.am  142  LEU142     -0.1977
    176  CA        22.0480   49.1270    9.6430 C.3   142  LEU142      0.1596
    177  C         20.7490   49.8610    9.9280 C.2   142  LEU142      0.2287
    178  O         19.6830   49.4630    9.4680 O.2   142  LEU142     -0.2864
    179  CB        22.3490   48.1980   10.8350 C.3   142  LEU142      0.0297
    180  CG        21.1330   47.3400   11.2580 C.3   142  LEU142      0.0022
    181  CD1       20.8260   46.3280   10.1570 C.3   142  LEU142      0.0001
    182  CD2       21.3730   46.6200   12.5840 C.3   142  LEU142      0.0001
@<TRIPOS>BOND
     1   174   172    1
     2   162   163    1
     3   162   159    1
     4   152   151    2
     5    29    28    2
     6   171   172    2
     7   171   170    1
     8   172   173    1
     9   159   158    1
    10   159   160    1
    11    44    46   ar
    12    44    42   ar
    13    46    47   ar
    14   167   166    2
    15   151   158   am
    16   151   150    1
    17   164   160   am
    18   164   165    1
    19    54    55    1
    20    54    53    1
    21   168   165    1
    22   168   169    1
    23   153   150    1
    24   153   154    1
    25    28    27    1
    26   170   169    1
    27    40    39    2
    28   156   155    1
    29   156   157    1
    30    55    49    1
    31   160   161    2
    32   155   154    1
    33    30    27    1
    34    30    31    1
    35   165   166    1
    36    41    42    1
    37    41    38    1
    38    42    43   ar
    39   166   175   am
    40   150   149    1
    41    47    48    1
    42    47    45   ar
    43    27    26    1
    44    53    50    1
    45    39    38    1
    46    91    89    1
    47    31    32   ar
    48    31    33   ar
    49    32    34   ar
    50    37    38    1
    51    49    50    1
    52    43    45   ar
    53   175   176    1
    54   178   177    2
    55   149   146   am
    56   176   177    1
    57   176   179    1
    58    89    90    1
    59    89    88    2
    60    50    51    1
    61    33    35   ar
    62    34    36   ar
    63   181   180    1
    64    88    87    1
    65   146   147    2
    66   146   145    1
    67    35    36   ar
    68   179   180    1
    69    51    52    2
    70    51    56   am
    71    21    20    2
    72   180   182    1
    73    87    86    1
    74   107   106   ar
    75   121   119   am
    76   148   145    1
    77   145   144    1
    78    20    19    1
    79   108   106   ar
    80    17    15   ar
    81    56    57    1
    82   100    98   ar
    83   106   105    1
    84    86    85    1
    85    74    73    1
    86    16    15   ar
    87    15    14    1
    88   119   120    2
    89   119   118    1
    90    19    22    1
    91    19    18    1
    92    98    99   ar
    93    98    97    1
    94    57    58    1
    95    75    73    1
    96   118   117    1
    97    85    82    1
    98    22    23    1
    99    18    12   am
   100   105   102    1
   101    73    72    1
   102   104   103    2
   103    60    58   am
   104    60    61    1
   105    72    69    1
   106    97    96    1
   107    66    65    1
   108    14    11    1
   109    69    68    1
   110    69    70    1
   111   103   102    1
   112   103   109   am
   113    58    59    2
   114    68    62   am
   115   110   109    1
   116   110   111    1
   117    64    65    1
   118    64    61    1
   119   102   101    1
   120    62    61    1
   121    62    63    2
   122    65    67    1
   123    12    11    1
   124    12    13    2
   125   113   111   am
   126   113   114    1
   127    82    83    1
   128    82    81    1
   129    25    23    1
   130   117   114    1
   131    23    24    1
   132   111   112    2
   133    11    10    1
   134    83    84    2
   135    83    92   am
   136    96    93    1
   137    71    70    2
   138    70    76   am
   139   114   115    1
   140    92    93    1
   141   123   124    1
   142   123   122    1
   143   123   126    1
   144   124   125    2
   145    93    94    1
   146   129   131   ar
   147   129   127   ar
   148   131   130   ar
   149   127   126    1
   150   127   128   ar
   151    76    77    1
   152   130   128   ar
   153   115   116    2
   154   142   140    1
   155   143   141    1
   156    94    95    2
   157   140   141    1
   158   140   137    1
   159     8     7    2
   160    77    78    1
   161    77    80    1
   162    78    79    2
   163   136   137    1
   164   136   134   am
   165     9     7   am
   166   133   134    1
   167   133   132    1
   168     7     6    1
   169   137   138    1
   170   134   135    2
   171   138   139    2
   172     6     5    1
   173     5     2    1
   174     2     1    1
   175     2     3    1
   176     3     4    2
