@<TRIPOS>MOLECULE
tmp/2w35A01.pdb
 115 111 0 0 0
SMALL
GASTEIGER

@<TRIPOS>ATOM
      1  N         35.9280   39.4790   16.6230 N.3    43  ASP43      -0.1225
      2  CA        35.5050   39.2420   15.2540 C.3    43  ASP43       0.1805
      3  C         35.3670   37.7480   14.9520 C.2    43  ASP43       0.2598
      4  O         35.7760   36.9060   15.7470 O.2    43  ASP43      -0.2718
      5  CB        36.4790   39.9010   14.2710 C.3    43  ASP43       0.1424
      6  CG        35.8470   40.1400   12.9110 C.2    43  ASP43       0.3668
      7  OD1       34.5950   40.1690   12.8430 O.co2  43  ASP43      -0.2456
      8  OD2       36.5920   40.3120   11.9220 O.co2  43  ASP43      -0.2456
      9  N         34.7580   37.4280   13.8140 N.am   44  LEU44      -0.1966
     10  CA        34.5730   36.0400   13.3990 C.3    44  LEU44       0.1728
     11  C         34.7670   35.9030   11.8980 C.2    44  LEU44       0.2617
     12  O         34.4100   36.7930   11.1310 O.2    44  LEU44      -0.2715
     13  CB        33.1630   35.5410   13.7310 C.3    44  LEU44       0.0311
     14  CG        32.7990   35.0550   15.1280 C.3    44  LEU44       0.0022
     15  CD1       32.8070   36.2070   16.1170 C.3    44  LEU44       0.0001
     16  CD2       31.4230   34.4130   15.0660 C.3    44  LEU44       0.0001
     17  N         35.3420   34.7870   11.4810 N.am   45  SER45      -0.1936
     18  CA        35.5180   34.5180   10.0650 C.3    45  SER45       0.2055
     19  C         34.7400   33.2260    9.9370 C.2    45  SER45       0.2643
     20  O         34.3440   32.6560   10.9460 O.2    45  SER45      -0.2714
     21  CB        36.9950   34.3200    9.7090 C.3    45  SER45       0.2130
     22  OG        37.5500   33.2330   10.4180 O.3    45  SER45      -0.2179
     23  N         34.4960   32.7560    8.7260 N.am   46  PHE46      -0.1960
     24  CA        33.7260   31.5350    8.5950 C.3    46  PHE46       0.1756
     25  C         34.3330   30.5050    7.6580 C.2    46  PHE46       0.2461
     26  O         34.0330   30.4910    6.4610 O.2    46  PHE46      -0.2730
     27  CB        32.3080   31.8700    8.1420 C.3    46  PHE46       0.0574
     28  CG        31.5730   32.7670    9.0830 C.ar   46  PHE46      -0.0200
     29  CD1       31.8180   34.1370    9.0960 C.ar   46  PHE46      -0.0042
     30  CD2       30.6290   32.2440    9.9580 C.ar   46  PHE46      -0.0042
     31  CE1       31.1290   34.9750    9.9670 C.ar   46  PHE46      -0.0003
     32  CE2       29.9360   33.0700   10.8330 C.ar   46  PHE46      -0.0003
     33  CZ        30.1860   34.4400   10.8380 C.ar   46  PHE46      -0.0000
     34  N         35.1900   29.6200    8.1970 N.am   47  PRO47      -0.2727
     35  CA        35.8680   28.5540    7.4460 C.3    47  PRO47       0.1402
     36  C         34.8950   27.6770    6.6460 C.2    47  PRO47       0.2269
     37  O         35.2850   27.0280    5.6790 O.2    47  PRO47      -0.2865
     38  CB        36.5790   27.7660    8.5420 C.3    47  PRO47       0.0296
     39  CG        36.8870   28.8180    9.5590 C.3    47  PRO47       0.0237
     40  CD        35.6030   29.6020    9.6120 C.3    47  PRO47       0.0939
     41  N         22.1710   34.4520    9.1260 N.3    80  TYR80      -0.1241
     42  CA        22.3910   35.8870    9.1990 C.3    80  TYR80       0.1605
     43  C         21.1050   36.6200    8.8700 C.2    80  TYR80       0.2264
     44  O         20.5190   36.4300    7.8130 O.2    80  TYR80      -0.2867
     45  CB        23.4620   36.3710    8.2210 C.3    80  TYR80       0.0534
     46  CG        23.5600   37.8770    8.2390 C.ar   80  TYR80      -0.0201
     47  CD1       24.0310   38.5430    9.3680 C.ar   80  TYR80      -0.0009
     48  CD2       23.1110   38.6430    7.1580 C.ar   80  TYR80      -0.0009
     49  CE1       24.0520   39.9320    9.4330 C.ar   80  TYR80       0.0417
     50  CE2       23.1250   40.0420    7.2070 C.ar   80  TYR80       0.0417
     51  CZ        23.5980   40.6800    8.3510 C.ar   80  TYR80       0.1957
     52  OH        23.6190   42.0560    8.4230 O.3    80  TYR80      -0.2866
     53  N         26.6130   35.3350   15.7860 N.3    89  GLU89      -0.1245
     54  CA        28.0110   35.3830   16.2040 C.3    89  GLU89       0.1567
     55  C         28.2380   35.4110   17.7160 C.2    89  GLU89       0.2260
     56  O         29.3520   35.1600   18.1880 O.2    89  GLU89      -0.2867
     57  CB        28.7060   36.5950   15.5650 C.3    89  GLU89       0.0388
     58  CG        28.5310   36.7140   14.0490 C.3    89  GLU89       0.1160
     59  CD        29.4470   37.7700   13.4120 C.2    89  GLU89       0.3649
     60  OE1       29.6940   38.8240   14.0410 O.co2  89  GLU89      -0.2457
     61  OE2       29.9130   37.5590   12.2690 O.co2  89  GLU89      -0.2457
     62  N         32.7490   44.1860   16.0640 N.3   110  ASP110     -0.1239
     63  CA        32.6120   44.4900   14.6480 C.3   110  ASP110      0.1674
     64  C         31.1050   44.3920   14.3560 C.2   110  ASP110      0.2266
     65  O         30.6320   43.3660   13.8740 O.2   110  ASP110     -0.2867
     66  CB        33.3890   43.4410   13.8360 C.3   110  ASP110      0.1410
     67  CG        33.3460   43.6920   12.3300 C.2   110  ASP110      0.3668
     68  OD1       33.5630   42.7400   11.5470 O.co2 110  ASP110     -0.2456
     69  OD2       33.1100   44.8430   11.9200 O.co2 110  ASP110     -0.2456
     70  N         30.9640   48.6480    9.5500 N.3   139  LYS139     -0.1245
     71  CA        31.4960   49.1670    8.2990 C.3   139  LYS139      0.1561
     72  C         30.3950   49.6200    7.3530 C.2   139  LYS139      0.2260
     73  O         30.6600   50.0640    6.2370 O.2   139  LYS139     -0.2867
     74  CB        32.3760   48.1040    7.6460 C.3   139  LYS139      0.0271
     75  CG        33.5420   47.7070    8.5460 C.3   139  LYS139      0.0035
     76  CD        34.4480   46.6320    7.9470 C.3   139  LYS139      0.0206
     77  CE        33.7420   45.2870    7.8680 C.3   139  LYS139      0.1093
     78  NZ        33.1080   44.9150    9.1640 N.3   139  LYS139     -0.1314
     79  N         40.2370   40.9550   13.1390 N.3   214  HIS214     -0.1241
     80  CA        39.8500   40.5200   11.8060 C.3   214  HIS214      0.1621
     81  C         40.9830   39.7970   11.0940 C.2   214  HIS214      0.2264
     82  O         40.7890   38.7160   10.5490 O.2   214  HIS214     -0.2867
     83  CB        39.4080   41.7100   10.9630 C.3   214  HIS214      0.0745
     84  CG        38.9810   41.3300    9.5820 C.ar  214  HIS214      0.0817
     85  ND1       39.6410   41.7610    8.4520 N.ar  214  HIS214     -0.2268
     86  CD2       37.9750   40.5340    9.1500 C.ar  214  HIS214      0.1154
     87  CE1       39.0610   41.2470    7.3830 C.ar  214  HIS214      0.1986
     88  NE2       38.0480   40.4980    7.7780 N.ar  214  HIS214     -0.2212
     89  N         41.1860   35.8330    9.9560 N.3   218  GLN218     -0.1245
     90  CA        41.4830   35.4310    8.5880 C.3   218  GLN218      0.1566
     91  C         42.7500   34.5970    8.4870 C.2   218  GLN218      0.2260
     92  O         42.7810   33.6260    7.7410 O.2   218  GLN218     -0.2867
     93  CB        41.6030   36.6570    7.6770 C.3   218  GLN218      0.0367
     94  CG        40.3250   37.4860    7.5310 C.3   218  GLN218      0.0905
     95  CD        39.1650   36.7160    6.9030 C.2   218  GLN218      0.2608
     96  OE1       39.3210   36.0700    5.8690 O.2   218  GLN218     -0.2717
     97  NE2       37.9910   36.7950    7.5260 N.am  218  GLN218     -0.0878
     98  N         42.1400   31.1570    9.9480 N.3   221  LYS221     -0.1231
     99  CA        41.3180   30.4120    9.0010 C.3   221  LYS221      0.1693
    100  C         42.2130   29.7860    7.9320 C.2   221  LYS221      0.2591
    101  O         42.2860   28.5600    7.8060 O.2   221  LYS221     -0.2718
    102  CB        40.2870   31.3410    8.3500 C.3   221  LYS221      0.0285
    103  CG        39.2880   30.6290    7.4540 C.3   221  LYS221      0.0035
    104  CD        38.2340   31.5820    6.9180 C.3   221  LYS221      0.0206
    105  CE        38.8610   32.7010    6.1100 C.3   221  LYS221      0.1093
    106  NZ        37.8250   33.6020    5.5420 N.3   221  LYS221     -0.1314
    107  N         42.8950   30.6360    7.1710 N.am  222  LYS222     -0.1980
    108  CA        43.7930   30.1760    6.1210 C.3   222  LYS222      0.1596
    109  C         44.9860   29.4880    6.7760 C.2   222  LYS222      0.2287
    110  O         44.8390   28.8070    7.7950 O.2   222  LYS222     -0.2864
    111  CB        44.2680   31.3670    5.2850 C.3   222  LYS222      0.0298
    112  CG        43.1320   32.1750    4.6740 C.3   222  LYS222      0.0038
    113  CD        43.6440   33.3900    3.9140 C.3   222  LYS222      0.0206
    114  CE        42.4890   34.1650    3.2900 C.3   222  LYS222      0.1093
    115  NZ        42.9410   35.3440    2.4900 N.3   222  LYS222     -0.1314
@<TRIPOS>BOND
     1   115   114    1
     2   114   113    1
     3   113   112    1
     4   112   111    1
     5   111   108    1
     6   106   105    1
     7    37    36    2
     8    96    95    2
     9   105   104    1
    10   108   109    1
    11   108   107    1
    12    73    72    2
    13    26    25    2
    14    36    35    1
    15   109   110    2
    16    95    97   am
    17    95    94    1
    18   104   103    1
    19    48    50   ar
    20    48    46   ar
    21   107   100   am
    22    50    51   ar
    23    72    71    1
    24    87    88   ar
    25    87    85   ar
    26    35    34    1
    27    35    38    1
    28   103   102    1
    29    94    93    1
    30    74    71    1
    31    74    75    1
    32    25    34   am
    33    25    24    1
    34    93    90    1
    35    92    91    2
    36    88    86   ar
    37   101   100    2
    38    44    43    2
    39    77    76    1
    40    77    78    1
    41   100    99    1
    42    76    75    1
    43    27    24    1
    44    27    28    1
    45    34    40    1
    46    45    46    1
    47    45    42    1
    48    46    47   ar
    49    71    70    1
    50   102    99    1
    51    51    52    1
    52    51    49   ar
    53    85    84   ar
    54    91    90    1
    55    38    39    1
    56    90    89    1
    57    24    23    1
    58    23    19   am
    59    43    42    1
    60    99    98    1
    61    28    29   ar
    62    28    30   ar
    63    29    31   ar
    64    41    42    1
    65    86    84   ar
    66    47    49   ar
    67    39    40    1
    68    84    83    1
    69    21    18    1
    70    21    22    1
    71    19    18    1
    72    19    20    2
    73    30    32   ar
    74    31    33   ar
    75    18    17    1
    76    82    81    2
    77    32    33   ar
    78    83    80    1
    79    81    80    1
    80    12    11    2
    81    17    11   am
    82    68    67   ar
    83    80    79    1
    84    11    10    1
    85    69    67   ar
    86     8     6   ar
    87    61    59   ar
    88    67    66    1
    89     7     6   ar
    90     6     5    1
    91    10    13    1
    92    10     9    1
    93    59    60   ar
    94    59    58    1
    95    13    14    1
    96     9     3   am
    97    66    63    1
    98    65    64    2
    99    58    57    1
   100     5     2    1
   101    64    63    1
   102    63    62    1
   103     3     2    1
   104     3     4    2
   105    16    14    1
   106    14    15    1
   107     2     1    1
   108    57    54    1
   109    53    54    1
   110    54    55    1
   111    55    56    2
