@<TRIPOS>MOLECULE
tmp/2w39A00.pdb
 145 141 0 0 0
SMALL
GASTEIGER

@<TRIPOS>ATOM
      1  N          7.1610   20.9050   45.7150 N.3    26  PRO26      -0.2102
      2  CA         7.7730   19.6170   46.0560 C.3    26  PRO26       0.1504
      3  C          6.7670   18.4560   46.0610 C.2    26  PRO26       0.2576
      4  O          7.1660   17.3080   45.8510 O.2    26  PRO26      -0.2718
      5  CB         8.3570   19.8730   47.4490 C.3    26  PRO26       0.0282
      6  CG         8.5760   21.3460   47.4930 C.3    26  PRO26       0.0208
      7  CD         7.4120   21.9190   46.7600 C.3    26  PRO26       0.0893
      8  N          5.4790   18.7510   46.2840 N.am   27  THR27      -0.1953
      9  CA         4.4460   17.7200   46.2870 C.3    27  THR27       0.1897
     10  C          3.7240   17.5800   44.9480 C.2    27  THR27       0.2313
     11  O          2.7030   16.9060   44.8650 O.2    27  THR27      -0.2863
     12  CB         3.4520   17.8870   47.4670 C.3    27  THR27       0.1794
     13  OG1        2.9790   19.2330   47.5220 O.3    27  THR27      -0.2208
     14  CG2        4.1440   17.5850   48.7730 C.3    27  THR27       0.0378
     15  N          2.8820   29.9840   49.0950 N.3    73  ARG73      -0.1245
     16  CA         3.5600   29.1900   50.1150 C.3    73  ARG73       0.1563
     17  C          4.4960   30.1670   50.8200 C.2    73  ARG73       0.2260
     18  O          5.4850   30.6120   50.2360 O.2    73  ARG73      -0.2867
     19  CB         4.3280   28.0480   49.4490 C.3    73  ARG73       0.0307
     20  CG         5.2430   27.2710   50.3990 C.3    73  ARG73       0.0489
     21  CD         5.6760   25.9810   49.7810 C.3    73  ARG73       0.2205
     22  NE         6.8120   25.3780   50.4800 N.pl3  73  ARG73      -0.0865
     23  CZ         7.0850   24.0730   50.4990 C.cat  73  ARG73       0.5346
     24  NH1        6.2350   23.1880   49.9970 N.pl3  73  ARG73       0.1354
     25  NH2        8.1900   23.6430   51.0910 N.pl3  73  ARG73       0.1354
     26  N         -5.2660   21.2590   49.1660 N.3    99  TRP99      -0.1241
     27  CA        -4.3260   20.6310   50.0830 C.3    99  TRP99       0.1605
     28  C         -3.5890   21.7470   50.8270 C.2    99  TRP99       0.2264
     29  O         -2.4770   22.1440   50.4620 O.2    99  TRP99      -0.2867
     30  CB        -3.3940   19.7080   49.3200 C.3    99  TRP99       0.0550
     31  CG        -2.3990   18.9470   50.1550 C.ar   99  TRP99       0.0003
     32  CD1       -2.2600   18.9260   51.5280 C.ar   99  TRP99       0.0946
     33  CD2       -1.3750   18.0960   49.6400 C.ar   99  TRP99       0.0152
     34  NE1       -1.1990   18.1250   51.8860 N.ar   99  TRP99      -0.2442
     35  CE2       -0.6410   17.5970   50.7470 C.ar   99  TRP99       0.0810
     36  CE3       -0.9920   17.7160   48.3490 C.ar   99  TRP99       0.0012
     37  CZ2        0.4590   16.7380   50.5950 C.ar   99  TRP99       0.0191
     38  CZ3        0.0980   16.8580   48.2050 C.ar   99  TRP99       0.0001
     39  CH2        0.8060   16.3820   49.3140 C.ar   99  TRP99       0.0015
     40  N         -1.7860   23.5050   54.2390 N.3   101  ALA101     -0.1245
     41  CA        -0.9950   23.0840   55.3800 C.3   101  ALA101      0.1562
     42  C         -0.4060   24.2590   56.1390 C.2   101  ALA101      0.2260
     43  O         -0.0470   25.2860   55.5470 O.2   101  ALA101     -0.2867
     44  CB         0.1210   22.1260   54.9360 C.3   101  ALA101      0.0290
     45  N          2.7600   24.2100   58.9400 N.3   103  TRP103     -0.1241
     46  CA         3.7330   23.1920   59.3020 C.3   103  TRP103      0.1605
     47  C          5.0830   23.8210   59.5530 C.2   103  TRP103      0.2264
     48  O          5.2710   25.0150   59.3510 O.2   103  TRP103     -0.2867
     49  CB         3.7610   22.1020   58.2180 C.3   103  TRP103      0.0550
     50  CG         4.0520   22.5370   56.8240 C.ar  103  TRP103      0.0003
     51  CD1        3.2880   23.3600   56.0230 C.ar  103  TRP103      0.0946
     52  CD2        5.0980   22.0360   55.9930 C.ar  103  TRP103      0.0152
     53  NE1        3.8380   23.4390   54.7620 N.ar  103  TRP103     -0.2442
     54  CE2        4.9460   22.6290   54.7160 C.ar  103  TRP103      0.0810
     55  CE3        6.1500   21.1400   56.2010 C.ar  103  TRP103      0.0012
     56  CZ2        5.7940   22.3360   53.6570 C.ar  103  TRP103      0.0191
     57  CZ3        6.9870   20.8440   55.1370 C.ar  103  TRP103      0.0001
     58  CH2        6.8090   21.4550   53.8910 C.ar  103  TRP103      0.0015
     59  N         15.8120   17.9920   54.3080 N.3   110  TRP110     -0.1241
     60  CA        14.6460   17.1290   54.5080 C.3   110  TRP110      0.1605
     61  C         14.9770   15.6850   54.1030 C.2   110  TRP110      0.2264
     62  O         15.5940   15.4660   53.0640 O.2   110  TRP110     -0.2867
     63  CB        13.4630   17.6730   53.6920 C.3   110  TRP110      0.0550
     64  CG        12.1640   17.0020   54.0340 C.ar  110  TRP110      0.0003
     65  CD1       11.2220   17.4450   54.9230 C.ar  110  TRP110      0.0946
     66  CD2       11.6630   15.7630   53.5080 C.ar  110  TRP110      0.0152
     67  NE1       10.1760   16.5560   54.9940 N.ar  110  TRP110     -0.2442
     68  CE2       10.4150   15.5150   54.1360 C.ar  110  TRP110      0.0810
     69  CE3       12.1480   14.8300   52.5810 C.ar  110  TRP110      0.0012
     70  CZ2        9.6400   14.3890   53.8480 C.ar  110  TRP110      0.0191
     71  CZ3       11.3690   13.7120   52.2960 C.ar  110  TRP110      0.0001
     72  CH2       10.1400   13.4930   52.9440 C.ar  110  TRP110      0.0015
     73  N         10.0810   17.3240   60.2110 N.3   115  GLU115     -0.1245
     74  CA         8.9020   18.0280   59.7130 C.3   115  GLU115      0.1567
     75  C          7.8000   17.7760   60.7200 C.2   115  GLU115      0.2260
     76  O          7.6040   16.6340   61.1560 O.2   115  GLU115     -0.2867
     77  CB         8.4800   17.4860   58.3420 C.3   115  GLU115      0.0388
     78  CG         7.1400   18.0120   57.8490 C.3   115  GLU115      0.1160
     79  CD         6.7020   17.4370   56.5200 C.2   115  GLU115      0.3649
     80  OE1        7.5050   16.7760   55.8280 O.co2 115  GLU115     -0.2457
     81  OE2        5.5410   17.6720   56.1300 O.co2 115  GLU115     -0.2457
     82  N          3.7140   18.5960   60.8510 N.3   117  ASP117     -0.1239
     83  CA         2.5140   19.1300   60.2070 C.3   117  ASP117      0.1674
     84  C          1.4980   19.3970   61.2860 C.2   117  ASP117      0.2266
     85  O          1.1180   18.4880   62.0210 O.2   117  ASP117     -0.2867
     86  CB         1.9740   18.1380   59.1790 C.3   117  ASP117      0.1410
     87  CG         3.0410   17.7130   58.1880 C.2   117  ASP117      0.3668
     88  OD1        3.7260   18.6070   57.6290 O.co2 117  ASP117     -0.2456
     89  OD2        3.2380   16.5150   57.9980 O.co2 117  ASP117     -0.2456
     90  N         -3.2580   20.0780   58.4360 N.3   120  GLU120     -0.1245
     91  CA        -3.0920   19.4760   57.1110 C.3   120  GLU120      0.1567
     92  C         -4.2380   18.5510   56.7770 C.2   120  GLU120      0.2260
     93  O         -4.6910   17.7720   57.6200 O.2   120  GLU120     -0.2867
     94  CB        -1.8020   18.6370   57.0470 C.3   120  GLU120      0.0388
     95  CG        -1.4150   18.3090   55.6040 C.3   120  GLU120      0.1160
     96  CD        -0.2110   17.4030   55.4560 C.2   120  GLU120      0.3649
     97  OE1        0.2560   16.8210   56.4590 O.co2 120  GLU120     -0.2457
     98  OE2        0.2580   17.2690   54.3020 O.co2 120  GLU120     -0.2457
     99  N          7.4340   13.7940   60.2380 N.3   133  HIS133     -0.1241
    100  CA         8.2250   13.0730   59.2340 C.3   133  HIS133      0.1621
    101  C          9.6810   13.2610   59.6130 C.2   133  HIS133      0.2264
    102  O         10.1260   14.3910   59.8140 O.2   133  HIS133     -0.2867
    103  CB         8.0150   13.6650   57.8360 C.3   133  HIS133      0.0745
    104  CG         6.5930   13.7020   57.3800 C.ar  133  HIS133      0.0817
    105  ND1        6.1350   12.9760   56.3050 N.ar  133  HIS133     -0.2268
    106  CD2        5.5320   14.4190   57.8240 C.ar  133  HIS133      0.1154
    107  CE1        4.8500   13.2270   56.1170 C.ar  133  HIS133      0.1986
    108  NE2        4.4590   14.0950   57.0300 N.ar  133  HIS133     -0.2212
    109  N          6.7270    7.7350   53.4190 N.3   162  ASN162     -0.1240
    110  CA         6.4060    9.1420   53.6650 C.3   162  ASN162      0.1653
    111  C          5.0160    9.2640   54.1410 C.2   162  ASN162      0.2266
    112  O          4.4670   10.3080   53.9460 O.2   162  ASN162     -0.2867
    113  CB         6.6840   10.2020   52.5100 C.3   162  ASN162      0.1155
    114  CG         6.7640   11.6840   53.0580 C.2   162  ASN162      0.2627
    115  OD1        7.1780   11.8560   54.1260 O.2   162  ASN162     -0.2716
    116  ND2        6.3220   12.7010   52.3170 N.am  162  ASN162     -0.0877
    117  N          0.7840   27.1880   53.4670 N.3   250  ASN250     -0.1240
    118  CA         0.6480   27.0700   52.0130 C.3   250  ASN250      0.1653
    119  C         -0.6890   26.5120   51.6000 C.2   250  ASN250      0.2266
    120  O         -1.4520   25.9990   52.4210 O.2   250  ASN250     -0.2867
    121  CB         1.7750   26.1920   51.4190 C.3   250  ASN250      0.1155
    122  CG         1.6180   24.7400   51.7900 C.2   250  ASN250      0.2627
    123  OD1        1.9640   24.3430   52.9060 O.2   250  ASN250     -0.2716
    124  ND2        1.0540   23.9390   50.8830 N.am  250  ASN250     -0.0877
    125  N         -1.5760   24.0420   48.2190 N.3   252  THR252     -0.1218
    126  CA        -1.3880   23.4110   46.9200 C.3   252  THR252      0.1862
    127  C         -2.6960   22.7410   46.4780 C.2   252  THR252      0.2287
    128  O         -3.6980   22.7690   47.2110 O.2   252  THR252     -0.2866
    129  CB        -0.1500   22.4550   46.8890 C.3   252  THR252      0.1770
    130  OG1        0.1410   22.1860   45.5090 O.3   252  THR252     -0.2211
    131  CG2       -0.3650   21.1590   47.6540 C.3   252  THR252      0.0375
    132  N         -0.7430   13.6510   47.3540 N.3   257  TRP257     -0.1241
    133  CA        -1.7980   13.1740   48.2410 C.3   257  TRP257      0.1605
    134  C         -3.1600   13.4960   47.6300 C.2   257  TRP257      0.2264
    135  O         -3.8710   12.5820   47.2130 O.2   257  TRP257     -0.2867
    136  CB        -1.6120   13.7320   49.6630 C.3   257  TRP257      0.0550
    137  CG        -2.6010   13.2350   50.6960 C.ar  257  TRP257      0.0003
    138  CD1       -3.5610   12.2780   50.5300 C.ar  257  TRP257      0.0946
    139  CD2       -2.6880   13.6590   52.0610 C.ar  257  TRP257      0.0152
    140  NE1       -4.2540   12.0930   51.7130 N.ar  257  TRP257     -0.2442
    141  CE2       -3.7420   12.9380   52.6630 C.ar  257  TRP257      0.0810
    142  CE3       -1.9920   14.6040   52.8280 C.ar  257  TRP257      0.0012
    143  CZ2       -4.1080   13.1230   53.9980 C.ar  257  TRP257      0.0191
    144  CZ3       -2.3590   14.7880   54.1530 C.ar  257  TRP257      0.0001
    145  CH2       -3.4130   14.0530   54.7220 C.ar  257  TRP257      0.0015
@<TRIPOS>BOND
     1    11    10    2
     2    10     9    1
     3   130   129    1
     4     1     2    1
     5     1     7    1
     6     4     3    2
     7     2     3    1
     8     2     5    1
     9     3     8   am
    10     8     9    1
    11     9    12    1
    12   127   126    1
    13   127   128    2
    14     7     6    1
    15   129   126    1
    16   129   131    1
    17   126   125    1
    18   135   134    2
    19   132   133    1
    20     5     6    1
    21    12    13    1
    22    12    14    1
    23   134   133    1
    24    38    36   ar
    25    38    39   ar
    26   133   136    1
    27    36    33   ar
    28    15    16    1
    29    26    27    1
    30    39    37   ar
    31    30    27    1
    32    30    31    1
    33    19    16    1
    34    19    20    1
    35    33    31   ar
    36    33    35   ar
    37   136   137    1
    38    21    20    1
    39    21    22    1
    40    24    23    1
    41    27    28    1
    42    16    17    1
    43    31    32   ar
    44    18    17    2
    45    29    28    2
    46    22    23    2
    47    23    25    1
    48   138   137   ar
    49   138   140   ar
    50    37    35   ar
    51   137   139   ar
    52    35    34   ar
    53   124   122   am
    54   121   122    1
    55   121   118    1
    56    32    34   ar
    57   119   118    1
    58   119   120    2
    59   140   141   ar
    60   122   123    2
    61   118   117    1
    62   139   141   ar
    63   139   142   ar
    64    71    69   ar
    65    71    72   ar
    66   116   114   am
    67   113   114    1
    68   113   110    1
    69    69    66   ar
    70   141   143   ar
    71   142   144   ar
    72    72    70   ar
    73   114   115    2
    74    62    61    2
    75   109   110    1
    76    66    64   ar
    77    66    68   ar
    78    56    58   ar
    79    56    54   ar
    80   110   111    1
    81    63    64    1
    82    63    60    1
    83    70    68   ar
    84    58    57   ar
    85   112   111    2
    86   143   145   ar
    87    64    65   ar
    88    61    60    1
    89    68    67   ar
    90   144   145   ar
    91    40    41    1
    92    98    96   ar
    93    59    60    1
    94    54    53   ar
    95    54    52   ar
    96    53    51   ar
    97    65    67   ar
    98    44    41    1
    99    57    55   ar
   100    41    42    1
   101    96    95    1
   102    96    97   ar
   103    43    42    2
   104    95    94    1
   105    80    79   ar
   106    52    55   ar
   107    52    50   ar
   108    51    50   ar
   109   107   105   ar
   110   107   108   ar
   111    81    79   ar
   112   105   104   ar
   113    79    78    1
   114    92    91    1
   115    92    93    2
   116    50    49    1
   117   108   106   ar
   118    94    91    1
   119    91    90    1
   120   104   106   ar
   121   104   103    1
   122    88    87   ar
   123   103   100    1
   124    78    77    1
   125    89    87   ar
   126    87    86    1
   127    49    46    1
   128    77    74    1
   129    45    46    1
   130    86    83    1
   131   100   101    1
   132   100    99    1
   133    46    47    1
   134    48    47    2
   135   101   102    2
   136    74    73    1
   137    74    75    1
   138    83    82    1
   139    83    84    1
   140    75    76    2
   141    84    85    2
