@<TRIPOS>MOLECULE
tmp/2w3bA01.pdb
 169 162 0 0 0
SMALL
GASTEIGER

@<TRIPOS>ATOM
      1  N          0.7750   21.4120   -3.2870 N.3     7  ILE7       -0.1231
      2  CA         1.0350   22.4000   -4.3480 C.3     7  ILE7        0.1692
      3  C          2.2150   23.2290   -3.9450 C.2     7  ILE7        0.2592
      4  O          2.3070   23.6460   -2.7960 O.2     7  ILE7       -0.2718
      5  CB        -0.2400   23.2320   -4.6440 C.3     7  ILE7        0.0266
      6  CG1       -0.0510   24.1330   -5.8570 C.3     7  ILE7        0.0019
      7  CG2       -0.7270   24.0010   -3.4130 C.3     7  ILE7        0.0020
      8  CD1       -1.3500   24.6110   -6.4500 C.3     7  ILE7        0.0001
      9  N          3.1210   23.4720   -4.8850 N.am    8  VAL8       -0.1966
     10  CA         4.3840   24.1760   -4.6490 C.3     8  VAL8        0.1727
     11  C          4.8430   24.8120   -5.9420 C.2     8  VAL8        0.2616
     12  O          4.5290   24.3120   -7.0300 O.2     8  VAL8       -0.2715
     13  CB         5.4850   23.1890   -4.0810 C.3     8  VAL8        0.0290
     14  CG1        5.8780   22.1820   -5.1300 C.3     8  VAL8        0.0023
     15  CG2        6.6960   23.9580   -3.5540 C.3     8  VAL8        0.0023
     16  N          5.6140   25.8920   -5.8460 N.am    9  ALA9       -0.1977
     17  CA         6.3680   26.4730   -6.9660 C.3     9  ALA9        0.1597
     18  C          7.8610   26.4080   -6.5640 C.2     9  ALA9        0.2287
     19  O          8.2170   26.7530   -5.4340 O.2     9  ALA9       -0.2864
     20  CB         5.9500   27.9060   -7.2410 C.3     9  ALA9        0.0319
     21  N          9.9500   35.1790    2.2610 N.3    21  ASP21      -0.1225
     22  CA         9.1380   35.4520    1.0830 C.3    21  ASP21       0.1805
     23  C          9.5570   34.4710    0.0050 C.2    21  ASP21       0.2597
     24  O         10.3230   33.5580    0.2620 O.2    21  ASP21      -0.2718
     25  CB         9.3250   36.8900    0.6400 C.3    21  ASP21       0.1424
     26  CG         8.1810   37.4210   -0.2580 C.2    21  ASP21       0.3668
     27  OD1        7.3360   36.6610   -0.8290 O.co2  21  ASP21      -0.2456
     28  OD2        8.1290   38.6700   -0.3580 O.co2  21  ASP21      -0.2456
     29  N          9.0580   34.6530   -1.2100 N.am   22  LEU22      -0.1979
     30  CA         9.4160   33.8140   -2.3380 C.3    22  LEU22       0.1596
     31  C         10.7540   34.2880   -2.9230 C.2    22  LEU22       0.2287
     32  O         11.1590   35.4380   -2.7580 O.2    22  LEU22      -0.2864
     33  CB         8.3270   33.8280   -3.4080 C.3    22  LEU22       0.0297
     34  CG         6.9680   33.3830   -2.8640 C.3    22  LEU22       0.0022
     35  CD1        5.9350   33.5950   -3.9370 C.3    22  LEU22       0.0001
     36  CD2        6.9960   31.9700   -2.3810 C.3    22  LEU22       0.0001
     37  N          1.8210   36.9830  -11.0800 N.3    28  ARG28      -0.1245
     38  CA         0.4120   37.1010  -10.7600 C.3    28  ARG28       0.1563
     39  C         -0.4390   35.9540  -11.2840 C.2    28  ARG28       0.2260
     40  O         -1.3590   35.5230  -10.5960 O.2    28  ARG28      -0.2867
     41  CB        -0.1190   38.4640  -11.2180 C.3    28  ARG28       0.0307
     42  CG         0.6300   39.6650  -10.6050 C.3    28  ARG28       0.0489
     43  CD         0.5360   39.6760   -9.0750 C.3    28  ARG28       0.2205
     44  NE         1.3550   40.7200   -8.4570 N.pl3  28  ARG28      -0.0865
     45  CZ         1.5300   40.8760   -7.1440 C.cat  28  ARG28       0.5346
     46  NH1        0.9370   40.0570   -6.2830 N.pl3  28  ARG28       0.1354
     47  NH2        2.3100   41.8560   -6.6830 N.pl3  28  ARG28       0.1354
     48  N          0.6500   32.8910  -11.7690 N.3    30  GLU30      -0.1231
     49  CA         1.0580   31.7230  -10.9850 C.3    30  GLU30       0.1699
     50  C          0.2980   31.7460   -9.6470 C.2    30  GLU30       0.2592
     51  O         -0.2400   30.7310   -9.2210 O.2    30  GLU30      -0.2718
     52  CB         2.5950   31.6670  -10.7940 C.3    30  GLU30       0.0402
     53  CG         3.1090   30.2400  -10.6360 C.3    30  GLU30       0.1161
     54  CD         2.8160   29.5810   -9.3040 C.2    30  GLU30       0.3649
     55  OE1        2.9380   30.2550   -8.2460 O.co2  30  GLU30      -0.2457
     56  OE2        2.5190   28.3570   -9.3220 O.co2  30  GLU30      -0.2457
     57  N          0.2120   32.9030   -9.0070 N.am   31  PHE31      -0.1976
     58  CA        -0.5910   33.0610   -7.7850 C.3    31  PHE31       0.1639
     59  C         -2.0600   32.7360   -8.0700 C.2    31  PHE31       0.2290
     60  O         -2.7200   32.0830   -7.2690 O.2    31  PHE31      -0.2864
     61  CB        -0.5440   34.4910   -7.2160 C.3    31  PHE31       0.0560
     62  CG         0.7330   34.9000   -6.5450 C.ar   31  PHE31      -0.0200
     63  CD1        1.5510   34.0060   -5.8970 C.ar   31  PHE31      -0.0042
     64  CD2        1.0830   36.2320   -6.5290 C.ar   31  PHE31      -0.0042
     65  CE1        2.7220   34.4590   -5.2770 C.ar   31  PHE31      -0.0003
     66  CE2        2.2490   36.6690   -5.9060 C.ar   31  PHE31      -0.0003
     67  CZ         3.0370   35.7850   -5.2830 C.ar   31  PHE31      -0.0000
     68  N         -3.2020   30.7060  -10.2990 N.3    33  TYR33      -0.1227
     69  CA        -3.2570   29.2380  -10.4260 C.3    33  TYR33       0.1736
     70  C         -3.3130   28.5630   -9.0640 C.2    33  TYR33       0.2595
     71  O         -4.1530   27.7180   -8.8100 O.2    33  TYR33      -0.2718
     72  CB        -2.0430   28.7410  -11.2090 C.3    33  TYR33       0.0548
     73  CG        -1.9170   27.2380  -11.2870 C.ar   33  TYR33      -0.0200
     74  CD1       -2.6510   26.4990  -12.1940 C.ar   33  TYR33      -0.0009
     75  CD2       -0.9830   26.5480  -10.4790 C.ar   33  TYR33      -0.0009
     76  CE1       -2.4850   25.1240  -12.3040 C.ar   33  TYR33       0.0417
     77  CE2       -0.8430   25.1700  -10.5830 C.ar   33  TYR33       0.0417
     78  CZ        -1.5790   24.4730  -11.5040 C.ar   33  TYR33       0.1957
     79  OH        -1.3980   23.1090  -11.6440 O.3    33  TYR33      -0.2866
     80  N         -2.4370   28.9760   -8.1590 N.am   34  PHE34      -0.1962
     81  CA        -2.4900   28.5080   -6.7900 C.3    34  PHE34       0.1771
     82  C         -3.8700   28.7350   -6.1780 C.2    34  PHE34       0.2619
     83  O         -4.3970   27.8380   -5.5400 O.2    34  PHE34      -0.2715
     84  CB        -1.3970   29.2130   -5.9430 C.3    34  PHE34       0.0574
     85  CG        -1.5650   28.9890   -4.4700 C.ar   34  PHE34      -0.0200
     86  CD1       -1.1240   27.8420   -3.8570 C.ar   34  PHE34      -0.0042
     87  CD2       -2.2800   29.8880   -3.7090 C.ar   34  PHE34      -0.0042
     88  CE1       -1.2870   27.6290   -2.4920 C.ar   34  PHE34      -0.0003
     89  CE2       -2.4570   29.6830   -2.3350 C.ar   34  PHE34      -0.0003
     90  CZ        -1.9670   28.5400   -1.7400 C.ar   34  PHE34      -0.0000
     91  N         -4.4130   29.9430   -6.3370 N.am   35  GLN35      -0.1977
     92  CA        -5.7370   30.2650   -5.8080 C.3    35  GLN35       0.1601
     93  C         -6.7980   29.3640   -6.4140 C.2    35  GLN35       0.2287
     94  O         -7.5980   28.7850   -5.6920 O.2    35  GLN35      -0.2864
     95  CB        -6.0930   31.7410   -6.0580 C.3    35  GLN35       0.0394
     96  CG        -5.1640   32.7790   -5.4130 C.3    35  GLN35       0.0908
     97  CD        -5.4620   33.0480   -3.9470 C.2    35  GLN35       0.2608
     98  OE1       -5.4270   32.1420   -3.1140 O.2    35  GLN35      -0.2717
     99  NE2       -5.7300   34.3160   -3.6180 N.am   35  GLN35      -0.0878
    100  N          4.9530   29.6800    6.7120 N.3    56  THR56      -0.1218
    101  CA         4.1510   29.8910    5.4990 C.3    56  THR56       0.1862
    102  C          2.9310   30.7990    5.7670 C.2    56  THR56       0.2287
    103  O          2.6560   31.7190    5.0070 O.2    56  THR56      -0.2866
    104  CB         3.7700   28.5560    4.8500 C.3    56  THR56       0.1770
    105  OG1        4.9590   27.9040    4.4190 O.3    56  THR56      -0.2211
    106  CG2        2.8380   28.7570    3.6580 C.3    56  THR56       0.0375
    107  N          4.0250   34.3260    5.9540 N.3    59  SER59      -0.1202
    108  CA         4.5420   34.7690    4.6700 C.3    59  SER59       0.2020
    109  C          3.4260   35.2560    3.7500 C.2    59  SER59       0.2619
    110  O          3.6690   35.9540    2.7820 O.2    59  SER59      -0.2717
    111  CB         5.3950   33.6510    4.0390 C.3    59  SER59       0.2103
    112  OG         4.5920   32.6970    3.4050 O.3    59  SER59      -0.2182
    113  N          2.1860   34.8860    4.0330 N.am   60  ILE60      -0.1966
    114  CA         1.0380   35.3770    3.2400 C.3    60  ILE60       0.1712
    115  C          0.7320   36.8070    3.7030 C.2    60  ILE60       0.2458
    116  O          0.6430   37.0330    4.8850 O.2    60  ILE60      -0.2730
    117  CB        -0.2290   34.5100    3.4360 C.3    60  ILE60       0.0289
    118  CG1        0.0620   33.0430    3.0550 C.3    60  ILE60       0.0022
    119  CG2       -1.3820   35.0830    2.6320 C.3    60  ILE60       0.0023
    120  CD1       -1.0530   32.0780    3.4680 C.3    60  ILE60       0.0001
    121  N          0.5610   37.7650    2.7690 N.am   61  PRO61      -0.2727
    122  CA         0.2560   39.1380    3.2060 C.3    61  PRO61       0.1402
    123  C         -0.9650   39.1790    4.1130 C.2    61  PRO61       0.2269
    124  O         -1.9610   38.5000    3.8390 O.2    61  PRO61      -0.2865
    125  CB        -0.0210   39.8830    1.8870 C.3    61  PRO61       0.0296
    126  CG         0.6350   39.0760    0.8210 C.3    61  PRO61       0.0237
    127  CD         0.6340   37.6430    1.3040 C.3    61  PRO61       0.0939
    128  N         -4.4850   39.2600    2.8300 N.3    64  ASN64      -0.1240
    129  CA        -4.9740   38.0510    2.1660 C.3    64  ASN64       0.1653
    130  C         -5.1770   36.8700    3.1350 C.2    64  ASN64       0.2266
    131  O         -5.4060   35.7380    2.6960 O.2    64  ASN64      -0.2867
    132  CB        -4.0020   37.6040    1.0750 C.3    64  ASN64       0.1155
    133  CG        -3.9660   38.5350   -0.1140 C.2    64  ASN64       0.2627
    134  OD1       -4.7270   39.5110   -0.2040 O.2    64  ASN64      -0.2716
    135  ND2       -3.0940   38.2210   -1.0520 N.am   64  ASN64      -0.0877
    136  N         -6.7500   32.7500    3.7450 N.3    67  LEU67      -0.1245
    137  CA        -6.9970   32.5700    2.3120 C.3    67  LEU67       0.1561
    138  C         -8.4830   32.3570    2.0550 C.2    67  LEU67       0.2260
    139  O         -9.0810   31.4270    2.5900 O.2    67  LEU67      -0.2867
    140  CB        -6.1990   31.3820    1.7790 C.3    67  LEU67       0.0270
    141  CG        -4.6700   31.5490    1.8060 C.3    67  LEU67       0.0019
    142  CD1       -3.9620   30.2620    1.4360 C.3    67  LEU67       0.0001
    143  CD2       -4.2210   32.6600    0.8830 C.3    67  LEU67       0.0001
    144  N          0.0950   23.2440    1.4720 N.3   115  VAL115     -0.1245
    145  CA         0.6280   24.4160    0.7930 C.3   115  VAL115      0.1561
    146  C          1.9800   24.8860    1.3040 C.2   115  VAL115      0.2260
    147  O          2.4020   25.9940    0.9480 O.2   115  VAL115     -0.2867
    148  CB        -0.4320   25.5710    0.7160 C.3   115  VAL115      0.0252
    149  CG1       -1.7470   25.0610    0.1310 C.3   115  VAL115      0.0019
    150  CG2       -0.6800   26.2240    2.0540 C.3   115  VAL115      0.0019
    151  N          5.5490   19.4080    3.4280 N.3   121  TYR121     -0.1241
    152  CA         5.6690   18.6800    2.1540 C.3   121  TYR121      0.1605
    153  C          6.3180   17.3060    2.3160 C.2   121  TYR121      0.2264
    154  O          5.8380   16.3180    1.7740 O.2   121  TYR121     -0.2867
    155  CB         6.4930   19.4700    1.1430 C.3   121  TYR121      0.0534
    156  CG         5.8590   20.7460    0.5910 C.ar  121  TYR121     -0.0201
    157  CD1        4.5510   20.7880    0.1020 C.ar  121  TYR121     -0.0009
    158  CD2        6.6130   21.9150    0.4890 C.ar  121  TYR121     -0.0009
    159  CE1        4.0390   21.9490   -0.4530 C.ar  121  TYR121      0.0417
    160  CE2        6.1140   23.0530   -0.0700 C.ar  121  TYR121      0.0417
    161  CZ         4.8200   23.0800   -0.5180 C.ar  121  TYR121      0.1957
    162  OH         4.3100   24.2180   -1.0670 O.3   121  TYR121     -0.2866
    163  N          4.9570   23.7540   -9.8280 N.3   136  THR136     -0.1218
    164  CA         5.2960   24.7500  -10.8410 C.3   136  THR136      0.1862
    165  C          6.8140   24.8280  -10.9300 C.2   136  THR136      0.2287
    166  O          7.4720   25.1460   -9.9350 O.2   136  THR136     -0.2866
    167  CB         4.7230   26.1360  -10.4900 C.3   136  THR136      0.1770
    168  OG1        3.3050   26.0250  -10.3910 O.3   136  THR136     -0.2211
    169  CG2        5.0810   27.1410  -11.5870 C.3   136  THR136      0.0375
@<TRIPOS>BOND
     1    76    74   ar
     2    76    78   ar
     3    74    73   ar
     4    48    49    1
     5    79    78    1
     6   169   167    1
     7    78    77   ar
     8    73    72    1
     9    73    75   ar
    10    39    38    1
    11    39    40    2
    12    41    38    1
    13    41    42    1
    14    72    69    1
    15    37    38    1
    16    49    52    1
    17    49    50    1
    18   165   164    1
    19   165   166    2
    20   164   167    1
    21   164   163    1
    22    52    53    1
    23    53    54    1
    24    42    43    1
    25    77    75   ar
    26   167   168    1
    27    69    68    1
    28    69    70    1
    29    50    51    2
    30    50    57   am
    31    56    54   ar
    32    54    55   ar
    33    43    44    1
    34    70    71    2
    35    70    80   am
    36    57    58    1
    37    44    45    2
    38    80    81    1
    39    59    58    1
    40    59    60    2
    41    58    61    1
    42    20    17    1
    43    61    62    1
    44    45    47    1
    45    45    46    1
    46    12    11    2
    47    17    18    1
    48    17    16    1
    49    81    82    1
    50    81    84    1
    51    18    19    2
    52    62    64   ar
    53    62    63   ar
    54    64    66   ar
    55     8     6    1
    56    93    92    1
    57    93    94    2
    58    91    82   am
    59    91    92    1
    60    82    83    2
    61    95    92    1
    62    95    96    1
    63    84    85    1
    64    11    16   am
    65    11    10    1
    66    66    67   ar
    67    63    65   ar
    68     6     5    1
    69    96    97    1
    70    67    65   ar
    71    14    13    1
    72     9    10    1
    73     9     3   am
    74    10    13    1
    75     5     2    1
    76     5     7    1
    77    85    86   ar
    78    85    87   ar
    79     2     3    1
    80     2     1    1
    81    13    15    1
    82    97    99   am
    83    97    98    2
    84     3     4    2
    85    35    34    1
    86    86    88   ar
    87    87    89   ar
    88    33    34    1
    89    33    30    1
    90    31    32    2
    91    31    30    1
    92    34    36    1
    93    88    90   ar
    94    30    29    1
    95    89    90   ar
    96    29    23   am
    97   162   161    1
    98   135   133   am
    99    27    26   ar
   100   161   159   ar
   101   161   160   ar
   102   159   157   ar
   103    28    26   ar
   104    26    25    1
   105   134   133    2
   106   133   132    1
   107   160   158   ar
   108    23    24    2
   109    23    22    1
   110   157   156   ar
   111   149   148    1
   112   158   156   ar
   113   156   155    1
   114    25    22    1
   115   148   145    1
   116   148   150    1
   117   145   146    1
   118   145   144    1
   119   126   127    1
   120   126   125    1
   121   143   141    1
   122   147   146    2
   123   132   129    1
   124    22    21    1
   125   155   152    1
   126   127   121    1
   127   142   141    1
   128   154   153    2
   129   140   141    1
   130   140   137    1
   131   125   122    1
   132   138   137    1
   133   138   139    2
   134   152   153    1
   135   152   151    1
   136   129   128    1
   137   129   130    1
   138   137   136    1
   139   119   117    1
   140   131   130    2
   141   121   122    1
   142   121   115   am
   143   110   109    2
   144   118   117    1
   145   118   120    1
   146   122   123    1
   147   114   117    1
   148   114   115    1
   149   114   113    1
   150   112   111    1
   151   106   104    1
   152   115   116    2
   153   109   113   am
   154   109   108    1
   155   124   123    2
   156   111   108    1
   157   105   104    1
   158   108   107    1
   159   104   101    1
   160   103   102    2
   161   101   102    1
   162   101   100    1
