@<TRIPOS>MOLECULE
tmp/2w3cA00.pdb
 93 84 0 0 0
SMALL
GASTEIGER

@<TRIPOS>ATOM
      1  N        -25.3940   -1.4150    9.3780 N.3   243  LEU243     -0.1231
      2  CA       -23.9470   -1.5530    9.5760 C.3   243  LEU243      0.1693
      3  C        -23.0630   -0.8910    8.5080 C.2   243  LEU243      0.2591
      4  O        -21.9640   -0.4100    8.7960 O.2   243  LEU243     -0.2718
      5  CB       -23.5740   -3.0350    9.7290 C.3   243  LEU243      0.0284
      6  CG       -23.8980   -3.6130   11.1060 C.3   243  LEU243      0.0019
      7  CD1      -23.1020   -4.9130   11.3520 C.3   243  LEU243      0.0001
      8  CD2      -23.5960   -2.5350   12.1630 C.3   243  LEU243      0.0001
      9  N        -23.5460   -0.8650    7.2790 N.am  244  MET244     -0.1979
     10  CA       -22.7470   -0.3570    6.1830 C.3   244  MET244      0.1605
     11  C        -23.3100    0.9590    5.6220 C.2   244  MET244      0.2287
     12  O        -22.7890    1.5040    4.6420 O.2   244  MET244     -0.2864
     13  CB       -22.5900   -1.4430    5.1130 C.3   244  MET244      0.0413
     14  CG       -23.9020   -2.0380    4.6250 C.3   244  MET244      0.0598
     15  SD       -23.7450   -3.7510    4.0910 S.3   244  MET244     -0.1393
     16  CE       -25.3370   -4.0010    3.2860 C.3   244  MET244      0.0692
     17  N        -24.0580    2.6800   15.9510 N.3   253  LEU253     -0.1245
     18  CA       -23.2610    1.6960   15.2060 C.3   253  LEU253      0.1561
     19  C        -22.6720    0.6110   16.0990 C.2   253  LEU253      0.2260
     20  O        -22.8220   -0.5770   15.8060 O.2   253  LEU253     -0.2867
     21  CB       -22.1390    2.3880   14.4100 C.3   253  LEU253      0.0270
     22  CG       -21.4450    1.5530   13.3220 C.3   253  LEU253      0.0019
     23  CD1      -22.2420    1.5850   12.0090 C.3   253  LEU253      0.0001
     24  CD2      -19.9850    1.9990   13.1060 C.3   253  LEU253      0.0001
     25  N        -23.9060   -3.5160   16.2820 N.3   257  ILE257     -0.1245
     26  CA       -22.9710   -4.6040   16.0580 C.3   257  ILE257      0.1561
     27  C        -23.1450   -5.6320   17.1750 C.2   257  ILE257      0.2260
     28  O        -23.2320   -6.8280   16.9240 O.2   257  ILE257     -0.2867
     29  CB       -21.4860   -4.1130   16.0250 C.3   257  ILE257      0.0252
     30  CG1      -21.2410   -3.0960   14.9070 C.3   257  ILE257      0.0019
     31  CG2      -20.5410   -5.2820   15.8130 C.3   257  ILE257      0.0019
     32  CD1      -19.9820   -2.2530   15.1160 C.3   257  ILE257      0.0001
     33  N        -24.6450  -13.6940    7.8310 N.3   274  PHE274     -0.1241
     34  CA       -23.7560  -12.5960    8.1960 C.3   274  PHE274      0.1605
     35  C        -22.4670  -12.5580    7.3560 C.2   274  PHE274      0.2264
     36  O        -22.0900  -11.4990    6.8680 O.2   274  PHE274     -0.2867
     37  CB       -23.4330  -12.5670    9.6840 C.3   274  PHE274      0.0534
     38  CG       -22.5550  -11.4190   10.0640 C.ar  274  PHE274     -0.0203
     39  CD1      -23.0750  -10.1260   10.1340 C.ar  274  PHE274     -0.0042
     40  CD2      -21.1990  -11.6200   10.3340 C.ar  274  PHE274     -0.0042
     41  CE1      -22.2500   -9.0450   10.4660 C.ar  274  PHE274     -0.0003
     42  CE2      -20.3690  -10.5500   10.6710 C.ar  274  PHE274     -0.0003
     43  CZ       -20.8970   -9.2580   10.7280 C.ar  274  PHE274     -0.0000
     44  N        -17.9120   -9.1620    5.4160 N.3   286  ALA286     -0.1245
     45  CA       -18.2200   -8.6580    6.7370 C.3   286  ALA286      0.1562
     46  C        -17.1620   -9.0750    7.7650 C.2   286  ALA286      0.2260
     47  O        -16.7410   -8.2640    8.5910 O.2   286  ALA286     -0.2867
     48  CB       -19.6050   -9.1000    7.1540 C.3   286  ALA286      0.0290
     49  N        -14.1850   -6.6200    7.3210 N.3   289  VAL289     -0.1231
     50  CA       -14.4490   -5.3150    7.9390 C.3   289  VAL289      0.1692
     51  C        -14.4610   -5.3300    9.4880 C.2   289  VAL289      0.2591
     52  O        -14.0520   -4.3440   10.1120 O.2   289  VAL289     -0.2718
     53  CB       -15.7150   -4.6250    7.3540 C.3   289  VAL289      0.0266
     54  CG1      -16.9450   -5.4570    7.5900 C.3   289  VAL289      0.0020
     55  CG2      -15.9120   -3.2380    7.9580 C.3   289  VAL289      0.0020
     56  N        -14.9100   -6.4370   10.0930 N.am  290  LEU290     -0.1980
     57  CA       -14.8490   -6.6170   11.5470 C.3   290  LEU290      0.1596
     58  C        -13.4080   -6.6210   12.0150 C.2   290  LEU290      0.2287
     59  O        -13.0090   -5.8410   12.8770 O.2   290  LEU290     -0.2864
     60  CB       -15.4920   -7.9520   11.9810 C.3   290  LEU290      0.0297
     61  CG       -16.9890   -8.2830   11.8750 C.3   290  LEU290      0.0022
     62  CD1      -17.2130   -9.6950   12.3500 C.3   290  LEU290      0.0001
     63  CD2      -17.8790   -7.3080   12.6400 C.3   290  LEU290      0.0001
     64  N        -11.2920   -3.3320   11.7850 N.3   293  SER293     -0.1217
     65  CA       -11.5900   -2.3650   12.8390 C.3   293  SER293      0.1889
     66  C        -10.9920   -2.8320   14.1520 C.2   293  SER293      0.2288
     67  O        -10.4720   -2.0280   14.9210 O.2   293  SER293     -0.2866
     68  CB       -13.0990   -2.1900   13.0060 C.3   293  SER293      0.2089
     69  OG       -13.7060   -1.7570   11.8030 O.3   293  SER293     -0.2183
     70  N         -9.4530    3.4020   15.9260 N.3   299  GLN299     -0.1245
     71  CA       -10.8630    3.1310   16.2450 C.3   299  GLN299      0.1566
     72  C        -11.0610    3.1240   17.7590 C.2   299  GLN299      0.2260
     73  O        -10.1640    2.6920   18.4810 O.2   299  GLN299     -0.2867
     74  CB       -11.3040    1.7880   15.6490 C.3   299  GLN299      0.0367
     75  CG       -11.4910    1.7940   14.1330 C.3   299  GLN299      0.0905
     76  CD       -12.8290    2.3700   13.6960 C.2   299  GLN299      0.2608
     77  OE1      -13.2320    3.4510   14.1230 O.2   299  GLN299     -0.2717
     78  NE2      -13.5250    1.6410   12.8360 N.am  299  GLN299     -0.0878
     79  N        -15.6200    0.2220   20.2070 N.3   303  LEU303     -0.1245
     80  CA       -15.9310   -0.3360   18.8870 C.3   303  LEU303      0.1561
     81  C        -15.1620   -1.6120   18.6070 C.2   303  LEU303      0.2260
     82  O        -15.7120   -2.5590   18.0410 O.2   303  LEU303     -0.2867
     83  CB       -15.6270    0.6940   17.7940 C.3   303  LEU303      0.0270
     84  CG       -16.1100    0.5100   16.3430 C.3   303  LEU303      0.0019
     85  CD1      -15.1900   -0.3790   15.5230 C.3   303  LEU303      0.0001
     86  CD2      -17.5330    0.0180   16.2760 C.3   303  LEU303      0.0001
     87  N        -16.6460   -5.4230   17.6800 N.3   307  VAL307     -0.1245
     88  CA       -16.3190   -6.1920   16.4740 C.3   307  VAL307      0.1561
     89  C        -15.6610   -7.5030   16.8560 C.2   307  VAL307      0.2260
     90  O        -15.8500   -8.4980   16.1690 O.2   307  VAL307     -0.2867
     91  CB       -15.4430   -5.4180   15.4670 C.3   307  VAL307      0.0252
     92  CG1      -16.1940   -4.2360   14.8930 C.3   307  VAL307      0.0019
     93  CG2      -14.1490   -4.9650   16.1060 C.3   307  VAL307      0.0019
@<TRIPOS>BOND
     1    16    15    1
     2    15    14    1
     3    14    13    1
     4    12    11    2
     5    13    10    1
     6    44    45    1
     7    11    10    1
     8    10     9    1
     9    45    48    1
    10    45    46    1
    11    36    35    2
    12     9     3   am
    13    49    50    1
    14    53    54    1
    15    53    50    1
    16    53    55    1
    17    35    34    1
    18    46    47    2
    19    33    34    1
    20    50    51    1
    21    34    37    1
    22     3     4    2
    23     3     2    1
    24     1     2    1
    25    51    56   am
    26    51    52    2
    27     2     5    1
    28    37    38    1
    29     5     6    1
    30    38    39   ar
    31    38    40   ar
    32    56    57    1
    33    39    41   ar
    34    40    42   ar
    35    41    43   ar
    36    42    43   ar
    37     6     7    1
    38     6     8    1
    39    57    60    1
    40    57    58    1
    41    64    65    1
    42    69    68    1
    43    61    60    1
    44    61    62    1
    45    61    63    1
    46    23    22    1
    47    58    59    2
    48    78    76   am
    49    65    68    1
    50    65    66    1
    51    24    22    1
    52    22    21    1
    53    76    77    2
    54    76    75    1
    55    75    74    1
    56    66    67    2
    57    21    18    1
    58    92    91    1
    59    30    32    1
    60    30    29    1
    61    18    17    1
    62    18    19    1
    63    91    93    1
    64    91    88    1
    65    85    84    1
    66    74    71    1
    67    20    19    2
    68    31    29    1
    69    70    71    1
    70    29    26    1
    71    26    25    1
    72    26    27    1
    73    90    89    2
    74    71    72    1
    75    86    84    1
    76    84    83    1
    77    88    89    1
    78    88    87    1
    79    28    27    2
    80    72    73    2
    81    83    80    1
    82    82    81    2
    83    81    80    1
    84    80    79    1
