@<TRIPOS>MOLECULE
tmp/2w3iA00.pdb
 214 210 0 0 0
SMALL
GASTEIGER

@<TRIPOS>ATOM
      1  N         13.5260   11.2740   13.7640 N.3    42  HIS42      -0.1241
      2  CA        12.0550   11.2620   13.8220 C.3    42  HIS42       0.1621
      3  C         11.4510   12.6080   14.2650 C.2    42  HIS42       0.2264
      4  O         10.2750   12.8810   13.9990 O.2    42  HIS42      -0.2867
      5  CB        11.5390   10.1110   14.7080 C.3    42  HIS42       0.0745
      6  CG        11.4860   10.4350   16.1670 C.ar   42  HIS42       0.0817
      7  ND1       12.4990   10.0970   17.0380 N.ar   42  HIS42      -0.2268
      8  CD2       10.5400   11.0540   16.9130 C.ar   42  HIS42       0.1154
      9  CE1       12.1880   10.5110   18.2520 C.ar   42  HIS42       0.1986
     10  NE2       11.0010   11.0890   18.2070 N.ar   42  HIS42      -0.2212
     11  N         10.3230    5.1510   10.0960 N.3    82  LYS82      -0.1231
     12  CA         9.2660    5.0350   11.1080 C.3    82  LYS82       0.1693
     13  C          8.8950    3.5780   11.4360 C.2    82  LYS82       0.2592
     14  O          8.3680    3.2970   12.5180 O.2    82  LYS82      -0.2718
     15  CB         8.0040    5.7720   10.6370 C.3    82  LYS82       0.0285
     16  CG         8.0980    7.2890   10.6780 C.3    82  LYS82       0.0035
     17  CD         6.8450    7.9300   10.0790 C.3    82  LYS82       0.0206
     18  CE         6.9770    9.4480    9.9900 C.3    82  LYS82       0.1093
     19  NZ         5.7440   10.0970    9.4540 N.3    82  LYS82      -0.1314
     20  N          9.1560    2.6650   10.5010 N.am   83  GLU83      -0.1966
     21  CA         8.8020    1.2550   10.6740 C.3    83  GLU83       0.1733
     22  C          9.5500    0.6180   11.8390 C.2    83  GLU83       0.2617
     23  O          8.9750   -0.1500   12.6100 O.2    83  GLU83      -0.2715
     24  CB         9.0990    0.4470    9.4020 C.3    83  GLU83       0.0429
     25  CG         8.7210    1.1150    8.0730 C.3    83  GLU83       0.1163
     26  CD         7.3620    1.7890    8.1020 C.2    83  GLU83       0.3649
     27  OE1        6.3640    1.1090    8.4350 O.co2  83  GLU83      -0.2457
     28  OE2        7.2980    3.0030    7.7870 O.co2  83  GLU83      -0.2457
     29  N         10.8400    0.9250   11.9410 N.am   84  THR84      -0.1937
     30  CA        11.7210    0.2980   12.9250 C.3    84  THR84       0.2028
     31  C         12.2030    1.2610   14.0080 C.2    84  THR84       0.2642
     32  O         12.5570    0.8310   15.1130 O.2    84  THR84      -0.2714
     33  CB        12.9580   -0.2820   12.2180 C.3    84  THR84       0.1808
     34  OG1       13.5840    0.7450   11.4390 O.3    84  THR84      -0.2208
     35  CG2       12.5560   -1.4320   11.2920 C.3    84  THR84       0.0379
     36  N         12.1990    2.5560   13.6970 N.am   85  TYR85      -0.1973
     37  CA        12.8780    3.5790   14.5140 C.3    85  TYR85       0.1639
     38  C         14.3810    3.3060   14.6770 C.2    85  TYR85       0.2290
     39  O         15.0190    3.7880   15.6160 O.2    85  TYR85      -0.2864
     40  CB        12.1900    3.7630   15.8750 C.3    85  TYR85       0.0560
     41  CG        11.1690    4.8720   15.8750 C.ar   85  TYR85      -0.0198
     42  CD1       10.0770    4.8290   15.0130 C.ar   85  TYR85      -0.0009
     43  CD2       11.2950    5.9670   16.7290 C.ar   85  TYR85      -0.0009
     44  CE1        9.1350    5.8430   15.0010 C.ar   85  TYR85       0.0417
     45  CE2       10.3550    6.9910   16.7250 C.ar   85  TYR85       0.0417
     46  CZ         9.2780    6.9210   15.8570 C.ar   85  TYR85       0.1957
     47  OH         8.3320    7.9230   15.8440 O.3    85  TYR85      -0.2866
     48  N          6.9220   15.9120   28.5330 N.3   132  ARG132     -0.1245
     49  CA         5.8650   15.7100   29.5250 C.3   132  ARG132      0.1563
     50  C          6.3960   15.1730   30.8540 C.2   132  ARG132      0.2260
     51  O          7.3090   14.3460   30.8810 O.2   132  ARG132     -0.2867
     52  CB         4.8080   14.7430   28.9920 C.3   132  ARG132      0.0307
     53  CG         4.1120   15.2000   27.7390 C.3   132  ARG132      0.0489
     54  CD         3.1960   14.1120   27.2080 C.3   132  ARG132      0.2205
     55  NE         2.7650   14.4190   25.8470 N.pl3 132  ARG132     -0.0865
     56  CZ         1.7020   13.8930   25.2460 C.cat 132  ARG132      0.5346
     57  NH1        0.9230   13.0120   25.8630 N.pl3 132  ARG132      0.1354
     58  NH2        1.4160   14.2580   24.0050 N.pl3 132  ARG132      0.1354
     59  N          2.5990   10.3170   31.4280 N.3   135  GLU135     -0.1231
     60  CA         2.3240    9.8710   30.0730 C.3   135  GLU135      0.1699
     61  C          1.3280   10.7990   29.3600 C.2   135  GLU135      0.2592
     62  O          1.5820   11.2420   28.2400 O.2   135  GLU135     -0.2718
     63  CB         1.7890    8.4520   30.1390 C.3   135  GLU135      0.0402
     64  CG         1.9410    7.6620   28.8920 C.3   135  GLU135      0.1161
     65  CD         1.6730    6.2110   29.1520 C.2   135  GLU135      0.3649
     66  OE1        2.4770    5.5900   29.8740 O.co2 135  GLU135     -0.2457
     67  OE2        0.6450    5.7030   28.6680 O.co2 135  GLU135     -0.2457
     68  N          0.2200   11.1160   30.0300 N.am  136  LYS136     -0.1980
     69  CA        -0.8930   11.8590   29.4170 C.3   136  LYS136      0.1596
     70  C         -0.8630   13.3800   29.6300 C.2   136  LYS136      0.2287
     71  O         -1.8460   14.0650   29.3170 O.2   136  LYS136     -0.2864
     72  CB        -2.2260   11.3310   29.9560 C.3   136  LYS136      0.0298
     73  CG        -2.5790    9.9240   29.5350 C.3   136  LYS136      0.0038
     74  CD        -3.9780    9.5900   30.0150 C.3   136  LYS136      0.0206
     75  CE        -4.4280    8.1970   29.6150 C.3   136  LYS136      0.1093
     76  NZ        -5.7600    7.8900   30.2150 N.3   136  LYS136     -0.1314
     77  N          8.8200   -4.1680   20.6030 N.3   162  PHE162     -0.1227
     78  CA         9.4520   -3.8860   19.3190 C.3   162  PHE162      0.1736
     79  C         10.9070   -4.3260   19.3530 C.2   162  PHE162      0.2595
     80  O         11.5170   -4.4040   20.4230 O.2   162  PHE162     -0.2718
     81  CB         9.3980   -2.3880   19.0160 C.3   162  PHE162      0.0547
     82  CG         8.0150   -1.8070   19.0670 C.ar  162  PHE162     -0.0202
     83  CD1        7.2440   -1.7170   17.9170 C.ar  162  PHE162     -0.0042
     84  CD2        7.4850   -1.3480   20.2690 C.ar  162  PHE162     -0.0042
     85  CE1        5.9620   -1.1800   17.9630 C.ar  162  PHE162     -0.0003
     86  CE2        6.2080   -0.8120   20.3200 C.ar  162  PHE162     -0.0003
     87  CZ         5.4480   -0.7240   19.1640 C.ar  162  PHE162     -0.0000
     88  N         11.4610   -4.5890   18.1760 N.am  163  ILE163     -0.1980
     89  CA        12.8430   -5.0320   18.0600 C.3   163  ILE163      0.1595
     90  C         13.8010   -3.9340   18.5140 C.2   163  ILE163      0.2287
     91  O         13.7410   -2.8030   18.0170 O.2   163  ILE163     -0.2864
     92  CB        13.2090   -5.4150   16.6010 C.3   163  ILE163      0.0276
     93  CG1       12.4160   -6.6430   16.1360 C.3   163  ILE163      0.0022
     94  CG2       14.7150   -5.6660   16.4740 C.3   163  ILE163      0.0022
     95  CD1       12.8640   -7.9480   16.7600 C.3   163  ILE163      0.0001
     96  N         11.3050    8.4190   34.1130 N.3   179  ASP179     -0.1225
     97  CA        11.5960    8.1150   32.7230 C.3   179  ASP179      0.1805
     98  C         11.6430    9.4240   31.9590 C.2   179  ASP179      0.2598
     99  O         11.2100   10.4610   32.4600 O.2   179  ASP179     -0.2718
    100  CB        10.4750    7.2290   32.1570 C.3   179  ASP179      0.1424
    101  CG        10.8670    6.4740   30.8870 C.2   179  ASP179      0.3668
    102  OD1       12.0290    6.5650   30.4240 O.co2 179  ASP179     -0.2456
    103  OD2        9.9830    5.7580   30.3560 O.co2 179  ASP179     -0.2456
    104  N         12.1760    9.3780   30.7450 N.am  180  ALA180     -0.1966
    105  CA        11.9450   10.4310   29.7750 C.3   180  ALA180      0.1728
    106  C         10.5380   10.2050   29.2250 C.2   180  ALA180      0.2616
    107  O          9.8620    9.2430   29.6040 O.2   180  ALA180     -0.2715
    108  CB        12.9680   10.3760   28.6820 C.3   180  ALA180      0.0334
    109  N         10.0890   11.0930   28.3520 N.am  181  CYS181     -0.1954
    110  CA         8.7440   10.9900   27.7970 C.3   181  CYS181      0.1843
    111  C          8.6430   11.7900   26.5110 C.2   181  CYS181      0.2625
    112  O          9.6090   12.4270   26.1050 O.2   181  CYS181     -0.2714
    113  CB         7.7260   11.5010   28.8250 C.3   181  CYS181      0.0997
    114  SG         6.0100   11.0100   28.5320 S.3   181  CYS181     -0.0797
    115  N          7.4780   11.7570   25.8730 N.am  182  GLN182     -0.1977
    116  CA         7.2380   12.5410   24.6560 C.3   182  GLN182      0.1601
    117  C          7.5650   14.0200   24.8690 C.2   182  GLN182      0.2287
    118  O          7.2240   14.6020   25.9040 O.2   182  GLN182     -0.2864
    119  CB         5.7830   12.3900   24.2120 C.3   182  GLN182      0.0394
    120  CG         5.4090   13.2270   22.9980 C.3   182  GLN182      0.0908
    121  CD         4.3930   12.5400   22.1300 C.2   182  GLN182      0.2608
    122  OE1        4.6400   11.4450   21.6290 O.2   182  GLN182     -0.2717
    123  NE2        3.2390   13.1750   21.9390 N.am  182  GLN182     -0.0878
    124  N         12.1740   13.6000   23.3020 N.3   185  SER185     -0.1217
    125  CA        12.8360   12.9880   22.1450 C.3   185  SER185      0.1889
    126  C         13.7680   13.9600   21.4240 C.2   185  SER185      0.2288
    127  O         13.4540   15.1450   21.2740 O.2   185  SER185     -0.2866
    128  CB        11.8120   12.4560   21.1430 C.3   185  SER185      0.2089
    129  OG        10.8450   11.6480   21.7780 O.3   185  SER185     -0.2183
    130  N         17.5810   10.7350   23.1130 N.3   203  VAL203     -0.1231
    131  CA        16.2600   10.2500   23.5270 C.3   203  VAL203      0.1692
    132  C         15.5020    9.8570   22.2600 C.2   203  VAL203      0.2593
    133  O         15.3740   10.6610   21.3250 O.2   203  VAL203     -0.2718
    134  CB        15.4930   11.3090   24.3640 C.3   203  VAL203      0.0266
    135  CG1       14.1630   10.7510   24.8960 C.3   203  VAL203      0.0020
    136  CG2       16.3490   11.7790   25.5060 C.3   203  VAL203      0.0020
    137  N         15.0300    8.6150   22.1990 N.am  204  SER204     -0.1938
    138  CA        14.4320    8.1090   20.9720 C.3   204  SER204      0.2055
    139  C         12.9500    7.7530   21.1010 C.2   204  SER204      0.2643
    140  O         12.1070    8.4250   20.5230 O.2   204  SER204     -0.2714
    141  CB        15.2360    6.9320   20.4360 C.3   204  SER204      0.2130
    142  OG        14.7800    6.5780   19.1550 O.3   204  SER204     -0.2179
    143  N         12.6330    6.6990   21.8450 N.am  205  TRP205     -0.1959
    144  CA        11.2410    6.2580   21.9630 C.3   205  TRP205      0.1771
    145  C         11.0230    5.3970   23.2000 C.2   205  TRP205      0.2620
    146  O         11.9660    4.9850   23.8500 O.2   205  TRP205     -0.2715
    147  CB        10.8120    5.4950   20.7120 C.3   205  TRP205      0.0590
    148  CG        11.5850    4.2440   20.4510 C.ar  205  TRP205      0.0006
    149  CD1       12.7320    4.1250   19.7200 C.ar  205  TRP205      0.0946
    150  CD2       11.2530    2.9200   20.8930 C.ar  205  TRP205      0.0152
    151  NE1       13.1480    2.8140   19.6950 N.ar  205  TRP205     -0.2442
    152  CE2       12.2570    2.0520   20.4040 C.ar  205  TRP205      0.0810
    153  CE3       10.2100    2.3830   21.6670 C.ar  205  TRP205      0.0012
    154  CZ2       12.2420    0.6710   20.6500 C.ar  205  TRP205      0.0191
    155  CZ3       10.1970    1.0100   21.9090 C.ar  205  TRP205      0.0001
    156  CH2       11.2070    0.1730   21.4030 C.ar  205  TRP205      0.0015
    157  N          9.7600    5.1450   23.5130 N.am  206  GLY206     -0.1940
    158  CA         9.3970    4.2600   24.6010 C.3   206  GLY206      0.2014
    159  C          7.9300    3.9110   24.4850 C.2   206  GLY206      0.2638
    160  O          7.1880    4.5920   23.7750 O.2   206  GLY206     -0.2714
    161  N          7.5310    2.8420   25.1750 N.am  207  GLU207     -0.1977
    162  CA         6.1490    2.3420   25.1460 C.3   207  GLU207      0.1602
    163  C          5.3660    2.8660   26.3380 C.2   207  GLU207      0.2287
    164  O          5.7220    2.6410   27.4930 O.2   207  GLU207     -0.2864
    165  CB         6.1200    0.8230   25.1870 C.3   207  GLU207      0.0415
    166  CG         6.6850    0.1370   23.9760 C.3   207  GLU207      0.1163
    167  CD         6.5920   -1.3730   24.0950 C.2   207  GLU207      0.3649
    168  OE1        5.4660   -1.8880   24.2370 O.co2 207  GLU207     -0.2457
    169  OE2        7.6430   -2.0490   24.0590 O.co2 207  GLU207     -0.2457
    170  N          4.5100    4.5440   25.7780 N.3   208  GLY208     -0.1210
    171  CA         4.2180    5.3410   26.9600 C.3   208  GLY208      0.1956
    172  C          5.4690    5.8130   27.6690 C.2   208  GLY208      0.2612
    173  O          6.5600    5.8460   27.0880 O.2   208  GLY208     -0.2717
    174  N          5.3000    6.1740   28.9360 N.am  209  CYS209     -0.1970
    175  CA         6.3750    6.7530   29.7200 C.3   209  CYS209      0.1712
    176  C          6.2880    6.2290   31.1290 C.2   209  CYS209      0.2296
    177  O          5.2090    6.2340   31.7260 O.2   209  CYS209     -0.2864
    178  CB         6.2700    8.2800   29.7480 C.3   209  CYS209      0.0983
    179  SG         6.1030    9.0450   28.1390 S.3   209  CYS209     -0.0798
    180  N          6.3380    3.3000   32.3320 N.3   211  ARG211     -0.1245
    181  CA         5.4810    2.1280   32.5200 C.3   211  ARG211      0.1563
    182  C          6.2190    0.9960   33.2260 C.2   211  ARG211      0.2260
    183  O          7.4260    0.8250   33.0600 O.2   211  ARG211     -0.2867
    184  CB         4.9340    1.6240   31.1860 C.3   211  ARG211      0.0307
    185  CG         3.8960    2.5240   30.5780 C.3   211  ARG211      0.0489
    186  CD         3.2030    1.8360   29.4250 C.3   211  ARG211      0.2205
    187  NE         2.2670    2.7240   28.7430 N.pl3 211  ARG211     -0.0865
    188  CZ         1.7260    2.4690   27.5530 C.cat 211  ARG211      0.5346
    189  NH1        2.0130    1.3450   26.9030 N.pl3 211  ARG211      0.1354
    190  NH2        0.8860    3.3400   27.0050 N.pl3 211  ARG211      0.1354
    191  N         13.1410    3.2250   28.8810 N.3   216  GLY216     -0.1210
    192  CA        13.3640    4.2610   27.8860 C.3   216  GLY216      0.1956
    193  C         14.3710    3.7620   26.8670 C.2   216  GLY216      0.2612
    194  O         15.3450    3.0920   27.2320 O.2   216  GLY216     -0.2717
    195  N         14.1370    4.0890   25.5950 N.am  217  ILE217     -0.1965
    196  CA        14.9880    3.6520   24.4960 C.3   217  ILE217      0.1727
    197  C         15.7160    4.8400   23.8600 C.2   217  ILE217      0.2616
    198  O         15.0980    5.8490   23.5110 O.2   217  ILE217     -0.2715
    199  CB        14.1920    2.9140   23.3830 C.3   217  ILE217      0.0290
    200  CG1       13.2210    1.8890   23.9900 C.3   217  ILE217      0.0022
    201  CG2       15.1570    2.2520   22.4000 C.3   217  ILE217      0.0023
    202  CD1       13.8860    0.7770   24.7700 C.3   217  ILE217      0.0001
    203  N         17.0310    4.6920   23.7130 N.am  218  TYR218     -0.1974
    204  CA        17.9190    5.7620   23.2540 C.3   218  TYR218      0.1639
    205  C         18.7330    5.3210   22.0570 C.2   218  TYR218      0.2290
    206  O         19.1750    4.1950   22.0170 O.2   218  TYR218     -0.2864
    207  CB        18.8920    6.1070   24.3700 C.3   218  TYR218      0.0560
    208  CG        18.1960    6.6330   25.6040 C.ar  218  TYR218     -0.0198
    209  CD1       17.5720    5.7720   26.5070 C.ar  218  TYR218     -0.0009
    210  CD2       18.1460    7.9920   25.8560 C.ar  218  TYR218     -0.0009
    211  CE1       16.9200    6.2730   27.6320 C.ar  218  TYR218      0.0417
    212  CE2       17.5110    8.4970   26.9650 C.ar  218  TYR218      0.0417
    213  CZ        16.8900    7.6270   27.8530 C.ar  218  TYR218      0.1957
    214  OH        16.2460    8.1320   28.9550 O.3   218  TYR218     -0.2866
@<TRIPOS>BOND
     1    28    26   ar
     2    25    26    1
     3    25    24    1
     4    26    27   ar
     5    24    21    1
     6    19    18    1
     7    18    17    1
     8    17    16    1
     9    11    12    1
    10    20    21    1
    11    20    13   am
    12    15    16    1
    13    15    12    1
    14    21    22    1
    15    12    13    1
    16    35    33    1
    17    13    14    2
    18    34    33    1
    19    22    29   am
    20    22    23    2
    21    29    30    1
    22    33    30    1
    23    30    31    1
    24    36    31   am
    25    36    37    1
    26     1     2    1
    27     2     3    1
    28     2     5    1
    29     4     3    2
    30    31    32    2
    31    37    38    1
    32    37    40    1
    33    38    39    2
    34     5     6    1
    35    44    42   ar
    36    44    46   ar
    37    42    41   ar
    38    47    46    1
    39    46    45   ar
    40    40    41    1
    41    41    43   ar
    42    93    92    1
    43    93    95    1
    44     6     8   ar
    45     6     7   ar
    46    94    92    1
    47    92    89    1
    48    45    43   ar
    49     8    10   ar
    50     7     9   ar
    51    83    85   ar
    52    83    82   ar
    53    85    87   ar
    54    91    90    2
    55    89    88    1
    56    89    90    1
    57    88    79   am
    58    10     9   ar
    59    81    82    1
    60    81    78    1
    61    82    84   ar
    62   142   141    1
    63    87    86   ar
    64    78    79    1
    65    78    77    1
    66    79    80    2
    67   151   149   ar
    68   151   152   ar
    69   149   148   ar
    70    84    86   ar
    71   152   154   ar
    72   152   150   ar
    73   141   138    1
    74   148   147    1
    75   148   150   ar
    76   140   139    2
    77   154   156   ar
    78   147   144    1
    79   150   153   ar
    80   138   139    1
    81   138   137    1
    82   139   143   am
    83   128   129    1
    84   128   125    1
    85   127   126    2
    86   133   132    2
    87   156   155   ar
    88   126   125    1
    89   122   121    2
    90   153   155   ar
    91   143   144    1
    92   123   121   am
    93   144   145    1
    94   206   205    2
    95   205   204    1
    96   121   120    1
    97   125   124    1
    98   137   132   am
    99   132   131    1
   100   201   199    1
   101   120   119    1
   102   130   131    1
   103   145   157   am
   104   145   146    2
   105   204   203    1
   106   204   207    1
   107   199   200    1
   108   199   196    1
   109   198   197    2
   110   157   158    1
   111   131   134    1
   112   203   197   am
   113   160   159    2
   114   197   196    1
   115   166   167    1
   116   166   165    1
   117   200   202    1
   118    58    56    1
   119   169   167   ar
   120   167   168   ar
   121   119   116    1
   122   134   135    1
   123   134   136    1
   124   207   208    1
   125   159   158    1
   126   159   161   am
   127   196   195    1
   128   116   117    1
   129   116   115    1
   130   117   118    2
   131   162   161    1
   132   162   165    1
   133   162   163    1
   134    56    55    2
   135    56    57    1
   136   195   193   am
   137   208   210   ar
   138   208   209   ar
   139   170   171    1
   140    55    54    1
   141   210   212   ar
   142   115   111   am
   143   112   111    2
   144   163   164    2
   145   209   211   ar
   146   111   110    1
   147   193   194    2
   148   193   192    1
   149   189   188    1
   150   171   172    1
   151   212   213   ar
   152   190   188    1
   153   173   172    2
   154    54    53    1
   155   188   187    2
   156   211   213   ar
   157   172   174   am
   158    53    52    1
   159   110   109    1
   160   110   113    1
   161   213   214    1
   162   192   191    1
   163   179   114    1
   164   179   178    1
   165    62    61    2
   166   109   106   am
   167   114   113    1
   168    48    49    1
   169    67    65   ar
   170   108   105    1
   171   187   186    1
   172    64    65    1
   173    64    63    1
   174   174   175    1
   175    52    49    1
   176    65    66   ar
   177   106   107    2
   178   106   105    1
   179    71    70    2
   180    61    68   am
   181    61    60    1
   182    69    70    1
   183    69    72    1
   184    69    68    1
   185   186   185    1
   186    49    50    1
   187    73    72    1
   188    73    74    1
   189    75    74    1
   190    75    76    1
   191   175   178    1
   192   175   176    1
   193   105   104    1
   194    60    63    1
   195    60    59    1
   196   103   101   ar
   197   102   101   ar
   198   185   184    1
   199   104    98   am
   200    50    51    2
   201   101   100    1
   202   176   177    2
   203   184   181    1
   204    98    99    2
   205    98    97    1
   206   100    97    1
   207   180   181    1
   208   181   182    1
   209    97    96    1
   210   183   182    2
