@<TRIPOS>MOLECULE
tmp/2w3lA00.pdb
 135 128 0 0 0
SMALL
GASTEIGER

@<TRIPOS>ATOM
      1  N         37.4200   37.8250   -9.0140 N.3    39  PHE39      -0.1241
      2  CA        37.5520   36.4490   -9.4470 C.3    39  PHE39       0.1605
      3  C         36.7620   35.4750   -8.5710 C.2    39  PHE39       0.2264
      4  O         36.0080   34.6730   -9.1140 O.2    39  PHE39      -0.2867
      5  CB        39.0340   36.0080   -9.5330 C.3    39  PHE39       0.0534
      6  CG        39.2400   34.6900  -10.2440 C.ar   39  PHE39      -0.0203
      7  CD1       39.3020   34.6460  -11.6190 C.ar   39  PHE39      -0.0042
      8  CD2       39.4310   33.5050   -9.5310 C.ar   39  PHE39      -0.0042
      9  CE1       39.5130   33.4480  -12.2690 C.ar   39  PHE39      -0.0003
     10  CE2       39.6510   32.2870  -10.1800 C.ar   39  PHE39      -0.0003
     11  CZ        39.6900   32.2590  -11.5320 C.ar   39  PHE39      -0.0000
     12  N         33.0810   35.8550   -9.2350 N.3    42  ARG42      -0.1231
     13  CA        32.6840   35.3430  -10.5570 C.3    42  ARG42       0.1694
     14  C         32.5160   33.8110  -10.5570 C.2    42  ARG42       0.2592
     15  O         31.5970   33.2870  -11.2050 O.2    42  ARG42      -0.2718
     16  CB        33.6630   35.8500  -11.6280 C.3    42  ARG42       0.0321
     17  CG        33.7330   35.0850  -12.9700 C.3    42  ARG42       0.0489
     18  CD        32.5300   35.3040  -13.8830 C.3    42  ARG42       0.2205
     19  NE        32.4400   34.2710  -14.9360 N.pl3  42  ARG42      -0.0865
     20  CZ        31.8000   33.1030  -14.8040 C.cat  42  ARG42       0.5346
     21  NH1       31.1760   32.7940  -13.6690 N.pl3  42  ARG42       0.1354
     22  NH2       31.7820   32.2260  -15.8040 N.pl3  42  ARG42       0.1354
     23  N         33.3580   33.1200   -9.7680 N.am   43  TYR43      -0.1976
     24  CA        33.3370   31.6520   -9.6280 C.3    43  TYR43       0.1639
     25  C         32.9560   31.2130   -8.1980 C.2    43  TYR43       0.2290
     26  O         33.5050   30.2640   -7.6760 O.2    43  TYR43      -0.2864
     27  CB        34.6910   31.0670  -10.0330 C.3    43  TYR43       0.0560
     28  CG        35.0440   31.3690  -11.4730 C.ar   43  TYR43      -0.0198
     29  CD1       34.3590   30.7340  -12.5260 C.ar   43  TYR43      -0.0009
     30  CD2       36.0180   32.3050  -11.7830 C.ar   43  TYR43      -0.0009
     31  CE1       34.6430   31.0190  -13.8610 C.ar   43  TYR43       0.0417
     32  CE2       36.3140   32.6030  -13.1230 C.ar   43  TYR43       0.0417
     33  CZ        35.6160   31.9550  -14.1500 C.ar   43  TYR43       0.1957
     34  OH        35.9030   32.2450  -15.4710 O.3    43  TYR43      -0.2866
     35  N         31.7640   27.5200   -7.8010 N.3    46  ASP46      -0.1225
     36  CA        32.8830   26.6470   -8.1300 C.3    46  ASP46       0.1805
     37  C         33.9520   26.6730   -7.0370 C.2    46  ASP46       0.2597
     38  O         34.5470   25.6400   -6.7640 O.2    46  ASP46      -0.2718
     39  CB        33.4710   26.9890   -9.4950 C.3    46  ASP46       0.1424
     40  CG        32.4640   26.8210  -10.6330 C.2    46  ASP46       0.3668
     41  OD1       31.5210   26.0020  -10.5190 O.co2  46  ASP46      -0.2456
     42  OD2       32.6210   27.5100  -11.6530 O.co2  46  ASP46      -0.2456
     43  N         34.1760   27.8310   -6.4010 N.am   47  PHE47      -0.1976
     44  CA        35.1410   27.9090   -5.2780 C.3    47  PHE47       0.1639
     45  C         34.6230   27.1200   -4.0950 C.2    47  PHE47       0.2290
     46  O         35.3810   26.4010   -3.4440 O.2    47  PHE47      -0.2864
     47  CB        35.5030   29.3530   -4.8800 C.3    47  PHE47       0.0560
     48  CG        36.7460   29.8670   -5.5730 C.ar   47  PHE47      -0.0200
     49  CD1       37.9870   29.3070   -5.3030 C.ar   47  PHE47      -0.0042
     50  CD2       36.6740   30.8810   -6.4910 C.ar   47  PHE47      -0.0042
     51  CE1       39.1380   29.7340   -5.9510 C.ar   47  PHE47      -0.0003
     52  CE2       37.8310   31.3230   -7.1520 C.ar   47  PHE47      -0.0003
     53  CZ        39.0620   30.7480   -6.8640 C.ar   47  PHE47      -0.0000
     54  N         35.1840   23.4190   -4.9290 N.3    50  MET50      -0.1245
     55  CA        36.5960   23.0520   -4.8230 C.3    50  MET50       0.1570
     56  C         37.0720   22.8800   -3.3590 C.2    50  MET50       0.2261
     57  O         37.8390   21.9570   -3.0600 O.2    50  MET50      -0.2867
     58  CB        37.4680   24.0780   -5.5660 C.3    50  MET50       0.0387
     59  CG        38.9850   23.8840   -5.3840 C.3    50  MET50       0.0595
     60  SD        39.9180   25.4320   -5.4370 S.3    50  MET50      -0.1393
     61  CE        39.7550   25.8370   -7.1500 C.3    50  MET50       0.0692
     62  N         38.7980   19.4740   -1.3720 N.3    54  LEU54      -0.1245
     63  CA        40.2340   19.7600   -1.4820 C.3    54  LEU54       0.1561
     64  C         41.1640   18.6970   -0.8510 C.2    54  LEU54       0.2260
     65  O         42.3500   18.5800   -1.2210 O.2    54  LEU54      -0.2867
     66  CB        40.5400   21.1490   -0.9210 C.3    54  LEU54       0.0270
     67  CG        41.7810   21.8600   -1.4500 C.3    54  LEU54       0.0019
     68  CD1       41.5030   22.5340   -2.7910 C.3    54  LEU54       0.0001
     69  CD2       42.2550   22.9010   -0.4460 C.3    54  LEU54       0.0001
     70  N         49.2560   18.8720   -4.6020 N.3    64  ARG64      -0.1245
     71  CA        48.0400   19.5660   -5.0570 C.3    64  ARG64       0.1563
     72  C         48.4360   20.8700   -5.7590 C.2    64  ARG64       0.2260
     73  O         47.9210   21.1800   -6.8270 O.2    64  ARG64      -0.2867
     74  CB        47.0810   19.8590   -3.8870 C.3    64  ARG64       0.0307
     75  CG        45.7380   20.4750   -4.2890 C.3    64  ARG64       0.0489
     76  CD        44.6450   19.4260   -4.5850 C.3    64  ARG64       0.2205
     77  NE        45.1000   18.4760   -5.5950 N.pl3  64  ARG64      -0.0865
     78  CZ        44.6240   18.4050   -6.8440 C.cat  64  ARG64       0.5346
     79  NH1       43.6180   19.1930   -7.2330 N.pl3  64  ARG64       0.1354
     80  NH2       45.1380   17.5340   -7.6970 N.pl3  64  ARG64       0.1354
     81  N         47.8040   21.4740   -9.8210 N.3    68  VAL68      -0.1245
     82  CA        46.9260   22.5730  -10.1830 C.3    68  VAL68       0.1561
     83  C         47.6640   23.6920  -10.9880 C.2    68  VAL68       0.2260
     84  O         47.1870   24.1390  -12.0240 O.2    68  VAL68      -0.2867
     85  CB        46.1720   23.1470   -8.9550 C.3    68  VAL68       0.0252
     86  CG1       45.3800   24.4210   -9.3550 C.3    68  VAL68       0.0019
     87  CG2       45.2520   22.0960   -8.4160 C.3    68  VAL68       0.0019
     88  N         48.3700   22.5940  -14.5150 N.3    71  GLU71      -0.1231
     89  CA        47.1280   22.6240  -15.3290 C.3    71  GLU71       0.1699
     90  C         46.7020   24.0310  -15.7220 C.2    71  GLU71       0.2592
     91  O         46.3140   24.2830  -16.8720 O.2    71  GLU71      -0.2718
     92  CB        45.9040   22.0020  -14.6500 C.3    71  GLU71       0.0402
     93  CG        46.0310   20.6150  -14.0500 C.3    71  GLU71       0.1161
     94  CD        44.8570   20.2710  -13.1020 C.2    71  GLU71       0.3649
     95  OE1       44.3740   21.1450  -12.3230 O.co2  71  GLU71      -0.2457
     96  OE2       44.3890   19.1040  -13.1480 O.co2  71  GLU71      -0.2457
     97  N         46.7200   24.9250  -14.7380 N.am   72  LEU72      -0.1980
     98  CA        46.3560   26.3210  -14.9150 C.3    72  LEU72       0.1596
     99  C         47.0750   27.0220  -16.0690 C.2    72  LEU72       0.2287
    100  O         46.4350   27.7570  -16.8380 O.2    72  LEU72      -0.2864
    101  CB        46.6120   27.0840  -13.6040 C.3    72  LEU72       0.0297
    102  CG        46.3990   28.5870  -13.5950 C.3    72  LEU72       0.0022
    103  CD1       44.9780   28.9050  -14.0560 C.3    72  LEU72       0.0001
    104  CD2       46.6440   29.0660  -12.1680 C.3    72  LEU72       0.0001
    105  N         44.5020   36.9740  -16.4850 N.3    80  GLY80      -0.1210
    106  CA        43.3860   36.3090  -15.7710 C.3    80  GLY80       0.1956
    107  C         43.7870   35.0270  -15.0400 C.2    80  GLY80       0.2611
    108  O         43.2410   34.7090  -13.9820 O.2    80  GLY80      -0.2717
    109  N         44.7130   34.2890  -15.6260 N.am   81  ARG81      -0.1979
    110  CA        45.2430   33.0590  -15.0920 C.3    81  ARG81       0.1597
    111  C         46.2680   33.2940  -13.9770 C.2    81  ARG81       0.2287
    112  O         46.3950   32.4600  -13.0820 O.2    81  ARG81      -0.2864
    113  CB        45.8690   32.2290  -16.2120 C.3    81  ARG81       0.0334
    114  CG        44.8410   31.6380  -17.1740 C.3    81  ARG81       0.0492
    115  CD        45.4920   30.7120  -18.2370 C.3    81  ARG81       0.2205
    116  NE        44.4800   30.3980  -19.2420 N.pl3  81  ARG81      -0.0865
    117  CZ        44.6970   30.1760  -20.5360 C.cat  81  ARG81       0.5346
    118  NH1       45.9210   30.1690  -21.0370 N.pl3  81  ARG81       0.1354
    119  NH2       43.6670   29.9460  -21.3330 N.pl3  81  ARG81       0.1354
    120  N         43.9610   33.9140  -11.1260 N.3    84  ALA84      -0.1245
    121  CA        43.5100   32.6000  -10.6520 C.3    84  ALA84       0.1562
    122  C         44.5860   31.8850   -9.8350 C.2    84  ALA84       0.2260
    123  O         44.2900   31.2200   -8.8230 O.2    84  ALA84      -0.2867
    124  CB        43.1430   31.7480  -11.8400 C.3    84  ALA84       0.0290
    125  N         44.0680   30.7490   -6.1260 N.3    88  PHE88      -0.1241
    126  CA        44.2450   29.3670   -5.7120 C.3    88  PHE88       0.1605
    127  C         45.1830   29.2560   -4.5060 C.2    88  PHE88       0.2264
    128  O         44.9550   28.4910   -3.5660 O.2    88  PHE88      -0.2867
    129  CB        44.8010   28.5250   -6.8700 C.3    88  PHE88       0.0534
    130  CG        45.1020   27.1130   -6.4700 C.ar   88  PHE88      -0.0203
    131  CD1       44.0640   26.2350   -6.1480 C.ar   88  PHE88      -0.0042
    132  CD2       46.4100   26.6590   -6.3920 C.ar   88  PHE88      -0.0042
    133  CE1       44.3340   24.9260   -5.7250 C.ar   88  PHE88      -0.0003
    134  CE2       46.6610   25.3500   -5.9630 C.ar   88  PHE88      -0.0003
    135  CZ        45.6010   24.5070   -5.6170 C.ar   88  PHE88      -0.0000
@<TRIPOS>BOND
     1   119   117    1
     2   118   117    1
     3   117   116    2
     4   116   115    1
     5   115   114    1
     6   114   113    1
     7    91    90    2
     8   100    99    2
     9   105   106    1
    10   113   110    1
    11    99    98    1
    12    22    20    1
    13   106   107    1
    14    90    89    1
    15    90    97   am
    16   109   110    1
    17   109   107   am
    18    34    33    1
    19    89    92    1
    20    89    88    1
    21   110   111    1
    22   107   108    2
    23    19    20    2
    24    19    18    1
    25    98    97    1
    26    98   101    1
    27    20    21    1
    28    92    93    1
    29    33    31   ar
    30    33    32   ar
    31   103   102    1
    32    93    94    1
    33   111   112    2
    34    18    17    1
    35    31    29   ar
    36   101   102    1
    37   102   104    1
    38    96    94   ar
    39    32    30   ar
    40    94    95   ar
    41    17    16    1
    42    29    28   ar
    43     9     7   ar
    44     9    11   ar
    45    84    83    2
    46   124   121    1
    47    30    28   ar
    48    42    40   ar
    49    16    13    1
    50     7     6   ar
    51    11    10   ar
    52    28    27    1
    53    15    14    2
    54   120   121    1
    55    83    82    1
    56   121   122    1
    57    40    41   ar
    58    40    39    1
    59    14    13    1
    60    14    23   am
    61    13    12    1
    62     6     5    1
    63     6     8   ar
    64    82    81    1
    65    82    85    1
    66    10     8   ar
    67    27    24    1
    68   122   123    2
    69    23    24    1
    70    24    25    1
    71     5     2    1
    72    39    36    1
    73     2     1    1
    74     2     3    1
    75    86    85    1
    76     4     3    2
    77    85    87    1
    78    25    26    2
    79    36    35    1
    80    36    37    1
    81    80    78    1
    82    79    78    1
    83    52    53   ar
    84    52    50   ar
    85    61    60    1
    86    37    38    2
    87    37    43   am
    88   129   130    1
    89   129   126    1
    90    53    51   ar
    91    78    77    2
    92    73    72    2
    93    50    48   ar
    94   130   132   ar
    95   130   131   ar
    96    43    44    1
    97   132   134   ar
    98   131   133   ar
    99   125   126    1
   100   134   135   ar
   101    51    49   ar
   102    72    71    1
   103   133   135   ar
   104   126   127    1
   105    77    76    1
   106    48    49   ar
   107    48    47    1
   108    58    59    1
   109    58    55    1
   110    60    59    1
   111    44    47    1
   112    44    45    1
   113    71    70    1
   114    71    74    1
   115    54    55    1
   116    55    56    1
   117    76    75    1
   118   127   128    2
   119    75    74    1
   120    45    46    2
   121    56    57    2
   122    68    67    1
   123    63    62    1
   124    63    66    1
   125    63    64    1
   126    67    66    1
   127    67    69    1
   128    65    64    2
