@<TRIPOS>MOLECULE
tmp/2w3sH00.pdb
 141 133 0 0 0
SMALL
GASTEIGER

@<TRIPOS>ATOM
      1  N        -16.3550   75.7410   46.5480 N.3   196  GLN196     -0.1245
      2  CA       -17.2940   74.7080   46.1620 C.3   196  GLN196      0.1566
      3  C        -16.6980   73.6480   45.2370 C.2   196  GLN196      0.2260
      4  O        -17.4410   72.7630   44.7970 O.2   196  GLN196     -0.2867
      5  CB       -18.5060   75.2910   45.4410 C.3   196  GLN196      0.0367
      6  CG       -19.0410   76.5990   45.9600 C.3   196  GLN196      0.0905
      7  CD       -20.0800   77.1440   45.0300 C.2   196  GLN196      0.2608
      8  OE1      -20.1660   78.3580   44.8060 O.2   196  GLN196     -0.2717
      9  NE2      -20.8680   76.2400   44.4450 N.am  196  GLN196     -0.0878
     10  N        -21.3650   80.9020   52.6780 N.3   225  GLY225     -0.1210
     11  CA       -21.9130   81.3230   51.3850 C.3   225  GLY225      0.1956
     12  C        -21.0370   81.0370   50.1740 C.2   225  GLY225      0.2612
     13  O        -19.7870   81.0020   50.2960 O.2   225  GLY225     -0.2717
     14  N        -21.6860   80.8460   49.0110 N.am  226  GLY226     -0.1942
     15  CA       -20.9880   80.6440   47.7260 C.3   226  GLY226      0.2014
     16  C        -21.8100   81.0580   46.5010 C.2   226  GLY226      0.2639
     17  O        -21.3470   81.8340   45.6360 O.2   226  GLY226     -0.2714
     18  N        -23.0260   80.5080   46.4250 N.am  227  PHE227     -0.1959
     19  CA       -24.0470   80.8310   45.3970 C.3   227  PHE227      0.1771
     20  C        -23.5600   80.7940   43.9280 C.2   227  PHE227      0.2620
     21  O        -24.1750   81.4250   43.0220 O.2   227  PHE227     -0.2715
     22  CB       -24.7280   82.1660   45.7000 C.3   227  PHE227      0.0574
     23  CG       -25.1210   82.3450   47.1380 C.ar  227  PHE227     -0.0200
     24  CD1      -24.2550   82.9750   48.0360 C.ar  227  PHE227     -0.0042
     25  CD2      -26.3700   81.9110   47.5910 C.ar  227  PHE227     -0.0042
     26  CE1      -24.6210   83.1560   49.3690 C.ar  227  PHE227     -0.0003
     27  CE2      -26.7560   82.0930   48.9140 C.ar  227  PHE227     -0.0003
     28  CZ       -25.8860   82.7180   49.8140 C.ar  227  PHE227     -0.0000
     29  N        -22.4560   80.0680   43.7200 N.am  228  GLY228     -0.1954
     30  CA       -21.8960   79.8460   42.3950 C.3   228  GLY228      0.1869
     31  C        -20.5680   80.5340   42.1840 C.2   228  GLY228      0.2309
     32  O        -19.8330   80.1850   41.2580 O.2   228  GLY228     -0.2863
     33  N        -26.1460   80.9320   41.1880 N.3   341  ARG341     -0.1245
     34  CA       -27.4040   80.2080   41.4820 C.3   341  ARG341      0.1563
     35  C        -28.4420   80.3740   40.3820 C.2   341  ARG341      0.2260
     36  O        -29.0740   81.4310   40.2560 O.2   341  ARG341     -0.2867
     37  CB       -27.9930   80.7290   42.7870 C.3   341  ARG341      0.0307
     38  CG       -29.2730   80.0560   43.2430 C.3   341  ARG341      0.0489
     39  CD       -29.6210   80.5580   44.6370 C.3   341  ARG341      0.2205
     40  NE       -30.3390   79.5680   45.4450 N.pl3 341  ARG341     -0.0865
     41  CZ       -30.5100   79.6610   46.7630 C.cat 341  ARG341      0.5346
     42  NH1      -29.9990   80.6980   47.4240 N.pl3 341  ARG341      0.1354
     43  NH2      -31.1870   78.7160   47.4220 N.pl3 341  ARG341      0.1354
     44  N        -22.2250   74.9540   52.0080 N.3   471  MET471     -0.1230
     45  CA       -22.1230   76.3800   51.8310 C.3   471  MET471      0.1702
     46  C        -23.3560   77.0430   52.4680 C.2   471  MET471      0.2593
     47  O        -23.5830   78.2540   52.2990 O.2   471  MET471     -0.2718
     48  CB       -21.9540   76.7160   50.3400 C.3   471  MET471      0.0401
     49  CG       -23.1040   76.2670   49.4160 C.3   471  MET471      0.0596
     50  SD       -22.7170   76.3170   47.6070 S.3   471  MET471     -0.1393
     51  CE       -21.6740   74.8470   47.4900 C.3   471  MET471      0.0692
     52  N        -24.1260   76.2610   53.2260 N.am  472  GLY472     -0.1942
     53  CA       -25.3040   76.7760   53.9050 C.3   472  GLY472      0.2014
     54  C        -26.5500   75.9640   53.6030 C.2   472  GLY472      0.2638
     55  O        -27.4720   75.9010   54.4380 O.2   472  GLY472     -0.2714
     56  N        -26.5640   75.3220   52.4280 N.am  473  GLN473     -0.1977
     57  CA       -27.7530   74.6850   51.8380 C.3   473  GLN473      0.1601
     58  C        -28.3160   73.5220   52.6450 C.2   473  GLN473      0.2287
     59  O        -29.4380   73.0630   52.3770 O.2   473  GLN473     -0.2864
     60  CB       -27.4690   74.2170   50.3960 C.3   473  GLN473      0.0394
     61  CG       -26.6010   72.9670   50.2510 C.3   473  GLN473      0.0908
     62  CD       -25.1020   73.2370   50.4130 C.2   473  GLN473      0.2608
     63  OE1      -24.6710   73.8920   51.3660 O.2   473  GLN473     -0.2717
     64  NE2      -24.3000   72.7050   49.4930 N.am  473  GLN473     -0.0878
     65  N        -26.6500   70.5470   53.1250 N.3   475  LEU475     -0.1245
     66  CA       -26.2520   69.3380   52.4560 C.3   475  LEU475      0.1561
     67  C        -25.9030   68.2550   53.4630 C.2   475  LEU475      0.2260
     68  O        -26.5040   67.1890   53.4400 O.2   475  LEU475     -0.2867
     69  CB       -25.0830   69.6190   51.5120 C.3   475  LEU475      0.0270
     70  CG       -24.5380   68.4020   50.7660 C.3   475  LEU475      0.0019
     71  CD1      -25.5450   67.8950   49.7430 C.3   475  LEU475      0.0001
     72  CD2      -23.2020   68.7230   50.1150 C.3   475  LEU475      0.0001
     73  N        -28.7590   66.5140   55.2960 N.3   478  LYS478     -0.1245
     74  CA       -29.5160   65.6260   54.4270 C.3   478  LYS478      0.1561
     75  C        -28.7180   64.3500   54.2130 C.2   478  LYS478      0.2260
     76  O        -29.3070   63.2530   54.0790 O.2   478  LYS478     -0.2867
     77  CB       -29.8310   66.2670   53.0780 C.3   478  LYS478      0.0271
     78  CG       -30.5000   67.6280   53.1280 C.3   478  LYS478      0.0035
     79  CD       -30.9630   68.0320   51.7440 C.3   478  LYS478      0.0206
     80  CE       -31.8850   69.2310   51.8160 C.3   478  LYS478      0.1093
     81  NZ       -32.3140   69.7430   50.4690 N.3   478  LYS478     -0.1314
     82  N        -19.8550   71.4160   43.7370 N.3   510  THR510     -0.1203
     83  CA       -21.1960   71.3000   44.2640 C.3   510  THR510      0.1994
     84  C        -22.0000   72.4070   43.5850 C.2   510  THR510      0.2618
     85  O        -21.8890   73.5870   43.9510 O.2   510  THR510     -0.2717
     86  CB       -21.2000   71.4340   45.7870 C.3   510  THR510      0.1784
     87  OG1      -20.0710   70.7310   46.3350 O.3   510  THR510     -0.2211
     88  CG2      -22.4920   70.8800   46.3580 C.3   510  THR510      0.0376
     89  N        -22.7810   72.0270   42.5740 N.am  511  ALA511     -0.1965
     90  CA       -23.3340   72.9920   41.6050 C.3   511  ALA511      0.1728
     91  C        -24.5120   72.3930   40.8710 C.2   511  ALA511      0.2616
     92  O        -24.7490   71.1880   40.9730 O.2   511  ALA511     -0.2715
     93  CB       -22.2390   73.4000   40.5710 C.3   511  ALA511      0.0334
     94  N        -25.2170   73.2100   40.0860 N.am  512  ALA512     -0.1963
     95  CA       -26.3730   72.7280   39.3190 C.3   512  ALA512      0.1728
     96  C        -27.3090   71.9440   40.2330 C.2   512  ALA512      0.2617
     97  O        -27.6410   70.8050   39.9400 O.2   512  ALA512     -0.2715
     98  CB       -25.9270   71.8610   38.1120 C.3   512  ALA512      0.0334
     99  N        -27.6860   72.5470   41.3580 N.am  513  SER513     -0.1936
    100  CA       -28.5290   71.9020   42.3630 C.3   513  SER513      0.2055
    101  C        -28.4090   70.3840   42.3850 C.2   513  SER513      0.2644
    102  O        -29.4350   69.7120   42.2820 O.2   513  SER513     -0.2714
    103  CB       -30.0050   72.2240   42.1100 C.3   513  SER513      0.2130
    104  OG       -30.2700   73.6100   42.1940 O.3   513  SER513     -0.2179
    105  N        -27.2090   69.8130   42.5070 N.am  514  SER514     -0.1935
    106  CA       -27.1130   68.3500   42.3750 C.3   514  SER514      0.2055
    107  C        -26.3550   67.6330   43.4910 C.2   514  SER514      0.2644
    108  O        -26.3470   66.3950   43.5360 O.2   514  SER514     -0.2714
    109  CB       -26.5390   67.9700   41.0010 C.3   514  SER514      0.2130
    110  OG       -25.1630   68.3300   40.8890 O.3   514  SER514     -0.2179
    111  N        -25.7310   68.4060   44.3800 N.am  515  GLY515     -0.1939
    112  CA       -24.9480   67.8760   45.4940 C.3   515  GLY515      0.2014
    113  C        -25.6500   66.8600   46.3650 C.2   515  GLY515      0.2638
    114  O        -25.0400   65.8890   46.7740 O.2   515  GLY515     -0.2714
    115  N        -26.9280   67.0750   46.6620 N.am  516  ALA516     -0.1977
    116  CA       -27.6790   66.1250   47.4730 C.3   516  ALA516      0.1597
    117  C        -28.2470   65.0190   46.6150 C.2   516  ALA516      0.2287
    118  O        -28.2720   63.8790   47.0490 O.2   516  ALA516     -0.2864
    119  CB       -28.7830   66.8230   48.2610 C.3   516  ALA516      0.0319
    120  N        -34.5230   77.0820   51.9280 N.3   646  GLN646     -0.1245
    121  CA       -33.9480   77.2430   50.6030 C.3   646  GLN646      0.1566
    122  C        -34.8220   78.1150   49.7150 C.2   646  GLN646      0.2260
    123  O        -34.3350   79.0660   49.1120 O.2   646  GLN646     -0.2867
    124  CB       -33.7110   75.8740   49.9660 C.3   646  GLN646      0.0367
    125  CG       -32.4910   75.1630   50.5130 C.3   646  GLN646      0.0905
    126  CD       -31.2190   75.8910   50.2020 C.2   646  GLN646      0.2608
    127  OE1      -30.5760   75.6140   49.1930 O.2   646  GLN646     -0.2717
    128  NE2      -30.8570   76.8480   51.0430 N.am  646  GLN646     -0.0878
    129  N        -32.0120   73.5290   45.2080 N.3   712  GLY712     -0.1210
    130  CA       -31.0490   74.6200   45.3960 C.3   712  GLY712      0.1956
    131  C        -31.2560   75.8560   44.5220 C.2   712  GLY712      0.2611
    132  O        -31.2470   76.9870   45.0250 O.2   712  GLY712     -0.2717
    133  N        -31.4380   75.6560   43.2190 N.am  713  GLU713     -0.1979
    134  CA       -31.5430   76.7820   42.3010 C.3   713  GLU713      0.1602
    135  C        -32.9710   77.0880   41.8430 C.2   713  GLU713      0.2287
    136  O        -33.3650   78.2620   41.8170 O.2   713  GLU713     -0.2864
    137  CB       -30.6230   76.5930   41.0980 C.3   713  GLU713      0.0415
    138  CG       -29.1540   76.4480   41.4770 C.3   713  GLU713      0.1163
    139  CD       -28.3100   76.0010   40.3050 C.2   713  GLU713      0.3649
    140  OE1      -28.6000   74.9060   39.7810 O.co2 713  GLU713     -0.2457
    141  OE2      -27.3780   76.7410   39.8880 O.co2 713  GLU713     -0.2457
@<TRIPOS>BOND
     1    98    95    1
     2    95    94    1
     3    95    96    1
     4   140   139   ar
     5   141   139   ar
     6    97    96    2
     7    94    91   am
     8    96    99   am
     9    36    35    2
    10   139   138    1
    11    35    34    1
    12    93    90    1
    13    91    92    2
    14    91    90    1
    15   110   109    1
    16   109   106    1
    17   137   138    1
    18   137   134    1
    19    33    34    1
    20    32    31    2
    21    99   100    1
    22    34    37    1
    23    90    89    1
    24   136   135    2
    25   135   134    1
    26   103   104    1
    27   103   100    1
    28    31    30    1
    29   102   101    2
    30   134   133    1
    31   100   101    1
    32   106   105    1
    33   106   107    1
    34   101   105   am
    35    30    29    1
    36    89    84   am
    37    37    38    1
    38    21    20    2
    39   133   131   am
    40    38    39    1
    41   107   108    2
    42   107   111   am
    43    84    85    2
    44    84    83    1
    45    29    20   am
    46    82    83    1
    47    20    19    1
    48    83    86    1
    49   111   112    1
    50     9     7   am
    51   131   132    2
    52   131   130    1
    53    39    40    1
    54     4     3    2
    55     8     7    2
    56     7     6    1
    57   129   130    1
    58     3     2    1
    59    19    22    1
    60    19    18    1
    61     5     6    1
    62     5     2    1
    63    40    41    2
    64   112   113    1
    65    17    16    2
    66    22    23    1
    67    86    87    1
    68    86    88    1
    69     2     1    1
    70   113   115   am
    71   113   114    2
    72    18    16   am
    73    16    15    1
    74   117   118    2
    75   117   116    1
    76   115   116    1
    77    41    43    1
    78    41    42    1
    79    23    25   ar
    80    23    24   ar
    81   116   119    1
    82    51    50    1
    83    25    27   ar
    84    50    49    1
    85    15    14    1
    86    24    26   ar
    87    27    28   ar
    88    14    12   am
    89   123   122    2
    90   127   126    2
    91    26    28   ar
    92    49    48    1
    93    64    62   am
    94   122   121    1
    95    71    70    1
    96   124   125    1
    97   124   121    1
    98    72    70    1
    99    12    13    2
   100    12    11    1
   101   126   125    1
   102   126   128   am
   103    61    60    1
   104    61    62    1
   105    48    45    1
   106    60    57    1
   107    62    63    2
   108    81    80    1
   109   121   120    1
   110    70    69    1
   111    11    10    1
   112    69    66    1
   113    79    80    1
   114    79    78    1
   115    45    44    1
   116    45    46    1
   117    57    56    1
   118    57    58    1
   119    47    46    2
   120    59    58    2
   121    56    54   am
   122    66    65    1
   123    66    67    1
   124    46    52   am
   125    77    78    1
   126    77    74    1
   127    52    53    1
   128    68    67    2
   129    54    53    1
   130    54    55    2
   131    76    75    2
   132    75    74    1
   133    74    73    1
