@<TRIPOS>MOLECULE
tmp/2w3sH01.pdb
 99 93 0 0 0
SMALL
GASTEIGER

@<TRIPOS>ATOM
      1  N        -17.4750   78.3720   42.8120 N.3   231  GLU231     -0.1245
      2  CA       -17.2970   77.2420   41.9270 C.3   231  GLU231      0.1567
      3  C        -15.9180   77.2950   41.2610 C.2   231  GLU231      0.2260
      4  O        -15.3480   76.2560   40.9860 O.2   231  GLU231     -0.2867
      5  CB       -18.4090   77.2040   40.8720 C.3   231  GLU231      0.0388
      6  CG       -18.3760   75.9550   39.9630 C.3   231  GLU231      0.1160
      7  CD       -19.7060   75.6760   39.2300 C.2   231  GLU231      0.3649
      8  OE1      -19.7380   74.6990   38.4230 O.co2 231  GLU231     -0.2457
      9  OE2      -20.7070   76.4250   39.4600 O.co2 231  GLU231     -0.2457
     10  N        -16.7900   80.0480   33.0940 N.3   302  LEU302     -0.1245
     11  CA       -17.8630   79.0710   32.8650 C.3   302  LEU302      0.1561
     12  C        -18.9690   79.6290   31.9470 C.2   302  LEU302      0.2260
     13  O        -20.0770   79.0780   31.8830 O.2   302  LEU302     -0.2867
     14  CB       -18.4510   78.5820   34.2020 C.3   302  LEU302      0.0270
     15  CG       -17.7500   77.5050   35.0400 C.3   302  LEU302      0.0019
     16  CD1      -17.9900   77.6510   36.5580 C.3   302  LEU302      0.0001
     17  CD2      -18.2200   76.1460   34.5800 C.3   302  LEU302      0.0001
     18  N        -20.9430   76.8980   29.5610 N.3   305  PRO305     -0.2116
     19  CA       -22.1410   76.1630   29.9740 C.3   305  PRO305      0.1372
     20  C        -23.2570   77.0970   30.4640 C.2   305  PRO305      0.2244
     21  O        -24.4330   76.7870   30.2970 O.2   305  PRO305     -0.2868
     22  CB       -21.6320   75.2440   31.1030 C.3   305  PRO305      0.0268
     23  CG       -20.3720   75.9070   31.5970 C.3   305  PRO305      0.0207
     24  CD       -19.7640   76.5280   30.3700 C.3   305  PRO305      0.0892
     25  N        -27.2940   77.0170   29.1310 N.3   309  ARG309     -0.1245
     26  CA       -28.4090   76.7850   30.0060 C.3   309  ARG309      0.1563
     27  C        -29.5020   77.8550   29.8160 C.2   309  ARG309      0.2260
     28  O        -30.7040   77.5450   29.9270 O.2   309  ARG309     -0.2867
     29  CB       -27.9420   76.6410   31.4560 C.3   309  ARG309      0.0307
     30  CG       -29.0480   76.2140   32.3790 C.3   309  ARG309      0.0489
     31  CD       -28.5730   76.0120   33.7750 C.3   309  ARG309      0.2205
     32  NE       -27.9820   74.6940   33.9210 N.pl3 309  ARG309     -0.0865
     33  CZ       -28.6700   73.5990   34.2330 C.cat 309  ARG309      0.5346
     34  NH1      -29.9960   73.6490   34.4400 N.pl3 309  ARG309      0.1354
     35  NH2      -28.0170   72.4460   34.3360 N.pl3 309  ARG309      0.1354
     36  N        -27.5010   79.6640   37.1150 N.3   343  PHE343     -0.1241
     37  CA       -26.5410   79.2800   36.1020 C.3   343  PHE343      0.1605
     38  C        -27.0280   79.5250   34.6420 C.2   343  PHE343      0.2264
     39  O        -26.9820   78.6270   33.7860 O.2   343  PHE343     -0.2867
     40  CB       -26.1360   77.8170   36.3280 C.3   343  PHE343      0.0534
     41  CG       -24.8360   77.4620   35.7090 C.ar  343  PHE343     -0.0203
     42  CD1      -23.6450   77.8100   36.3300 C.ar  343  PHE343     -0.0042
     43  CD2      -24.7940   76.8140   34.4790 C.ar  343  PHE343     -0.0042
     44  CE1      -22.4190   77.4960   35.7420 C.ar  343  PHE343     -0.0003
     45  CE2      -23.5900   76.4990   33.8860 C.ar  343  PHE343     -0.0003
     46  CZ       -22.3940   76.8410   34.5240 C.ar  343  PHE343     -0.0000
     47  N        -25.6340   68.4290   35.4690 N.3   442  PHE442     -0.1227
     48  CA       -24.6280   69.1920   34.7410 C.3   442  PHE442      0.1736
     49  C        -24.8130   68.9250   33.2600 C.2   442  PHE442      0.2596
     50  O        -24.7900   67.7600   32.8230 O.2   442  PHE442     -0.2718
     51  CB       -23.2290   68.7260   35.1150 C.3   442  PHE442      0.0547
     52  CG       -22.8050   69.0930   36.5000 C.ar  442  PHE442     -0.0202
     53  CD1      -23.1570   68.3000   37.5870 C.ar  442  PHE442     -0.0042
     54  CD2      -22.0170   70.2050   36.7170 C.ar  442  PHE442     -0.0042
     55  CE1      -22.7550   68.6250   38.8580 C.ar  442  PHE442     -0.0003
     56  CE2      -21.5980   70.5390   38.0040 C.ar  442  PHE442     -0.0003
     57  CZ       -21.9680   69.7420   39.0740 C.ar  442  PHE442     -0.0000
     58  N        -24.9960   69.9890   32.4840 N.am  443  THR443     -0.1939
     59  CA       -25.0930   69.8270   31.0370 C.3   443  THR443      0.2028
     60  C        -23.7670   69.3470   30.4520 C.2   443  THR443      0.2642
     61  O        -23.7500   68.8590   29.3270 O.2   443  THR443     -0.2714
     62  CB       -25.5580   71.0790   30.3130 C.3   443  THR443      0.1808
     63  OG1      -24.5010   72.0420   30.3160 O.3   443  THR443     -0.2208
     64  CG2      -26.8020   71.6490   30.9840 C.3   443  THR443      0.0379
     65  N        -22.6700   69.4770   31.2040 N.am  444  LEU444     -0.1977
     66  CA       -21.4520   68.7090   30.8980 C.3   444  LEU444      0.1596
     67  C        -21.4940   67.3370   31.6120 C.2   444  LEU444      0.2287
     68  O        -20.8160   67.1170   32.6320 O.2   444  LEU444     -0.2864
     69  CB       -20.1750   69.5070   31.2260 C.3   444  LEU444      0.0297
     70  CG       -18.7920   68.8530   31.0160 C.3   444  LEU444      0.0022
     71  CD1      -18.5000   68.5140   29.5500 C.3   444  LEU444      0.0001
     72  CD2      -17.7030   69.7500   31.5660 C.3   444  LEU444      0.0001
     73  N        -19.9520   65.1570   34.5060 N.3   447  LEU447     -0.1245
     74  CA       -19.8180   65.7440   35.8340 C.3   447  LEU447      0.1561
     75  C        -20.8670   65.1810   36.7800 C.2   447  LEU447      0.2260
     76  O        -20.8060   65.4030   37.9790 O.2   447  LEU447     -0.2867
     77  CB       -19.9010   67.2810   35.7960 C.3   447  LEU447      0.0270
     78  CG       -18.8490   68.0480   34.9590 C.3   447  LEU447      0.0019
     79  CD1      -19.0780   69.5340   35.0140 C.3   447  LEU447      0.0001
     80  CD2      -17.4070   67.7080   35.3650 C.3   447  LEU447      0.0001
     81  N        -22.7810   72.0270   42.5740 N.3   511  ALA511     -0.1231
     82  CA       -23.3340   72.9920   41.6050 C.3   511  ALA511      0.1694
     83  C        -24.5120   72.3930   40.8710 C.2   511  ALA511      0.2591
     84  O        -24.7490   71.1880   40.9730 O.2   511  ALA511     -0.2718
     85  CB       -22.2390   73.4000   40.5710 C.3   511  ALA511      0.0304
     86  N        -25.2170   73.2100   40.0860 N.am  512  ALA512     -0.1980
     87  CA       -26.3730   72.7280   39.3190 C.3   512  ALA512      0.1597
     88  C        -27.3090   71.9440   40.2330 C.2   512  ALA512      0.2287
     89  O        -27.6410   70.8050   39.9400 O.2   512  ALA512     -0.2864
     90  CB       -25.9270   71.8610   38.1120 C.3   512  ALA512      0.0319
     91  N        -31.4380   75.6560   43.2190 N.3   713  GLU713     -0.1245
     92  CA       -31.5430   76.7820   42.3010 C.3   713  GLU713      0.1567
     93  C        -32.9710   77.0880   41.8430 C.2   713  GLU713      0.2260
     94  O        -33.3650   78.2620   41.8170 O.2   713  GLU713     -0.2867
     95  CB       -30.6230   76.5930   41.0980 C.3   713  GLU713      0.0388
     96  CG       -29.1540   76.4480   41.4770 C.3   713  GLU713      0.1160
     97  CD       -28.3100   76.0010   40.3050 C.2   713  GLU713      0.3649
     98  OE1      -28.6000   74.9060   39.7810 O.co2 713  GLU713     -0.2457
     99  OE2      -27.3780   76.7410   39.8880 O.co2 713  GLU713     -0.2457
@<TRIPOS>BOND
     1    25    26    1
     2    61    60    2
     3    71    70    1
     4    18    19    1
     5    18    24    1
     6    27    28    2
     7    27    26    1
     8    19    20    1
     9    19    22    1
    10    26    29    1
    11    21    20    2
    12    62    63    1
    13    62    64    1
    14    62    59    1
    15    24    23    1
    16    60    59    1
    17    60    65   am
    18    66    65    1
    19    66    69    1
    20    66    67    1
    21    70    69    1
    22    70    72    1
    23    59    58    1
    24    22    23    1
    25    29    30    1
    26    67    68    2
    27    13    12    2
    28    12    11    1
    29    30    31    1
    30    58    49   am
    31    50    49    2
    32    11    10    1
    33    11    14    1
    34    49    48    1
    35    31    32    1
    36    39    38    2
    37    45    43   ar
    38    45    46   ar
    39    32    33    2
    40    14    15    1
    41    33    35    1
    42    33    34    1
    43    43    41   ar
    44    73    74    1
    45    46    44   ar
    46    17    15    1
    47    38    37    1
    48    48    51    1
    49    48    47    1
    50    78    79    1
    51    78    80    1
    52    78    77    1
    53    15    16    1
    54    51    52    1
    55    41    40    1
    56    41    42   ar
    57    44    42   ar
    58    77    74    1
    59    74    75    1
    60    37    40    1
    61    37    36    1
    62    52    54   ar
    63    52    53   ar
    64    54    56   ar
    65    75    76    2
    66    53    55   ar
    67    56    57   ar
    68    90    87    1
    69     8     7   ar
    70    55    57   ar
    71     7     9   ar
    72     7     6    1
    73    87    86    1
    74    87    88    1
    75    98    97   ar
    76    99    97   ar
    77    89    88    2
    78     6     5    1
    79    86    83   am
    80    97    96    1
    81    85    82    1
    82    83    84    2
    83    83    82    1
    84     5     2    1
    85     4     3    2
    86    95    96    1
    87    95    92    1
    88     3     2    1
    89    82    81    1
    90    94    93    2
    91    93    92    1
    92     2     1    1
    93    92    91    1
