@<TRIPOS>MOLECULE
tmp/2w3vA01.pdb
 161 154 0 0 0
SMALL
GASTEIGER

@<TRIPOS>ATOM
      1  N         57.4530   16.1520   31.5350 N.3     7  VAL7       -0.1231
      2  CA        57.0000   17.1910   30.6110 C.3     7  VAL7        0.1692
      3  C         56.8770   18.5590   31.2710 C.2     7  VAL7        0.2592
      4  O         56.2630   18.7040   32.3470 O.2     7  VAL7       -0.2718
      5  CB        55.6770   16.7590   29.8670 C.3     7  VAL7        0.0266
      6  CG1       54.4960   16.4730   30.8590 C.3     7  VAL7        0.0020
      7  CG2       55.2870   17.8340   28.7930 C.3     7  VAL7        0.0020
      8  N         57.4440   19.5830   30.6270 N.am    8  TRP8       -0.1962
      9  CA        57.4030   20.9490   31.1870 C.3     8  TRP8        0.1771
     10  C         57.6050   22.0040   30.0810 C.2     8  TRP8        0.2619
     11  O         58.0240   21.6640   28.9850 O.2     8  TRP8       -0.2715
     12  CB        58.4310   21.1820   32.3240 C.3     8  TRP8        0.0590
     13  CG        59.9110   21.3280   31.9300 C.ar    8  TRP8        0.0006
     14  CD1       60.5460   22.4800   31.5330 C.ar    8  TRP8        0.0946
     15  CD2       60.9190   20.3040   31.9680 C.ar    8  TRP8        0.0152
     16  NE1       61.8960   22.2240   31.3070 N.ar    8  TRP8       -0.2442
     17  CE2       62.1430   20.8940   31.5550 C.ar    8  TRP8        0.0810
     18  CE3       60.9060   18.9360   32.3210 C.ar    8  TRP8        0.0012
     19  CZ2       63.3400   20.1770   31.4970 C.ar    8  TRP8        0.0191
     20  CZ3       62.1080   18.1880   32.2170 C.ar    8  TRP8        0.0001
     21  CH2       63.3060   18.8150   31.8200 C.ar    8  TRP8        0.0015
     22  N         57.2990   23.2520   30.4130 N.am    9  ALA9       -0.1977
     23  CA        57.5280   24.4290   29.5470 C.3     9  ALA9        0.1597
     24  C         58.3980   25.3670   30.3570 C.2     9  ALA9        0.2287
     25  O         58.1240   25.5600   31.5650 O.2     9  ALA9       -0.2864
     26  CB        56.1830   25.1190   29.2190 C.3     9  ALA9        0.0319
     27  N         52.1220   30.7730   39.2420 N.3    21  ASP21      -0.1225
     28  CA        51.5280   30.6530   37.9050 C.3    21  ASP21       0.1805
     29  C         52.6090   30.4040   36.8710 C.2    21  ASP21       0.2597
     30  O         53.7800   30.5830   37.1540 O.2    21  ASP21      -0.2718
     31  CB        50.8080   31.9640   37.5250 C.3    21  ASP21       0.1424
     32  CG        49.5550   32.2310   38.3650 C.2    21  ASP21       0.3668
     33  OD1       48.8500   31.2590   38.7250 O.co2  21  ASP21      -0.2456
     34  OD2       49.2650   33.4170   38.6400 O.co2  21  ASP21      -0.2456
     35  N         52.2030   29.9930   35.6720 N.am   22  ILE22      -0.1980
     36  CA        53.0650   30.0240   34.4880 C.3    22  ILE22       0.1595
     37  C         53.1320   31.4880   33.9910 C.2    22  ILE22       0.2287
     38  O         52.0910   32.0780   33.6720 O.2    22  ILE22      -0.2864
     39  CB        52.5260   29.0690   33.3840 C.3    22  ILE22       0.0276
     40  CG1       52.5240   27.6170   33.8870 C.3    22  ILE22       0.0022
     41  CG2       53.3580   29.2010   32.1190 C.3    22  ILE22       0.0022
     42  CD1       52.2090   26.5340   32.8250 C.3    22  ILE22       0.0001
     43  N         51.4630   25.5770   23.7260 N.3    29  ASP29      -0.1225
     44  CA        52.0880   24.6690   24.7020 C.3    29  ASP29       0.1805
     45  C         51.0360   23.7620   25.3930 C.2    29  ASP29       0.2597
     46  O         51.2570   22.5330   25.6170 O.2    29  ASP29      -0.2718
     47  CB        52.8860   25.4680   25.7460 C.3    29  ASP29       0.1424
     48  CG        53.3460   24.5940   26.8730 C.2    29  ASP29       0.3668
     49  OD1       54.1390   23.6800   26.5880 O.co2  29  ASP29      -0.2456
     50  OD2       52.8540   24.7770   28.0120 O.co2  29  ASP29      -0.2456
     51  N         49.8850   24.3450   25.7170 N.am   30  LEU30      -0.1979
     52  CA        48.9020   23.5630   26.4340 C.3    30  LEU30       0.1596
     53  C         48.3590   22.4720   25.5140 C.2    30  LEU30       0.2287
     54  O         48.0970   21.3610   25.9660 O.2    30  LEU30      -0.2864
     55  CB        47.8000   24.4490   27.0150 C.3    30  LEU30       0.0297
     56  CG        48.4140   25.4800   27.9950 C.3    30  LEU30       0.0022
     57  CD1       47.3010   26.3420   28.5420 C.3    30  LEU30       0.0001
     58  CD2       49.1720   24.8340   29.1420 C.3    30  LEU30       0.0001
     59  N         50.1370   20.9020   23.0480 N.3    32  ARG32      -0.1231
     60  CA        51.2000   19.9170   23.0680 C.3    32  ARG32       0.1694
     61  C         51.1570   19.0900   24.3700 C.2    32  ARG32       0.2592
     62  O         51.2970   17.8420   24.3390 O.2    32  ARG32      -0.2718
     63  CB        52.5640   20.6310   22.9510 C.3    32  ARG32       0.0321
     64  CG        53.7810   19.7170   23.1150 C.3    32  ARG32       0.0489
     65  CD        53.9590   18.8450   21.8860 C.3    32  ARG32       0.2205
     66  NE        55.2510   18.1660   21.9480 N.pl3  32  ARG32      -0.0865
     67  CZ        55.9430   17.7740   20.8840 C.cat  32  ARG32       0.5346
     68  NH1       55.4620   17.9870   19.6540 N.pl3  32  ARG32       0.1354
     69  NH2       57.1150   17.1660   21.0440 N.pl3  32  ARG32       0.1354
     70  N         50.9430   19.7610   25.4950 N.am   33  PHE33      -0.1976
     71  CA        50.8940   19.0710   26.8050 C.3    33  PHE33       0.1639
     72  C         49.7810   18.0220   26.8210 C.2    33  PHE33       0.2290
     73  O         49.9670   16.8690   27.2620 O.2    33  PHE33      -0.2864
     74  CB        50.6920   20.0850   27.9590 C.3    33  PHE33       0.0560
     75  CG        50.3200   19.4330   29.2850 C.ar   33  PHE33      -0.0200
     76  CD1       51.2860   18.7830   30.0620 C.ar   33  PHE33      -0.0042
     77  CD2       48.9930   19.4680   29.7510 C.ar   33  PHE33      -0.0042
     78  CE1       50.9200   18.1770   31.2910 C.ar   33  PHE33      -0.0003
     79  CE2       48.6310   18.8530   30.9730 C.ar   33  PHE33      -0.0003
     80  CZ        49.5900   18.2140   31.7380 C.ar   33  PHE33      -0.0000
     81  N         51.6890   22.2360   42.4920 N.3    48  THR48      -0.1218
     82  CA        51.2260   22.2110   41.1120 C.3    48  THR48       0.1862
     83  C         49.7190   21.9010   41.0270 C.2    48  THR48       0.2287
     84  O         48.9820   22.5480   40.2600 O.2    48  THR48      -0.2866
     85  CB        52.0350   21.2260   40.2840 C.3    48  THR48       0.1770
     86  OG1       53.3570   21.7850   40.0920 O.3    48  THR48      -0.2211
     87  CG2       51.3940   21.0560   38.9520 C.3    48  THR48       0.0375
     88  N         47.9490   24.9860   41.8850 N.3    51  SER51      -0.1202
     89  CA        48.1170   25.9690   40.8070 C.3    51  SER51       0.2020
     90  C         47.1090   25.7970   39.6680 C.2    51  SER51       0.2619
     91  O         46.8040   26.7500   38.9470 O.2    51  SER51      -0.2717
     92  CB        49.5260   25.9100   40.2190 C.3    51  SER51       0.2103
     93  OG        49.7300   27.0150   39.3480 O.3    51  SER51      -0.2182
     94  N         46.6240   24.5740   39.4850 N.am   52  LEU52      -0.1966
     95  CA        45.6280   24.3070   38.4530 C.3    52  LEU52       0.1713
     96  C         44.3240   24.9370   38.8900 C.2    52  LEU52       0.2458
     97  O         43.9130   24.7550   40.0410 O.2    52  LEU52      -0.2730
     98  CB        45.4170   22.8100   38.2670 C.3    52  LEU52       0.0310
     99  CG        46.5930   21.9750   37.7940 C.3    52  LEU52       0.0022
    100  CD1       46.1890   20.5240   37.7390 C.3    52  LEU52       0.0001
    101  CD2       47.1360   22.4460   36.4400 C.3    52  LEU52       0.0001
    102  N         43.6620   25.6820   37.9850 N.am   53  PRO53      -0.2727
    103  CA        42.3170   26.1940   38.3110 C.3    53  PRO53       0.1402
    104  C         41.3850   25.0590   38.7530 C.2    53  PRO53       0.2269
    105  O         41.4170   23.9630   38.1670 O.2    53  PRO53      -0.2865
    106  CB        41.8380   26.7920   36.9860 C.3    53  PRO53       0.0296
    107  CG        43.0940   27.1670   36.2860 C.3    53  PRO53       0.0237
    108  CD        44.0900   26.0820   36.6340 C.3    53  PRO53       0.0939
    109  N         39.4750   23.2950   36.1940 N.3    56  VAL56      -0.1245
    110  CA        40.2690   22.5710   35.2190 C.3    56  VAL56       0.1561
    111  C         40.8240   21.2450   35.7660 C.2    56  VAL56       0.2260
    112  O         41.4060   20.4690   35.0070 O.2    56  VAL56      -0.2867
    113  CB        41.4280   23.4890   34.6940 C.3    56  VAL56       0.0252
    114  CG1       42.7890   22.7800   34.6090 C.3    56  VAL56       0.0019
    115  CG2       41.0510   24.1350   33.3700 C.3    56  VAL56       0.0019
    116  N         42.7860   16.8080   35.6210 N.3    59  LEU59      -0.1245
    117  CA        42.9190   16.8570   34.1740 C.3    59  LEU59       0.1561
    118  C         42.1490   15.7080   33.5630 C.2    59  LEU59       0.2260
    119  O         42.3750   14.5440   33.9340 O.2    59  LEU59      -0.2867
    120  CB        44.4030   16.7940   33.7820 C.3    59  LEU59       0.0270
    121  CG        45.2050   17.9220   34.4010 C.3    59  LEU59       0.0019
    122  CD1       46.7200   17.6940   34.2400 C.3    59  LEU59       0.0001
    123  CD2       44.8190   19.2650   33.7840 C.3    59  LEU59       0.0001
    124  N         42.8800   11.4260   32.0570 N.3    62  ARG62      -0.1245
    125  CA        44.1710   11.0710   32.6300 C.3    62  ARG62       0.1563
    126  C         43.9460   10.7100   34.1080 C.2    62  ARG62       0.2260
    127  O         43.0770   11.2980   34.7790 O.2    62  ARG62      -0.2867
    128  CB        45.1300   12.2500   32.5160 C.3    62  ARG62       0.0307
    129  CG        45.6650   12.4170   31.0920 C.3    62  ARG62       0.0489
    130  CD        46.0460   13.8730   30.7680 C.3    62  ARG62       0.2205
    131  NE        44.8320   14.7010   30.5600 N.pl3  62  ARG62      -0.0865
    132  CZ        44.8410   15.9800   30.1730 C.cat  62  ARG62       0.5346
    133  NH1       45.9980   16.6320   29.9840 N.pl3  62  ARG62       0.1354
    134  NH2       43.6860   16.6220   30.0030 N.pl3  62  ARG62       0.1354
    135  N         54.3530   15.8480   35.6530 N.3   100  ILE100     -0.1245
    136  CA        53.9100   17.1320   35.0530 C.3   100  ILE100      0.1561
    137  C         54.2080   18.3710   35.9170 C.2   100  ILE100      0.2260
    138  O         53.6650   19.4780   35.6630 O.2   100  ILE100     -0.2867
    139  CB        52.3950   17.0760   34.6590 C.3   100  ILE100      0.0252
    140  CG1       51.5080   17.0560   35.9180 C.3   100  ILE100      0.0019
    141  CG2       52.1270   15.8380   33.7320 C.3   100  ILE100      0.0019
    142  CD1       50.0510   17.4260   35.6670 C.3   100  ILE100      0.0001
    143  N         60.0640   17.3720   39.6930 N.3   106  TYR106     -0.1241
    144  CA        60.9810   17.0170   38.5880 C.3   106  TYR106      0.1605
    145  C         62.3070   16.4840   39.1120 C.2   106  TYR106      0.2264
    146  O         62.8300   15.5190   38.5760 O.2   106  TYR106     -0.2867
    147  CB        61.2460   18.1840   37.6350 C.3   106  TYR106      0.0534
    148  CG        60.0330   18.6270   36.8370 C.ar  106  TYR106     -0.0201
    149  CD1       59.2640   17.7050   36.1170 C.ar  106  TYR106     -0.0009
    150  CD2       59.6900   19.9800   36.7550 C.ar  106  TYR106     -0.0009
    151  CE1       58.1220   18.1200   35.3840 C.ar  106  TYR106      0.0417
    152  CE2       58.5840   20.4080   36.0070 C.ar  106  TYR106      0.0417
    153  CZ        57.8040   19.4830   35.3320 C.ar  106  TYR106      0.1957
    154  OH        56.7120   19.9240   34.6000 O.3   106  TYR106     -0.2866
    155  N         58.9220   22.2200   26.2060 N.3   119  THR119     -0.1218
    156  CA        58.6130   23.3520   25.3220 C.3   119  THR119      0.1862
    157  C         59.5170   24.5250   25.7610 C.2   119  THR119      0.2287
    158  O         59.5050   24.9000   26.9350 O.2   119  THR119     -0.2866
    159  CB        57.1530   23.7900   25.4600 C.3   119  THR119      0.1770
    160  OG1       56.2910   22.6750   25.1670 O.3   119  THR119     -0.2211
    161  CG2       56.8300   24.9520   24.4840 C.3   119  THR119      0.0375
@<TRIPOS>BOND
     1    68    67    1
     2    67    69    1
     3    67    66    2
     4    65    66    1
     5    65    64    1
     6    63    60    1
     7    63    64    1
     8    59    60    1
     9    60    61    1
    10    43    44    1
    11    62    61    2
    12    61    70   am
    13   161   159    1
    14    44    45    1
    15    44    47    1
    16   160   159    1
    17   156   159    1
    18   156   157    1
    19   156   155    1
    20    45    46    2
    21    45    51   am
    22    70    71    1
    23    53    54    2
    24    53    52    1
    25    51    52    1
    26    47    48    1
    27   157   158    2
    28    52    55    1
    29    49    48   ar
    30    71    72    1
    31    71    74    1
    32    72    73    2
    33    48    50   ar
    34    55    56    1
    35    74    75    1
    36    56    57    1
    37    56    58    1
    38     7     5    1
    39    11    10    2
    40    26    23    1
    41    75    77   ar
    42    75    76   ar
    43    23    24    1
    44    23    22    1
    45    77    79   ar
    46     5     2    1
    47     5     6    1
    48   133   132    1
    49   134   132    1
    50    76    78   ar
    51    10    22   am
    52    10     9    1
    53   132   131    2
    54    24    25    2
    55   131   130    1
    56     2     3    1
    57     2     1    1
    58     8     9    1
    59     8     3   am
    60   130   129    1
    61    79    80   ar
    62   129   128    1
    63     9    12    1
    64     3     4    2
    65    78    80   ar
    66    16    14   ar
    67    16    17   ar
    68    19    17   ar
    69    19    21   ar
    70    14    13   ar
    71    17    15   ar
    72    21    20   ar
    73    13    15   ar
    74    13    12    1
    75    15    18   ar
    76   124   125    1
    77    41    39    1
    78    20    18   ar
    79   128   125    1
    80   125   126    1
    81    42    40    1
    82   115   113    1
    83    39    40    1
    84    39    36    1
    85   118   119    2
    86   118   117    1
    87    38    37    2
    88   141   139    1
    89   120   117    1
    90   120   121    1
    91   123   121    1
    92    37    36    1
    93   126   127    2
    94   117   116    1
    95   122   121    1
    96    36    35    1
    97   154   153    1
    98   114   113    1
    99   139   136    1
   100   139   140    1
   101   113   110    1
   102   112   111    2
   103   136   135    1
   104   136   137    1
   105   110   111    1
   106   110   109    1
   107   153   151   ar
   108   153   152   ar
   109   151   149   ar
   110   138   137    2
   111   142   140    1
   112    35    29   am
   113   152   150   ar
   114   149   148   ar
   115   107   108    1
   116   107   106    1
   117   101    99    1
   118   108   102    1
   119   150   148   ar
   120   148   147    1
   121    29    30    2
   122    29    28    1
   123   106   103    1
   124    31    28    1
   125    31    32    1
   126   147   144    1
   127   100    99    1
   128    99    98    1
   129    28    27    1
   130   102   103    1
   131   102    96   am
   132   105   104    2
   133    98    95    1
   134   103   104    1
   135    32    34   ar
   136    32    33   ar
   137    95    96    1
   138    95    94    1
   139   146   145    2
   140   144   145    1
   141   144   143    1
   142    96    97    2
   143    91    90    2
   144    87    85    1
   145    93    92    1
   146    94    90   am
   147    90    89    1
   148    86    85    1
   149    92    89    1
   150    84    83    2
   151    85    82    1
   152    89    88    1
   153    83    82    1
   154    82    81    1
