@<TRIPOS>MOLECULE
tmp/2w3wA01.pdb
 219 213 0 0 0
SMALL
GASTEIGER

@<TRIPOS>ATOM
      1  N         10.8240   -0.2650   47.0820 N.3     7  VAL7       -0.1231
      2  CA        10.7700    0.0790   45.6630 C.3     7  VAL7        0.1692
      3  C         12.1690    0.5510   45.2760 C.2     7  VAL7        0.2592
      4  O         12.7190    1.4150   45.9230 O.2     7  VAL7       -0.2718
      5  CB         9.6710    1.1010   45.3410 C.3     7  VAL7        0.0266
      6  CG1        9.7950    2.4070   46.2330 C.3     7  VAL7        0.0020
      7  CG2        9.7440    1.4650   43.8590 C.3     7  VAL7        0.0020
      8  N         12.7530   -0.0780   44.2640 N.am    8  TRP8       -0.1962
      9  CA        14.0620    0.3180   43.7440 C.3     8  TRP8        0.1771
     10  C         14.2200    0.0270   42.2560 C.2     8  TRP8        0.2619
     11  O         13.4470   -0.7650   41.7070 O.2     8  TRP8       -0.2715
     12  CB        15.1960   -0.3580   44.5280 C.3     8  TRP8        0.0590
     13  CG        15.4410   -1.8180   44.2820 C.ar    8  TRP8        0.0006
     14  CD1       16.3420   -2.3490   43.3910 C.ar    8  TRP8        0.0946
     15  CD2       14.8920   -2.9210   45.0040 C.ar    8  TRP8        0.0152
     16  NE1       16.3290   -3.7150   43.4720 N.ar    8  TRP8       -0.2442
     17  CE2       15.4630   -4.1000   44.4650 C.ar    8  TRP8        0.0810
     18  CE3       13.9490   -3.0380   46.0270 C.ar    8  TRP8        0.0012
     19  CZ2       15.1380   -5.3850   44.9470 C.ar    8  TRP8        0.0191
     20  CZ3       13.6150   -4.3160   46.4950 C.ar    8  TRP8        0.0001
     21  CH2       14.1980   -5.4640   45.9450 C.ar    8  TRP8        0.0015
     22  N         15.2310    0.6430   41.6500 N.am    9  ALA9       -0.1977
     23  CA        15.7230    0.3380   40.3010 C.3     9  ALA9        0.1597
     24  C         17.1420   -0.1450   40.3750 C.2     9  ALA9        0.2287
     25  O         17.9520    0.4310   41.0820 O.2     9  ALA9       -0.2864
     26  CB        15.6600    1.5730   39.3870 C.3     9  ALA9        0.0319
     27  N         22.5630   -0.1480   42.3330 N.3    16  ILE16      -0.1231
     28  CA        21.5370    0.8830   42.4760 C.3    16  ILE16       0.1692
     29  C         22.1040    2.2980   42.5590 C.2    16  ILE16       0.2592
     30  O         21.3830    3.2740   42.2990 O.2    16  ILE16      -0.2718
     31  CB        20.5760    0.6590   43.6980 C.3    16  ILE16       0.0266
     32  CG1       21.2980    0.8370   45.0390 C.3    16  ILE16       0.0019
     33  CG2       19.9120   -0.7430   43.6530 C.3    16  ILE16       0.0020
     34  CD1       20.3350    0.8330   46.2730 C.3    16  ILE16       0.0001
     35  N         23.3720    2.4200   42.8770 N.am   17  GLY17      -0.1957
     36  CA        23.9650    3.7240   43.0140 C.3    17  GLY17       0.1869
     37  C         25.4510    3.7040   42.8490 C.2    17  GLY17       0.2309
     38  O         26.0920    2.6850   43.0830 O.2    17  GLY17      -0.2863
     39  N         27.4210    8.3290   44.7320 N.3    20  GLY20      -0.1210
     40  CA        26.3970    9.0170   45.4870 C.3    20  GLY20       0.1956
     41  C         25.1920    9.4530   44.6730 C.2    20  GLY20       0.2612
     42  O         24.4360   10.3190   45.1250 O.2    20  GLY20      -0.2717
     43  N         25.0020    8.8560   43.4930 N.am   21  ASP21      -0.1959
     44  CA        23.9480    9.2310   42.5800 C.3    21  ASP21       0.1840
     45  C         23.4090    7.9640   41.8910 C.2    21  ASP21       0.2621
     46  O         23.9280    6.8860   42.1100 O.2    21  ASP21      -0.2715
     47  CB        24.4970   10.1940   41.5230 C.3    21  ASP21       0.1450
     48  CG        24.8440   11.5610   42.0890 C.2    21  ASP21       0.3671
     49  OD1       24.2170   11.9890   43.0960 O.co2  21  ASP21      -0.2456
     50  OD2       25.7330   12.2280   41.5160 O.co2  21  ASP21      -0.2456
     51  N         22.3710    8.1160   41.0760 N.am   22  ILE22      -0.1977
     52  CA        21.8600    7.0140   40.2540 C.3    22  ILE22       0.1596
     53  C         22.5270    7.0840   38.8790 C.2    22  ILE22       0.2287
     54  O         22.5710    8.1420   38.2520 O.2    22  ILE22      -0.2864
     55  CB        20.3500    7.0610   40.1580 C.3    22  ILE22       0.0276
     56  CG1       19.7580    6.8250   41.5650 C.3    22  ILE22       0.0022
     57  CG2       19.8590    6.0100   39.1740 C.3    22  ILE22       0.0022
     58  CD1       18.3740    7.2050   41.7200 C.3    22  ILE22       0.0001
     59  N         22.0670    6.1990   35.7480 N.3    24  TRP24      -0.1241
     60  CA        21.3500    6.1180   34.4740 C.3    24  TRP24       0.1605
     61  C         20.2560    7.1700   34.5060 C.2    24  TRP24       0.2264
     62  O         20.0340    7.8120   35.5270 O.2    24  TRP24      -0.2867
     63  CB        20.7050    4.7340   34.2670 C.3    24  TRP24       0.0550
     64  CG        19.8540    4.3100   35.4360 C.ar   24  TRP24       0.0003
     65  CD1       18.6490    4.8100   35.7990 C.ar   24  TRP24       0.0946
     66  CD2       20.1970    3.3490   36.4190 C.ar   24  TRP24       0.0152
     67  NE1       18.2060    4.2190   36.9530 N.ar   24  TRP24      -0.2442
     68  CE2       19.1350    3.2950   37.3450 C.ar   24  TRP24       0.0810
     69  CE3       21.2890    2.5130   36.6150 C.ar   24  TRP24       0.0012
     70  CZ2       19.1760    2.4690   38.4550 C.ar   24  TRP24       0.0191
     71  CZ3       21.3080    1.6840   37.7040 C.ar   24  TRP24       0.0001
     72  CH2       20.2810    1.6780   38.6130 C.ar   24  TRP24       0.0015
     73  N         17.0150    6.3180   53.8280 N.3    45  GLY45      -0.1210
     74  CA        18.1970    6.5370   54.6390 C.3    45  GLY45       0.1956
     75  C         18.7050    7.9500   54.5020 C.2    45  GLY45       0.2612
     76  O         18.3800    8.6360   53.5570 O.2    45  GLY45      -0.2717
     77  N         19.5510    8.3800   55.4200 N.am   46  ARG46      -0.1965
     78  CA        20.0490    9.7320   55.3630 C.3    46  ARG46       0.1729
     79  C         20.8240   10.0640   54.0740 C.2    46  ARG46       0.2616
     80  O         20.7300   11.2150   53.5530 O.2    46  ARG46      -0.2715
     81  CB        20.8980   10.0430   56.5950 C.3    46  ARG46       0.0348
     82  CG        21.2960   11.4970   56.7820 C.3    46  ARG46       0.0492
     83  CD        22.6710   11.8230   56.1830 C.3    46  ARG46       0.2205
     84  NE        23.7250   11.0150   56.7770 N.pl3  46  ARG46      -0.0865
     85  CZ        24.9760   10.9790   56.3280 C.cat  46  ARG46       0.5346
     86  NH1       25.3340   11.7390   55.3130 N.pl3  46  ARG46       0.1354
     87  NH2       25.8660   10.2020   56.8980 N.pl3  46  ARG46       0.1354
     88  N         21.5840    9.1060   53.5470 N.am   47  ARG47      -0.1963
     89  CA        22.3630    9.3890   52.3410 C.3    47  ARG47       0.1729
     90  C         21.4290    9.5810   51.1480 C.2    47  ARG47       0.2616
     91  O         21.6480   10.4660   50.3330 O.2    47  ARG47      -0.2715
     92  CB        23.4130    8.3100   52.0810 C.3    47  ARG47       0.0348
     93  CG        24.3870    8.2070   53.2300 C.3    47  ARG47       0.0492
     94  CD        25.7970    7.7800   52.8330 C.3    47  ARG47       0.2205
     95  NE        26.4900    7.2120   53.9890 N.pl3  47  ARG47      -0.0865
     96  CZ        26.3480    5.9450   54.3850 C.cat  47  ARG47       0.5346
     97  NH1       25.5430    5.1400   53.7080 N.pl3  47  ARG47       0.1354
     98  NH2       26.9820    5.4840   55.4620 N.pl3  47  ARG47       0.1354
     99  N         20.3660    8.7840   51.0760 N.am   48  THR48      -0.1951
    100  CA        19.3980    8.9230   49.9750 C.3    48  THR48       0.1897
    101  C         18.7220   10.2860   50.0330 C.2    48  THR48       0.2313
    102  O         18.6790   11.0260   49.0340 O.2    48  THR48      -0.2863
    103  CB        18.4140    7.8040   49.9600 C.3    48  THR48       0.1794
    104  OG1       19.1350    6.5920   49.6540 O.3    48  THR48      -0.2208
    105  CG2       17.3070    8.0310   48.9030 C.3    48  THR48       0.0378
    106  N         20.9710   12.7620   48.6340 N.3    51  SER51      -0.1217
    107  CA        21.1890   12.5280   47.2090 C.3    51  SER51       0.1889
    108  C         20.0300   13.0500   46.3520 C.2    51  SER51       0.2288
    109  O         20.1850   13.1770   45.1360 O.2    51  SER51      -0.2866
    110  CB        21.3700   11.0260   46.8960 C.3    51  SER51       0.2089
    111  OG        20.1100   10.3360   46.9020 O.3    51  SER51      -0.2183
    112  N         15.8500    8.1740   57.9490 N.3    67  VAL67      -0.1231
    113  CA        16.4590    7.3240   58.9810 C.3    67  VAL67       0.1692
    114  C         17.9520    7.6520   59.1540 C.2    67  VAL67       0.2593
    115  O         18.7310    7.5980   58.2010 O.2    67  VAL67      -0.2718
    116  CB        16.2650    5.8450   58.6410 C.3    67  VAL67       0.0266
    117  CG1       16.8470    4.9380   59.7290 C.3    67  VAL67       0.0020
    118  CG2       14.7760    5.5380   58.4140 C.3    67  VAL67       0.0020
    119  N         18.3220    7.9790   60.3850 N.am   68  SER68      -0.1938
    120  CA        19.6680    8.3170   60.7320 C.3    68  SER68       0.2055
    121  C         19.9700    7.7570   62.1310 C.2    68  SER68       0.2643
    122  O         19.0600    7.5910   62.9110 O.2    68  SER68      -0.2714
    123  CB        19.8200    9.8420   60.7610 C.3    68  SER68       0.2130
    124  OG        21.1370   10.1900   61.1720 O.3    68  SER68      -0.2179
    125  N         21.2370    7.5030   62.4440 N.am   69  ARG69      -0.1963
    126  CA        21.6170    7.1280   63.8110 C.3    69  ARG69       0.1729
    127  C         21.7540    8.3610   64.6700 C.2    69  ARG69       0.2616
    128  O         21.9040    8.2490   65.8870 O.2    69  ARG69      -0.2715
    129  CB        22.9150    6.3300   63.8370 C.3    69  ARG69       0.0348
    130  CG        22.8100    4.9700   63.1560 C.3    69  ARG69       0.0492
    131  CD        23.9900    4.0860   63.5350 C.3    69  ARG69       0.2205
    132  NE        23.9870    2.7480   62.9110 N.pl3  69  ARG69      -0.0865
    133  CZ        24.3910    2.4720   61.6710 C.cat  69  ARG69       0.5346
    134  NH1       24.8110    3.4440   60.8500 N.pl3  69  ARG69       0.1354
    135  NH2       24.3510    1.2110   61.2370 N.pl3  69  ARG69       0.1354
    136  N         21.6990    9.5290   64.0350 N.am   70  ARG70      -0.1977
    137  CA        21.8780   10.8050   64.7190 C.3    70  ARG70       0.1597
    138  C         20.5290   11.4720   64.9030 C.2    70  ARG70       0.2287
    139  O         20.0250   12.0910   64.0000 O.2    70  ARG70      -0.2864
    140  CB        22.7750   11.7100   63.8680 C.3    70  ARG70       0.0334
    141  CG        24.0110   11.0120   63.3470 C.3    70  ARG70       0.0492
    142  CD        24.9110   12.0000   62.6740 C.3    70  ARG70       0.2205
    143  NE        24.2400   12.5230   61.4880 N.pl3  70  ARG70      -0.0865
    144  CZ        24.6140   12.2990   60.2340 C.cat  70  ARG70       0.5346
    145  NH1       25.6940   11.5820   59.9460 N.pl3  70  ARG70       0.1354
    146  NH2       23.9020   12.8160   59.2500 N.pl3  70  ARG70       0.1354
    147  N         15.0550    7.1900   64.1950 N.3    82  GLY82      -0.1210
    148  CA        16.3370    6.5520   64.5600 C.3    82  GLY82       0.1956
    149  C         16.4450    5.0730   64.2950 C.2    82  GLY82       0.2612
    150  O         17.4550    4.4410   64.6520 O.2    82  GLY82      -0.2717
    151  N         15.4070    4.5100   63.6720 N.am   83  SER83      -0.1952
    152  CA        15.2930    3.0890   63.4070 C.3    83  SER83       0.1924
    153  C         14.1740    2.8730   62.4180 C.2    83  SER83       0.2314
    154  O         13.3190    3.7580   62.2610 O.2    83  SER83      -0.2863
    155  CB        14.9840    2.3320   64.7100 C.3    83  SER83       0.2116
    156  OG        13.7060    2.7120   65.2240 O.3    83  SER83      -0.2180
    157  N         12.2070    3.5900   50.1420 N.3   100  ILE100     -0.1231
    158  CA        12.6730    4.0770   48.8570 C.3   100  ILE100      0.1692
    159  C         14.2260    4.1350   48.7190 C.2   100  ILE100      0.2593
    160  O         14.7260    4.6520   47.7350 O.2   100  ILE100     -0.2718
    161  CB        12.0010    5.4520   48.4860 C.3   100  ILE100      0.0266
    162  CG1       12.5600    6.5970   49.3470 C.3   100  ILE100      0.0019
    163  CG2       10.4450    5.3790   48.4930 C.3   100  ILE100      0.0020
    164  CD1       12.2500    7.9740   48.8160 C.3   100  ILE100      0.0001
    165  N         14.9550    3.5920   49.7020 N.am  101  GLY101     -0.1942
    166  CA        16.3980    3.3990   49.6050 C.3   101  GLY101      0.2014
    167  C         17.1300    4.0610   50.7310 C.2   101  GLY101      0.2639
    168  O         16.5130    4.7480   51.5270 O.2   101  GLY101     -0.2714
    169  N         18.4520    3.8960   50.8110 N.am  102  GLY102     -0.1939
    170  CA        19.2550    3.2370   49.8100 C.3   102  GLY102      0.2014
    171  C         19.6220    1.8440   50.2550 C.2   102  GLY102      0.2639
    172  O         18.8300    1.1490   50.9070 O.2   102  GLY102     -0.2714
    173  N         20.8110    1.4150   49.8470 N.am  103  ALA103     -0.1963
    174  CA        21.2680    0.0530   50.0620 C.3   103  ALA103      0.1728
    175  C         21.1770   -0.3820   51.5110 C.2   103  ALA103      0.2616
    176  O         20.7220   -1.4920   51.8120 O.2   103  ALA103     -0.2715
    177  CB        22.7110   -0.1350   49.5380 C.3   103  ALA103      0.0334
    178  N         21.6770    0.4580   52.4210 N.am  104  GLN104     -0.1963
    179  CA        21.6470    0.1160   53.8470 C.3   104  GLN104      0.1733
    180  C         20.2110    0.0090   54.3700 C.2   104  GLN104      0.2616
    181  O         19.8650   -0.9380   55.0850 O.2   104  GLN104     -0.2715
    182  CB        22.4540    1.1230   54.6860 C.3   104  GLN104      0.0408
    183  CG        23.9100    1.1120   54.3400 C.3   104  GLN104      0.0908
    184  CD        24.6940    2.1700   55.0700 C.2   104  GLN104      0.2608
    185  OE1       25.6230    2.7480   54.5100 O.2   104  GLN104     -0.2717
    186  NE2       24.3680    2.4090   56.3130 N.am  104  GLN104     -0.0878
    187  N         19.3740    0.9750   54.0230 N.am  105  ILE105     -0.1963
    188  CA        18.0320    0.9860   54.5480 C.3   105  ILE105      0.1727
    189  C         17.2160   -0.1690   53.9510 C.2   105  ILE105      0.2616
    190  O         16.3650   -0.7500   54.6500 O.2   105  ILE105     -0.2715
    191  CB        17.3730    2.3590   54.3370 C.3   105  ILE105      0.0290
    192  CG1       17.5070    3.2030   55.6010 C.3   105  ILE105      0.0022
    193  CG2       15.8990    2.2080   54.0460 C.3   105  ILE105      0.0023
    194  CD1       18.7750    3.2450   56.2290 C.3   105  ILE105      0.0001
    195  N         17.4700   -0.5680   52.7050 N.am  106  TYR106     -0.1974
    196  CA        16.7510   -1.7440   52.1590 C.3   106  TYR106      0.1639
    197  C         17.0150   -2.9860   52.9950 C.2   106  TYR106      0.2290
    198  O         16.0840   -3.7370   53.3030 O.2   106  TYR106     -0.2864
    199  CB        17.0940   -2.0590   50.7060 C.3   106  TYR106      0.0560
    200  CG        16.5500   -1.0510   49.6930 C.ar  106  TYR106     -0.0198
    201  CD1       15.2300   -0.6620   49.6820 C.ar  106  TYR106     -0.0009
    202  CD2       17.3750   -0.5260   48.7230 C.ar  106  TYR106     -0.0009
    203  CE1       14.7560    0.2550   48.7630 C.ar  106  TYR106      0.0417
    204  CE2       16.9260    0.3980   47.7920 C.ar  106  TYR106      0.0417
    205  CZ        15.6030    0.8070   47.8130 C.ar  106  TYR106      0.1957
    206  OH        15.1600    1.7430   46.8810 O.3   106  TYR106     -0.2866
    207  N         17.8630   -3.1530   56.2140 N.3   108  LEU108     -0.1245
    208  CA        17.1200   -3.0070   57.4780 C.3   108  LEU108      0.1561
    209  C         15.6240   -3.3270   57.3550 C.2   108  LEU108      0.2260
    210  O         15.0110   -3.8410   58.2910 O.2   108  LEU108     -0.2867
    211  CB        17.2350   -1.5770   58.0230 C.3   108  LEU108      0.0270
    212  CG        18.4970   -1.2040   58.7480 C.3   108  LEU108      0.0019
    213  CD1       18.3390    0.2530   59.2390 C.3   108  LEU108      0.0001
    214  CD2       18.7460   -2.1430   59.9140 C.3   108  LEU108      0.0001
    215  N         26.5960    1.1230   45.4800 N.3   132  ALA132     -0.1245
    216  CA        25.4990    0.7580   46.3450 C.3   132  ALA132      0.1562
    217  C         24.7600   -0.3640   45.6420 C.2   132  ALA132      0.2260
    218  O         24.4450   -0.2330   44.4460 O.2   132  ALA132     -0.2867
    219  CB        24.5820    1.9500   46.5780 C.3   132  ALA132      0.0290
@<TRIPOS>BOND
     1    63    60    1
     2    63    64    1
     3    60    61    1
     4    60    59    1
     5    61    62    2
     6    64    65   ar
     7    64    66   ar
     8    65    67   ar
     9    66    69   ar
    10    66    68   ar
    11    69    71   ar
    12    67    68   ar
    13    68    70   ar
    14    71    72   ar
    15    54    53    2
    16    70    72   ar
    17    53    52    1
    18    57    55    1
    19    26    23    1
    20    55    52    1
    21    55    56    1
    22    52    51    1
    23    23    24    1
    24    23    22    1
    25    24    25    2
    26    51    45   am
    27    50    48   ar
    28    47    48    1
    29    47    44    1
    30    56    58    1
    31    22    10   am
    32    11    10    2
    33    45    46    2
    34    45    44    1
    35    48    49   ar
    36    10     9    1
    37    30    29    2
    38    27    28    1
    39    28    29    1
    40    28    31    1
    41    29    35   am
    42    44    43    1
    43    37    36    1
    44    37    38    2
    45    35    36    1
    46    14    16   ar
    47    14    13   ar
    48    16    17   ar
    49    43    41   am
    50    33    31    1
    51    31    32    1
    52     9     8    1
    53     9    12    1
    54     7     5    1
    55     8     3   am
    56    13    12    1
    57    13    15   ar
    58   218   217    2
    59    17    19   ar
    60    17    15   ar
    61    41    42    2
    62    41    40    1
    63    39    40    1
    64    19    21   ar
    65    15    18   ar
    66    32    34    1
    67   109   108    2
    68     3     2    1
    69     3     4    2
    70     5     2    1
    71     5     6    1
    72   215   216    1
    73   217   216    1
    74     2     1    1
    75    21    20   ar
    76    18    20   ar
    77   216   219    1
    78   108   107    1
    79   206   205    1
    80   110   111    1
    81   110   107    1
    82   107   106    1
    83   160   159    2
    84   204   205   ar
    85   204   202   ar
    86   205   203   ar
    87   161   163    1
    88   161   158    1
    89   161   162    1
    90   159   158    1
    91   159   165   am
    92   202   200   ar
    93   203   201   ar
    94   164   162    1
    95   158   157    1
    96   105   103    1
    97   102   101    2
    98   177   174    1
    99   166   165    1
   100   166   167    1
   101   104   103    1
   102   201   200   ar
   103   200   199    1
   104   170   171    1
   105   170   169    1
   106   173   174    1
   107   173   171   am
   108   103   100    1
   109   100   101    1
   110   100    99    1
   111   174   175    1
   112   171   172    2
   113    91    90    2
   114   199   196    1
   115   167   169   am
   116   167   168    2
   117    99    90   am
   118    90    89    1
   119   175   176    2
   120   175   178   am
   121    92    89    1
   122    92    93    1
   123   196   195    1
   124   196   197    1
   125    89    88    1
   126   178   179    1
   127   195   189   am
   128    94    93    1
   129    94    95    1
   130   197   198    2
   131    88    79   am
   132    80    79    2
   133    76    75    2
   134    97    96    1
   135    73    74    1
   136   179   180    1
   137   179   182    1
   138   189   188    1
   139   189   190    2
   140    95    96    2
   141   187   180   am
   142   187   188    1
   143   193   191    1
   144    79    78    1
   145   191   188    1
   146   191   192    1
   147   183   182    1
   148   183   184    1
   149   180   181    2
   150    96    98    1
   151    75    74    1
   152    75    77   am
   153   185   184    2
   154   184   186   am
   155    86    85    1
   156    78    77    1
   157    78    81    1
   158   192   194    1
   159    83    84    1
   160    83    82    1
   161   207   208    1
   162    85    84    2
   163    85    87    1
   164    81    82    1
   165   209   208    1
   166   209   210    2
   167   208   211    1
   168   112   113    1
   169   211   212    1
   170   115   114    2
   171   118   116    1
   172   116   113    1
   173   116   117    1
   174   212   213    1
   175   212   214    1
   176   113   114    1
   177   114   119   am
   178   146   144    1
   179   145   144    1
   180   144   143    2
   181   119   120    1
   182   120   123    1
   183   120   121    1
   184   123   124    1
   185   134   133    1
   186   135   133    1
   187   143   142    1
   188   133   132    2
   189   121   125   am
   190   121   122    2
   191   154   153    2
   192   153   152    1
   193   125   126    1
   194   142   141    1
   195   132   131    1
   196   130   131    1
   197   130   129    1
   198   141   140    1
   199   152   151    1
   200   152   155    1
   201   151   149   am
   202   126   129    1
   203   126   127    1
   204   140   137    1
   205   139   138    2
   206   136   127   am
   207   136   137    1
   208   147   148    1
   209   149   148    1
   210   149   150    2
   211   127   128    2
   212   155   156    1
   213   137   138    1
