@<TRIPOS>MOLECULE
tmp/2w3wA00.pdb
 183 178 0 0 0
SMALL
GASTEIGER

@<TRIPOS>ATOM
      1  N         10.8240   -0.2650   47.0820 N.3     7  VAL7       -0.1231
      2  CA        10.7700    0.0790   45.6630 C.3     7  VAL7        0.1692
      3  C         12.1690    0.5510   45.2760 C.2     7  VAL7        0.2592
      4  O         12.7190    1.4150   45.9230 O.2     7  VAL7       -0.2718
      5  CB         9.6710    1.1010   45.3410 C.3     7  VAL7        0.0266
      6  CG1        9.7950    2.4070   46.2330 C.3     7  VAL7        0.0020
      7  CG2        9.7440    1.4650   43.8590 C.3     7  VAL7        0.0020
      8  N         12.7530   -0.0780   44.2640 N.am    8  TRP8       -0.1962
      9  CA        14.0620    0.3180   43.7440 C.3     8  TRP8        0.1771
     10  C         14.2200    0.0270   42.2560 C.2     8  TRP8        0.2619
     11  O         13.4470   -0.7650   41.7070 O.2     8  TRP8       -0.2715
     12  CB        15.1960   -0.3580   44.5280 C.3     8  TRP8        0.0590
     13  CG        15.4410   -1.8180   44.2820 C.ar    8  TRP8        0.0006
     14  CD1       16.3420   -2.3490   43.3910 C.ar    8  TRP8        0.0946
     15  CD2       14.8920   -2.9210   45.0040 C.ar    8  TRP8        0.0152
     16  NE1       16.3290   -3.7150   43.4720 N.ar    8  TRP8       -0.2442
     17  CE2       15.4630   -4.1000   44.4650 C.ar    8  TRP8        0.0810
     18  CE3       13.9490   -3.0380   46.0270 C.ar    8  TRP8        0.0012
     19  CZ2       15.1380   -5.3850   44.9470 C.ar    8  TRP8        0.0191
     20  CZ3       13.6150   -4.3160   46.4950 C.ar    8  TRP8        0.0001
     21  CH2       14.1980   -5.4640   45.9450 C.ar    8  TRP8        0.0015
     22  N         15.2310    0.6430   41.6500 N.am    9  ALA9       -0.1977
     23  CA        15.7230    0.3380   40.3010 C.3     9  ALA9        0.1597
     24  C         17.1420   -0.1450   40.3750 C.2     9  ALA9        0.2287
     25  O         17.9520    0.4310   41.0820 O.2     9  ALA9       -0.2864
     26  CB        15.6600    1.5730   39.3870 C.3     9  ALA9        0.0319
     27  N         22.3710    8.1160   41.0760 N.3    22  ILE22      -0.1245
     28  CA        21.8600    7.0140   40.2540 C.3    22  ILE22       0.1561
     29  C         22.5270    7.0840   38.8790 C.2    22  ILE22       0.2260
     30  O         22.5710    8.1420   38.2520 O.2    22  ILE22      -0.2867
     31  CB        20.3500    7.0610   40.1580 C.3    22  ILE22       0.0252
     32  CG1       19.7580    6.8250   41.5650 C.3    22  ILE22       0.0019
     33  CG2       19.8590    6.0100   39.1740 C.3    22  ILE22       0.0019
     34  CD1       18.3740    7.2050   41.7200 C.3    22  ILE22       0.0001
     35  N         22.0670    6.1990   35.7480 N.3    24  TRP24      -0.1241
     36  CA        21.3500    6.1180   34.4740 C.3    24  TRP24       0.1605
     37  C         20.2560    7.1700   34.5060 C.2    24  TRP24       0.2264
     38  O         20.0340    7.8120   35.5270 O.2    24  TRP24      -0.2867
     39  CB        20.7050    4.7340   34.2670 C.3    24  TRP24       0.0550
     40  CG        19.8540    4.3100   35.4360 C.ar   24  TRP24       0.0003
     41  CD1       18.6490    4.8100   35.7990 C.ar   24  TRP24       0.0946
     42  CD2       20.1970    3.3490   36.4190 C.ar   24  TRP24       0.0152
     43  NE1       18.2060    4.2190   36.9530 N.ar   24  TRP24      -0.2442
     44  CE2       19.1350    3.2950   37.3450 C.ar   24  TRP24       0.0810
     45  CE3       21.2890    2.5130   36.6150 C.ar   24  TRP24       0.0012
     46  CZ2       19.1760    2.4690   38.4550 C.ar   24  TRP24       0.0191
     47  CZ3       21.3080    1.6840   37.7040 C.ar   24  TRP24       0.0001
     48  CH2       20.2810    1.6780   38.6130 C.ar   24  TRP24       0.0015
     49  N         11.1030    4.7930   34.5010 N.3    29  ASP29      -0.1225
     50  CA        11.2830    4.3110   35.8600 C.3    29  ASP29       0.1805
     51  C         10.8870    5.3930   36.8410 C.2    29  ASP29       0.2597
     52  O         10.2550    5.1220   37.8500 O.2    29  ASP29      -0.2718
     53  CB        12.7120    3.9020   36.1430 C.3    29  ASP29       0.1424
     54  CG        12.9460    3.6070   37.6350 C.2    29  ASP29       0.3668
     55  OD1       12.3260    2.6510   38.1630 O.co2  29  ASP29      -0.2456
     56  OD2       13.7380    4.3320   38.2790 O.co2  29  ASP29      -0.2456
     57  N         11.2670    6.6310   36.5540 N.am   30  LEU30      -0.1979
     58  CA        10.8470    7.7100   37.4330 C.3    30  LEU30       0.1596
     59  C          9.3200    7.8020   37.4700 C.2    30  LEU30       0.2287
     60  O          8.7240    8.0340   38.5160 O.2    30  LEU30      -0.2864
     61  CB        11.4640    9.0310   36.9900 C.3    30  LEU30       0.0297
     62  CG        11.3350   10.1260   38.0400 C.3    30  LEU30       0.0022
     63  CD1       12.1400    9.8150   39.2750 C.3    30  LEU30       0.0001
     64  CD2       11.7560   11.4500   37.4280 C.3    30  LEU30       0.0001
     65  N          7.1810    5.3140   37.0570 N.3    32  ARG32      -0.1231
     66  CA         6.7620    4.1950   37.8990 C.3    32  ARG32       0.1694
     67  C          6.9370    4.5220   39.3790 C.2    32  ARG32       0.2592
     68  O          6.0490    4.2840   40.1980 O.2    32  ARG32      -0.2718
     69  CB         7.5960    2.9750   37.5300 C.3    32  ARG32       0.0321
     70  CG         7.2830    1.6990   38.3120 C.3    32  ARG32       0.0489
     71  CD         6.0470    1.0230   37.8280 C.3    32  ARG32       0.2205
     72  NE         5.7410   -0.0790   38.7540 N.pl3  32  ARG32      -0.0865
     73  CZ         4.5190   -0.5150   39.0520 C.cat  32  ARG32       0.5346
     74  NH1        3.4330    0.0400   38.5230 N.pl3  32  ARG32       0.1354
     75  NH2        4.3820   -1.5090   39.9210 N.pl3  32  ARG32       0.1354
     76  N          8.1090    5.0240   39.7380 N.am   33  PHE33      -0.1962
     77  CA         8.3980    5.3530   41.1150 C.3    33  PHE33       0.1771
     78  C          7.4110    6.3640   41.6830 C.2    33  PHE33       0.2619
     79  O          6.9370    6.2190   42.8010 O.2    33  PHE33      -0.2715
     80  CB         9.7860    5.9510   41.2260 C.3    33  PHE33       0.0574
     81  CG        10.0770    6.5170   42.5610 C.ar   33  PHE33      -0.0200
     82  CD1       10.2290    5.6900   43.6570 C.ar   33  PHE33      -0.0042
     83  CD2       10.2720    7.8880   42.7230 C.ar   33  PHE33      -0.0042
     84  CE1       10.5230    6.2040   44.8870 C.ar   33  PHE33      -0.0003
     85  CE2       10.5790    8.4080   43.9600 C.ar   33  PHE33      -0.0003
     86  CZ        10.7020    7.5670   45.0390 C.ar   33  PHE33      -0.0000
     87  N          7.1210    7.4030   40.9070 N.am   34  LYS34      -0.1977
     88  CA         6.1130    8.3800   41.2840 C.3    34  LYS34       0.1596
     89  C          4.7500    7.7330   41.4710 C.2    34  LYS34       0.2287
     90  O          4.0550    8.0340   42.4370 O.2    34  LYS34      -0.2864
     91  CB         6.0130    9.4860   40.2490 C.3    34  LYS34       0.0298
     92  CG         7.1550   10.4380   40.2240 C.3    34  LYS34       0.0038
     93  CD         7.0100   11.4240   39.0570 C.3    34  LYS34       0.0206
     94  CE         8.3180   12.1040   38.7380 C.3    34  LYS34       0.1093
     95  NZ         8.1570   13.1590   37.6880 N.3    34  LYS34      -0.1314
     96  N         20.3660    8.7840   51.0760 N.3    48  THR48      -0.1218
     97  CA        19.3980    8.9230   49.9750 C.3    48  THR48       0.1862
     98  C         18.7220   10.2860   50.0330 C.2    48  THR48       0.2287
     99  O         18.6790   11.0260   49.0340 O.2    48  THR48      -0.2866
    100  CB        18.4140    7.8040   49.9600 C.3    48  THR48       0.1770
    101  OG1       19.1350    6.5920   49.6540 O.3    48  THR48      -0.2211
    102  CG2       17.3070    8.0310   48.9030 C.3    48  THR48       0.0375
    103  N         20.9710   12.7620   48.6340 N.3    51  SER51      -0.1202
    104  CA        21.1890   12.5280   47.2090 C.3    51  SER51       0.2020
    105  C         20.0300   13.0500   46.3520 C.2    51  SER51       0.2619
    106  O         20.1850   13.1770   45.1360 O.2    51  SER51      -0.2717
    107  CB        21.3700   11.0260   46.8960 C.3    51  SER51       0.2103
    108  OG        20.1100   10.3360   46.9020 O.3    51  SER51      -0.2182
    109  N         18.8620   13.2930   46.9490 N.am   52  LEU52      -0.1966
    110  CA        17.7290   13.7510   46.1420 C.3    52  LEU52       0.1713
    111  C         18.0250   15.1360   45.5390 C.2    52  LEU52       0.2458
    112  O         18.6610   15.9790   46.1590 O.2    52  LEU52      -0.2730
    113  CB        16.4380   13.8130   46.9560 C.3    52  LEU52       0.0310
    114  CG        15.8770   12.5260   47.5410 C.3    52  LEU52       0.0022
    115  CD1       14.6940   12.8760   48.4090 C.3    52  LEU52       0.0001
    116  CD2       15.4690   11.5320   46.4680 C.3    52  LEU52       0.0001
    117  N         17.5700   15.3640   44.2950 N.am   53  PRO53      -0.2727
    118  CA        17.6730   16.7050   43.7600 C.3    53  PRO53       0.1402
    119  C         16.8830   17.6800   44.6540 C.2    53  PRO53       0.2269
    120  O         15.7850   17.3340   45.1200 O.2    53  PRO53      -0.2865
    121  CB        17.0310   16.5780   42.3770 C.3    53  PRO53       0.0296
    122  CG        16.9930   15.1780   42.0500 C.3    53  PRO53       0.0237
    123  CD        16.9630   14.4190   43.3400 C.3    53  PRO53       0.0939
    124  N         13.1240   18.3960   44.2890 N.3    56  VAL56      -0.1245
    125  CA        12.1220   17.3870   44.6880 C.3    56  VAL56       0.1561
    126  C         12.3290   16.9140   46.1270 C.2    56  VAL56       0.2260
    127  O         11.9980   15.7850   46.4650 O.2    56  VAL56      -0.2867
    128  CB        12.1400   16.1540   43.7580 C.3    56  VAL56       0.0252
    129  CG1       11.7780   16.5690   42.3160 C.3    56  VAL56       0.0019
    130  CG2       13.4980   15.4320   43.8250 C.3    56  VAL56       0.0019
    131  N          9.9380   15.1000   48.9360 N.3    59  LEU59      -0.1231
    132  CA         9.1110   14.6290   47.8160 C.3    59  LEU59       0.1678
    133  C          7.6550   15.0580   48.0290 C.2    59  LEU59       0.2434
    134  O          7.0760   14.7840   49.0700 O.2    59  LEU59      -0.2733
    135  CB         9.2270   13.0930   47.6980 C.3    59  LEU59       0.0284
    136  CG        10.6510   12.5470   47.4400 C.3    59  LEU59       0.0019
    137  CD1       10.7290   11.0320   47.6470 C.3    59  LEU59       0.0001
    138  CD2       11.1610   12.8880   46.0470 C.3    59  LEU59       0.0001
    139  N          7.0510   15.7780   47.0550 N.am   60  PRO60      -0.2729
    140  CA         5.7190   16.3350   47.3140 C.3    60  PRO60       0.1401
    141  C          4.5790   15.3120   47.3880 C.2    60  PRO60       0.2269
    142  O          4.6040   14.3060   46.6760 O.2    60  PRO60      -0.2865
    143  CB         5.5030   17.2780   46.1360 C.3    60  PRO60       0.0296
    144  CG         6.3730   16.7800   45.0700 C.3    60  PRO60       0.0237
    145  CD         7.5430   16.1060   45.7040 C.3    60  PRO60       0.0939
    146  N          3.8290   13.2410   49.6690 N.3    62  ARG62      -0.1245
    147  CA         4.2070   12.0500   50.3920 C.3    62  ARG62       0.1563
    148  C          4.7570   12.4800   51.7390 C.2    62  ARG62       0.2260
    149  O          5.3590   13.5460   51.8530 O.2    62  ARG62      -0.2867
    150  CB         5.3100   11.3500   49.6220 C.3    62  ARG62       0.0307
    151  CG         4.9090   10.8220   48.2630 C.3    62  ARG62       0.0489
    152  CD         6.0810   10.7920   47.3230 C.3    62  ARG62       0.2205
    153  NE         5.6740   10.4090   45.9780 N.pl3  62  ARG62      -0.0865
    154  CZ         5.4950   11.2310   44.9470 C.cat  62  ARG62       0.5346
    155  NH1        5.7130   12.5520   45.0260 N.pl3  62  ARG62       0.1354
    156  NH2        5.1040   10.7190   43.8040 N.pl3  62  ARG62       0.1354
    157  N         12.2070    3.5900   50.1420 N.3   100  ILE100     -0.1245
    158  CA        12.6730    4.0770   48.8570 C.3   100  ILE100      0.1561
    159  C         14.2260    4.1350   48.7190 C.2   100  ILE100      0.2260
    160  O         14.7260    4.6520   47.7350 O.2   100  ILE100     -0.2867
    161  CB        12.0010    5.4520   48.4860 C.3   100  ILE100      0.0252
    162  CG1       12.5600    6.5970   49.3470 C.3   100  ILE100      0.0019
    163  CG2       10.4450    5.3790   48.4930 C.3   100  ILE100      0.0019
    164  CD1       12.2500    7.9740   48.8160 C.3   100  ILE100      0.0001
    165  N         17.4700   -0.5680   52.7050 N.3   106  TYR106     -0.1241
    166  CA        16.7510   -1.7440   52.1590 C.3   106  TYR106      0.1605
    167  C         17.0150   -2.9860   52.9950 C.2   106  TYR106      0.2264
    168  O         16.0840   -3.7370   53.3030 O.2   106  TYR106     -0.2867
    169  CB        17.0940   -2.0590   50.7060 C.3   106  TYR106      0.0534
    170  CG        16.5500   -1.0510   49.6930 C.ar  106  TYR106     -0.0201
    171  CD1       15.2300   -0.6620   49.6820 C.ar  106  TYR106     -0.0009
    172  CD2       17.3750   -0.5260   48.7230 C.ar  106  TYR106     -0.0009
    173  CE1       14.7560    0.2550   48.7630 C.ar  106  TYR106      0.0417
    174  CE2       16.9260    0.3980   47.7920 C.ar  106  TYR106      0.0417
    175  CZ        15.6030    0.8070   47.8130 C.ar  106  TYR106      0.1957
    176  OH        15.1600    1.7430   46.8810 O.3   106  TYR106     -0.2866
    177  N         12.5040   -2.2180   39.3460 N.3   119  THR119     -0.1218
    178  CA        12.7730   -1.9890   37.9340 C.3   119  THR119      0.1862
    179  C         14.1540   -2.5170   37.6040 C.2   119  THR119      0.2287
    180  O         15.1050   -2.2180   38.3310 O.2   119  THR119     -0.2866
    181  CB        12.7340   -0.5110   37.6010 C.3   119  THR119      0.1770
    182  OG1       11.5050    0.0580   38.0640 O.3   119  THR119     -0.2211
    183  CG2       12.9250   -0.2570   36.0770 C.3   119  THR119      0.0375
@<TRIPOS>BOND
     1    39    36    1
     2    39    40    1
     3    36    37    1
     4    36    35    1
     5    49    50    1
     6    37    38    2
     7    40    41   ar
     8    40    42   ar
     9    41    43   ar
    10    50    53    1
    11    50    51    1
    12   183   181    1
    13    53    54    1
    14    42    45   ar
    15    42    44   ar
    16    57    51   am
    17    57    58    1
    18    45    47   ar
    19    51    52    2
    20    43    44   ar
    21    61    58    1
    22    61    62    1
    23    65    66    1
    24    44    46   ar
    25    64    62    1
    26    58    59    1
    27    59    60    2
    28    69    66    1
    29    69    70    1
    30   181   178    1
    31   181   182    1
    32   179   178    1
    33   179   180    2
    34    54    55   ar
    35    54    56   ar
    36    95    94    1
    37    47    48   ar
    38    71    70    1
    39    71    72    1
    40    66    67    1
    41   178   177    1
    42    62    63    1
    43    30    29    2
    44    46    48   ar
    45    74    73    1
    46    94    93    1
    47    72    73    2
    48    29    28    1
    49    73    75    1
    50    93    92    1
    51    33    31    1
    52    67    76   am
    53    67    68    2
    54    26    23    1
    55    76    77    1
    56    31    28    1
    57    31    32    1
    58    92    91    1
    59    91    88    1
    60    28    27    1
    61    23    24    1
    62    23    22    1
    63    24    25    2
    64    87    88    1
    65    87    78   am
    66    77    80    1
    67    77    78    1
    68    80    81    1
    69    88    89    1
    70    89    90    2
    71    32    34    1
    72    22    10   am
    73    78    79    2
    74    11    10    2
    75   122   121    1
    76   122   123    1
    77    10     9    1
    78   129   128    1
    79   121   118    1
    80    81    83   ar
    81    81    82   ar
    82    83    85   ar
    83   123   117    1
    84    14    16   ar
    85    14    13   ar
    86    16    17   ar
    87    82    84   ar
    88     9     8    1
    89     9    12    1
    90   128   130    1
    91   128   125    1
    92   118   117    1
    93   118   119    1
    94   156   154    1
    95     7     5    1
    96    85    86   ar
    97     8     3   am
    98    13    12    1
    99    13    15   ar
   100   124   125    1
   101   117   111   am
   102    17    19   ar
   103    17    15   ar
   104   119   120    2
   105   125   126    1
   106    84    86   ar
   107    19    21   ar
   108   154   155    1
   109   154   153    2
   110    15    18   ar
   111   144   145    1
   112   144   143    1
   113   106   105    2
   114     3     2    1
   115     3     4    2
   116     5     2    1
   117     5     6    1
   118   111   110    1
   119   111   112    2
   120     2     1    1
   121   145   139    1
   122    21    20   ar
   123   153   152    1
   124    18    20   ar
   125   138   136    1
   126   126   127    2
   127   143   140    1
   128   110   109    1
   129   110   113    1
   130   105   109   am
   131   105   104    1
   132   116   114    1
   133   142   141    2
   134   176   175    1
   135   107   108    1
   136   107   104    1
   137   113   114    1
   138   139   140    1
   139   139   133   am
   140   104   103    1
   141   140   141    1
   142   152   151    1
   143   136   137    1
   144   136   135    1
   145   114   115    1
   146   135   132    1
   147   160   159    2
   148   174   175   ar
   149   174   172   ar
   150   175   173   ar
   151   132   133    1
   152   132   131    1
   153   133   134    2
   154   151   150    1
   155   161   163    1
   156   161   158    1
   157   161   162    1
   158   159   158    1
   159   172   170   ar
   160   173   171   ar
   161   164   162    1
   162   158   157    1
   163   102   100    1
   164    99    98    2
   165   150   147    1
   166   101   100    1
   167   146   147    1
   168   171   170   ar
   169   170   169    1
   170   100    97    1
   171    97    98    1
   172    97    96    1
   173   147   148    1
   174   169   166    1
   175   148   149    2
   176   166   165    1
   177   166   167    1
   178   167   168    2
