@<TRIPOS>MOLECULE
tmp/2w3yA00.pdb
 202 193 0 0 0
SMALL
GASTEIGER

@<TRIPOS>ATOM
      1  N         17.5720   -3.2760    7.4380 N.3   106  LEU106     -0.1245
      2  CA        17.3640   -4.6540    7.8590 C.3   106  LEU106      0.1561
      3  C         17.5890   -5.5540    6.6410 C.2   106  LEU106      0.2260
      4  O         16.7260   -5.6540    5.7610 O.2   106  LEU106     -0.2867
      5  CB        15.9630   -4.8490    8.4690 C.3   106  LEU106      0.0270
      6  CG        15.5560   -6.2320    9.0110 C.3   106  LEU106      0.0019
      7  CD1       16.6690   -6.8700    9.8480 C.3   106  LEU106      0.0001
      8  CD2       14.2670   -6.1320    9.8310 C.3   106  LEU106      0.0001
      9  N         10.9500  -14.1640   12.3470 N.3   115  VAL115     -0.1245
     10  CA        10.7210  -12.7840   11.8720 C.3   115  VAL115      0.1561
     11  C         10.3580  -11.8120   13.0060 C.2   115  VAL115      0.2260
     12  O         10.8870  -10.7010   13.0640 O.2   115  VAL115     -0.2867
     13  CB         9.6150  -12.7060   10.7800 C.3   115  VAL115      0.0252
     14  CG1        9.2110  -11.2560   10.5130 C.3   115  VAL115      0.0019
     15  CG2       10.0740  -13.3620    9.4960 C.3   115  VAL115      0.0019
     16  N         12.3600   -8.3660   14.1450 N.3   119  VAL119     -0.1245
     17  CA        11.7310   -7.0360   14.2910 C.3   119  VAL119      0.1561
     18  C         12.0630   -6.3840   15.6420 C.2   119  VAL119      0.2260
     19  O         12.4910   -5.2370   15.6730 O.2   119  VAL119     -0.2867
     20  CB        10.1870   -7.0640   14.0430 C.3   119  VAL119      0.0252
     21  CG1        9.5430   -5.7140   14.3540 C.3   119  VAL119      0.0019
     22  CG2        9.8720   -7.4670   12.5950 C.3   119  VAL119      0.0019
     23  N         15.8440   -5.4580   15.9070 N.3   122  PHE122     -0.1227
     24  CA        16.1120   -4.2830   15.0670 C.3   122  PHE122      0.1736
     25  C         15.4920   -3.0130   15.6720 C.2   122  PHE122      0.2595
     26  O         16.1200   -1.9790   15.6810 O.2   122  PHE122     -0.2718
     27  CB        15.6090   -4.5150   13.6370 C.3   122  PHE122      0.0547
     28  CG        15.7890   -3.3210   12.7130 C.ar  122  PHE122     -0.0202
     29  CD1       17.0240   -3.0710   12.1040 C.ar  122  PHE122     -0.0042
     30  CD2       14.7190   -2.4590   12.4490 C.ar  122  PHE122     -0.0042
     31  CE1       17.1980   -1.9700   11.2410 C.ar  122  PHE122     -0.0003
     32  CE2       14.8820   -1.3460   11.5890 C.ar  122  PHE122     -0.0003
     33  CZ        16.1130   -1.1060   10.9910 C.ar  122  PHE122     -0.0000
     34  N         14.2810   -3.1210   16.2140 N.am  123  ALA123     -0.1980
     35  CA        13.5540   -1.9800   16.7870 C.3   123  ALA123      0.1597
     36  C         14.2510   -1.4000   18.0140 C.2   123  ALA123      0.2287
     37  O         14.2110   -0.1910   18.2330 O.2   123  ALA123     -0.2864
     38  CB        12.1090   -2.3810   17.1340 C.3   123  ALA123      0.0319
     39  N          1.9270  -10.3280   16.2490 N.3   138  LEU138     -0.1231
     40  CA         2.3470   -9.9150   14.9110 C.3   138  LEU138      0.1693
     41  C          1.7510  -10.8470   13.8730 C.2   138  LEU138      0.2591
     42  O          1.3140  -10.4080   12.7990 O.2   138  LEU138     -0.2718
     43  CB         3.8800   -9.8600   14.8030 C.3   138  LEU138      0.0284
     44  CG         4.4970   -9.1180   13.6120 C.3   138  LEU138      0.0019
     45  CD1        4.2650   -7.5990   13.6860 C.3   138  LEU138      0.0001
     46  CD2        5.9800   -9.4580   13.4600 C.3   138  LEU138      0.0001
     47  N          1.7090  -12.1370   14.2130 N.am  139  GLN139     -0.1979
     48  CA         1.1360  -13.1460   13.3430 C.3   139  GLN139      0.1601
     49  C         -0.3370  -12.8480   13.0470 C.2   139  GLN139      0.2287
     50  O         -0.7650  -12.8460   11.8640 O.2   139  GLN139     -0.2864
     51  CB         1.3410  -14.5430   13.9530 C.3   139  GLN139      0.0394
     52  CG         0.6870  -15.6730   13.1950 C.3   139  GLN139      0.0908
     53  CD         1.2240  -17.0260   13.6190 C.2   139  GLN139      0.2608
     54  OE1        1.1970  -17.3910   14.8060 O.2   139  GLN139     -0.2717
     55  NE2        1.7180  -17.7800   12.6500 N.am  139  GLN139     -0.0878
     56  N         -1.9330   -9.9260   13.5900 N.3   141  PHE141     -0.1227
     57  CA        -2.0130   -8.6380   12.9100 C.3   141  PHE141      0.1736
     58  C         -1.6630   -8.7740   11.4160 C.2   141  PHE141      0.2596
     59  O         -2.2490   -8.0920   10.5730 O.2   141  PHE141     -0.2718
     60  CB        -1.1320   -7.5830   13.5770 C.3   141  PHE141      0.0547
     61  CG        -1.3640   -6.1940   13.0410 C.ar  141  PHE141     -0.0202
     62  CD1       -2.5290   -5.4960   13.3650 C.ar  141  PHE141     -0.0042
     63  CD2       -0.4460   -5.6040   12.1800 C.ar  141  PHE141     -0.0042
     64  CE1       -2.7640   -4.2190   12.8500 C.ar  141  PHE141     -0.0003
     65  CE2       -0.6740   -4.3070   11.6640 C.ar  141  PHE141     -0.0003
     66  CZ        -1.8260   -3.6240   12.0030 C.ar  141  PHE141     -0.0000
     67  N         -0.7060   -9.6480   11.1120 N.am  142  GLY142     -0.1957
     68  CA        -0.2850   -9.9020    9.7280 C.3   142  GLY142      0.1869
     69  C         -1.4210  -10.2890    8.7850 C.2   142  GLY142      0.2309
     70  O         -1.3690   -9.9780    7.5960 O.2   142  GLY142     -0.2863
     71  N         -2.9800   -6.9610    7.8250 N.3   145  LEU145     -0.1245
     72  CA        -2.0000   -6.2240    7.0450 C.3   145  LEU145      0.1561
     73  C         -1.9360   -6.7440    5.6120 C.2   145  LEU145      0.2260
     74  O         -1.9540   -5.9600    4.6480 O.2   145  LEU145     -0.2867
     75  CB        -0.6360   -6.3480    7.7220 C.3   145  LEU145      0.0270
     76  CG         0.4800   -5.3250    7.5240 C.3   145  LEU145      0.0019
     77  CD1        0.0360   -3.8760    7.8120 C.3   145  LEU145      0.0001
     78  CD2        1.6520   -5.7050    8.4260 C.3   145  LEU145      0.0001
     79  N          4.4860    1.5510    5.5730 N.3   158  TYR158     -0.1241
     80  CA         4.4880    0.8190    6.8480 C.3   158  TYR158      0.1605
     81  C          5.4130    1.5020    7.8490 C.2   158  TYR158      0.2264
     82  O          6.6350    1.5680    7.6430 O.2   158  TYR158     -0.2867
     83  CB         4.9010   -0.6370    6.6160 C.3   158  TYR158      0.0534
     84  CG         4.8340   -1.5820    7.8190 C.ar  158  TYR158     -0.0201
     85  CD1        3.6540   -1.7380    8.5680 C.ar  158  TYR158     -0.0009
     86  CD2        5.9410   -2.3590    8.1620 C.ar  158  TYR158     -0.0009
     87  CE1        3.6020   -2.6350    9.6690 C.ar  158  TYR158      0.0417
     88  CE2        5.8990   -3.2630    9.2330 C.ar  158  TYR158      0.0417
     89  CZ         4.7250   -3.3900    9.9880 C.ar  158  TYR158      0.1957
     90  OH         4.6930   -4.2990   11.0390 O.3   158  TYR158     -0.2866
     91  N          6.4430    2.2480   12.1270 N.3   160  TYR160     -0.1241
     92  CA         6.4230    1.9590   13.5510 C.3   160  TYR160      0.1605
     93  C          6.4950    3.2910   14.2900 C.2   160  TYR160      0.2264
     94  O          7.4430    4.0490   14.1090 O.2   160  TYR160     -0.2867
     95  CB         7.6020    1.0670   13.9710 C.3   160  TYR160      0.0534
     96  CG         7.3130   -0.4040   13.8340 C.ar  160  TYR160     -0.0201
     97  CD1        6.9700   -0.9290   12.5970 C.ar  160  TYR160     -0.0009
     98  CD2        7.3570   -1.2770   14.9430 C.ar  160  TYR160     -0.0009
     99  CE1        6.6850   -2.2650   12.4370 C.ar  160  TYR160      0.0417
    100  CE2        7.0660   -2.6480   14.7860 C.ar  160  TYR160      0.0417
    101  CZ         6.7210   -3.1150   13.5100 C.ar  160  TYR160      0.1957
    102  OH         6.4220   -4.4380   13.2440 O.3   160  TYR160     -0.2866
    103  N          6.5320    4.2590   18.0580 N.3   162  TYR162     -0.1241
    104  CA         6.7430    3.4800   19.2650 C.3   162  TYR162      0.1605
    105  C          7.6560    4.1310   20.2850 C.2   162  TYR162      0.2264
    106  O          8.2680    5.1710   20.0120 O.2   162  TYR162     -0.2867
    107  CB         7.2350    2.0500   18.9130 C.3   162  TYR162      0.0534
    108  CG         8.6550    1.9000   18.3620 C.ar  162  TYR162     -0.0201
    109  CD1        9.6720    1.3320   19.1370 C.ar  162  TYR162     -0.0009
    110  CD2        8.9740    2.2970   17.0460 C.ar  162  TYR162     -0.0009
    111  CE1       10.9860    1.1640   18.6270 C.ar  162  TYR162      0.0417
    112  CE2       10.2700    2.1370   16.5320 C.ar  162  TYR162      0.0417
    113  CZ        11.2700    1.5580   17.3270 C.ar  162  TYR162      0.1957
    114  OH        12.5480    1.3960   16.8250 O.3   162  TYR162     -0.2866
    115  N          9.8730    5.0390   12.8480 N.3   184  TYR184     -0.1241
    116  CA        10.5950    4.3500   11.7680 C.3   184  TYR184      0.1605
    117  C          9.6350    4.1930   10.6210 C.2   184  TYR184      0.2264
    118  O          8.4310    4.0050   10.8410 O.2   184  TYR184     -0.2867
    119  CB        11.0730    2.9650   12.2090 C.3   184  TYR184      0.0534
    120  CG        12.3350    2.9400   13.0470 C.ar  184  TYR184     -0.0201
    121  CD1       12.7430    4.0440   13.8090 C.ar  184  TYR184     -0.0009
    122  CD2       13.0950    1.7850   13.1180 C.ar  184  TYR184     -0.0009
    123  CE1       13.8970    3.9920   14.5770 C.ar  184  TYR184      0.0417
    124  CE2       14.2420    1.7250   13.8830 C.ar  184  TYR184      0.0417
    125  CZ        14.6400    2.8260   14.6080 C.ar  184  TYR184      0.1957
    126  OH        15.7990    2.7270   15.3580 O.3   184  TYR184     -0.2866
    127  N          9.1040    2.4470    6.5790 N.3   186  THR186     -0.1218
    128  CA         9.4960    1.6440    5.4090 C.3   186  THR186      0.1862
    129  C          8.2640    1.4200    4.5180 C.2   186  THR186      0.2287
    130  O          7.2640    2.1470    4.6320 O.2   186  THR186     -0.2866
    131  CB        10.2690    0.3210    5.8320 C.3   186  THR186      0.1770
    132  OG1       10.9610   -0.2700    4.7090 O.3   186  THR186     -0.2211
    133  CG2        9.3450   -0.7210    6.5200 C.3   186  THR186      0.0375
    134  N          6.3770   -2.0320    1.8810 N.3   188  PHE188     -0.1241
    135  CA         6.4660   -3.3520    1.2760 C.3   188  PHE188      0.1605
    136  C          6.2810   -3.1720   -0.2250 C.2   188  PHE188      0.2264
    137  O          5.2520   -2.6730   -0.6590 O.2   188  PHE188     -0.2867
    138  CB         5.3480   -4.2850    1.7660 C.3   188  PHE188      0.0534
    139  CG         5.4720   -4.7290    3.1930 C.ar  188  PHE188     -0.0203
    140  CD1        5.9760   -6.0020    3.4990 C.ar  188  PHE188     -0.0042
    141  CD2        5.0320   -3.9080    4.2380 C.ar  188  PHE188     -0.0042
    142  CE1        6.0730   -6.4490    4.8270 C.ar  188  PHE188     -0.0003
    143  CE2        5.1120   -4.3480    5.5810 C.ar  188  PHE188     -0.0003
    144  CZ         5.6460   -5.6190    5.8730 C.ar  188  PHE188     -0.0000
    145  N          5.5800  -11.7250    2.9880 N.3   195  ILE195     -0.1231
    146  CA         6.1580  -11.7570    4.3440 C.3   195  ILE195      0.1692
    147  C          5.0960  -11.6750    5.4530 C.2   195  ILE195      0.2592
    148  O          5.2340  -12.3240    6.5070 O.2   195  ILE195     -0.2718
    149  CB         7.2370  -10.6560    4.5260 C.3   195  ILE195      0.0266
    150  CG1        8.4390  -10.9450    3.6230 C.3   195  ILE195      0.0019
    151  CG2        7.6840  -10.5280    6.0110 C.3   195  ILE195      0.0020
    152  CD1        9.3840   -9.7610    3.4450 C.3   195  ILE195      0.0001
    153  N          4.0360  -10.9020    5.1970 N.am  196  ALA196     -0.1966
    154  CA         2.9410  -10.6840    6.1650 C.3   196  ALA196      0.1728
    155  C          2.1420  -11.9370    6.5620 C.2   196  ALA196      0.2617
    156  O          1.4120  -11.9310    7.5600 O.2   196  ALA196     -0.2715
    157  CB         1.9960   -9.5720    5.6650 C.3   196  ALA196      0.0334
    158  N          2.2870  -13.0140    5.7980 N.am  197  THR197     -0.1937
    159  CA         1.6570  -14.2980    6.1550 C.3   197  THR197      0.2028
    160  C          2.6420  -15.4650    6.3130 C.2   197  THR197      0.2643
    161  O          2.2810  -16.6200    6.0980 O.2   197  THR197     -0.2714
    162  CB         0.5850  -14.6900    5.1230 C.3   197  THR197      0.1808
    163  OG1        1.1630  -14.6660    3.8120 O.3   197  THR197     -0.2208
    164  CG2       -0.6180  -13.7310    5.1970 C.3   197  THR197      0.0379
    165  N          3.8770  -15.1650    6.7040 N.am  198  SER198     -0.1935
    166  CA         4.9370  -16.1690    6.7420 C.3   198  SER198      0.2055
    167  C          5.4180  -16.4930    8.1620 C.2   198  SER198      0.2643
    168  O          6.3910  -17.2310    8.3240 O.2   198  SER198     -0.2714
    169  CB         6.1290  -15.6750    5.9300 C.3   198  SER198      0.2130
    170  OG         6.8280  -14.6860    6.6700 O.3   198  SER198     -0.2179
    171  N          4.7590  -15.9250    9.1720 N.am  199  CYS199     -0.1967
    172  CA         5.2360  -16.0310   10.5610 C.3   199  CYS199      0.1712
    173  C          5.1260  -17.4430   11.1620 C.2   199  CYS199      0.2296
    174  O          5.7040  -17.7150   12.2220 O.2   199  CYS199     -0.2864
    175  CB         4.5150  -15.0250   11.4610 C.3   199  CYS199      0.0983
    176  SG         4.9970  -13.2710   11.2450 S.3   199  CYS199     -0.0798
    177  N         14.5050  -10.6940    4.3730 N.3   207  LEU207     -0.1245
    178  CA        14.1040   -9.3750    4.8470 C.3   207  LEU207      0.1561
    179  C         15.1020   -8.3620    4.3220 C.2   207  LEU207      0.2260
    180  O         16.2590   -8.3340    4.7660 O.2   207  LEU207     -0.2867
    181  CB        14.0620   -9.3340    6.3780 C.3   207  LEU207      0.0270
    182  CG        13.2360  -10.3700    7.1410 C.3   207  LEU207      0.0019
    183  CD1       13.3650  -10.1120    8.6490 C.3   207  LEU207      0.0001
    184  CD2       11.7650  -10.3550    6.6980 C.3   207  LEU207      0.0001
    185  N         14.8310   -4.3640    3.8680 N.3   209  PHE209     -0.1241
    186  CA        14.0440   -3.1370    4.0270 C.3   209  PHE209      0.1605
    187  C         14.9460   -1.9670    4.3370 C.2   209  PHE209      0.2264
    188  O         15.8150   -2.0490    5.2060 O.2   209  PHE209     -0.2867
    189  CB        12.9980   -3.2670    5.1450 C.3   209  PHE209      0.0534
    190  CG        11.9160   -4.2600    4.8620 C.ar  209  PHE209     -0.0203
    191  CD1       10.7150   -3.8520    4.2880 C.ar  209  PHE209     -0.0042
    192  CD2       12.0850   -5.6090    5.1950 C.ar  209  PHE209     -0.0042
    193  CE1        9.6960   -4.7740    4.0330 C.ar  209  PHE209     -0.0003
    194  CE2       11.0850   -6.5420    4.9480 C.ar  209  PHE209     -0.0003
    195  CZ         9.8750   -6.1220    4.3630 C.ar  209  PHE209     -0.0000
    196  N         14.9510    1.4350    6.0570 N.3   211  VAL211     -0.1245
    197  CA        14.1390    2.0250    7.1210 C.3   211  VAL211      0.1561
    198  C         14.6590    3.4200    7.4660 C.2   211  VAL211      0.2260
    199  O         15.8070    3.5640    7.8910 O.2   211  VAL211     -0.2867
    200  CB        14.1280    1.1200    8.3910 C.3   211  VAL211      0.0252
    201  CG1       13.1470    1.6480    9.4190 C.3   211  VAL211      0.0019
    202  CG2       13.8280   -0.3860    8.0050 C.3   211  VAL211      0.0019
@<TRIPOS>BOND
     1   137   136    2
     2   136   135    1
     3   135   138    1
     4   135   134    1
     5   138   139    1
     6   145   146    1
     7   139   140   ar
     8   139   141   ar
     9   152   150    1
    10   140   142   ar
    11   150   149    1
    12   163   162    1
    13   185   186    1
    14   186   187    1
    15   186   189    1
    16   193   191   ar
    17   193   195   ar
    18   141   143   ar
    19   191   190   ar
    20   179   180    2
    21   179   178    1
    22   187   188    2
    23   146   149    1
    24   146   147    1
    25   195   194   ar
    26   177   178    1
    27   129   130    2
    28   129   128    1
    29   149   151    1
    30    74    73    2
    31   132   131    1
    32   142   144   ar
    33   178   181    1
    34   190   189    1
    35   190   192   ar
    36   194   192   ar
    37   162   164    1
    38   162   159    1
    39   153   147   am
    40   153   154    1
    41   128   131    1
    42   128   127    1
    43   147   148    2
    44    79    80    1
    45   143   144   ar
    46    73    72    1
    47   157   154    1
    48     4     3    2
    49   158   159    1
    50   158   155   am
    51   131   133    1
    52   169   170    1
    53   169   166    1
    54   196   197    1
    55   161   160    2
    56   159   160    1
    57   154   155    1
    58   160   165   am
    59   181   182    1
    60   155   156    2
    61    83    80    1
    62    83    84    1
    63     3     2    1
    64   184   182    1
    65   165   166    1
    66   166   167    1
    67    80    81    1
    68    72    75    1
    69    72    71    1
    70   197   198    1
    71   197   200    1
    72   182   183    1
    73     1     2    1
    74   198   199    2
    75    76    75    1
    76    76    77    1
    77    76    78    1
    78    70    69    2
    79    82    81    2
    80    84    86   ar
    81    84    85   ar
    82     2     5    1
    83   202   200    1
    84    86    88   ar
    85   167   168    2
    86   167   171   am
    87   200   201    1
    88     5     6    1
    89    85    87   ar
    90    69    68    1
    91     6     8    1
    92     6     7    1
    93   171   172    1
    94    88    89   ar
    95    15    13    1
    96    87    89   ar
    97    68    67    1
    98    89    90    1
    99    14    13    1
   100   172   173    1
   101   172   175    1
   102    59    58    2
   103   117   118    2
   104   117   116    1
   105    13    10    1
   106    33    31   ar
   107    33    32   ar
   108    67    58   am
   109   173   174    2
   110    31    29   ar
   111   176   175    1
   112    58    57    1
   113    32    30   ar
   114    65    66   ar
   115    65    63   ar
   116   116   119    1
   117   116   115    1
   118    50    49    2
   119    10     9    1
   120    10    11    1
   121    66    64   ar
   122    29    28   ar
   123    91    92    1
   124    63    61   ar
   125   119   120    1
   126    99    97   ar
   127    99   101   ar
   128    30    28   ar
   129    22    20    1
   130    97    96   ar
   131    55    53   am
   132    28    27    1
   133    42    41    2
   134    64    62   ar
   135    57    60    1
   136    57    56    1
   137    11    12    2
   138    61    62   ar
   139    61    60    1
   140   120   122   ar
   141   120   121   ar
   142    49    48    1
   143   122   124   ar
   144    52    53    1
   145    52    51    1
   146   102   101    1
   147    48    51    1
   148    48    47    1
   149    46    44    1
   150   101   100   ar
   151    92    95    1
   152    92    93    1
   153    44    45    1
   154    44    43    1
   155    53    54    2
   156    27    24    1
   157   121   123   ar
   158    96    95    1
   159    96    98   ar
   160    41    47   am
   161    41    40    1
   162   124   125   ar
   163    20    17    1
   164    20    21    1
   165    94    93    2
   166    16    17    1
   167    17    18    1
   168   123   125   ar
   169   125   126    1
   170   100    98   ar
   171    43    40    1
   172    40    39    1
   173    24    25    1
   174    24    23    1
   175    18    19    2
   176    25    26    2
   177    25    34   am
   178    34    35    1
   179   112   110   ar
   180   112   113   ar
   181    35    38    1
   182    35    36    1
   183   114   113    1
   184   110   108   ar
   185   113   111   ar
   186    36    37    2
   187   103   104    1
   188   108   107    1
   189   108   109   ar
   190   111   109   ar
   191   107   104    1
   192   104   105    1
   193   106   105    2
