@<TRIPOS>MOLECULE
tmp/2w41B00.pdb
 129 120 0 0 0
SMALL
GASTEIGER

@<TRIPOS>ATOM
      1  N         18.0630   15.1230   70.7900 N.3   271  THR271     -0.1218
      2  CA        16.7220   14.5100   70.9160 C.3   271  THR271      0.1862
      3  C         16.6700   13.6920   72.1930 C.2   271  THR271      0.2287
      4  O         17.5370   12.8420   72.4130 O.2   271  THR271     -0.2866
      5  CB        16.3900   13.6280   69.7210 C.3   271  THR271      0.1770
      6  OG1       16.3320   14.4310   68.5280 O.3   271  THR271     -0.2211
      7  CG2       15.0630   12.8800   69.9120 C.3   271  THR271      0.0375
      8  N         14.2690   11.2430   73.3930 N.3   273  GLY273     -0.1210
      9  CA        13.1970   10.2640   73.3020 C.3   273  GLY273      0.1956
     10  C         13.6070    8.9430   73.9350 C.2   273  GLY273      0.2613
     11  O         14.4180    8.9100   74.8700 O.2   273  GLY273     -0.2717
     12  N         13.0030    7.8600   73.4620 N.am  274  THR274     -0.1938
     13  CA        13.4970    6.5220   73.7340 C.3   274  THR274      0.2028
     14  C         15.0310    6.4930   73.5580 C.2   274  THR274      0.2642
     15  O         15.7570    6.0520   74.4710 O.2   274  THR274     -0.2714
     16  CB        12.7820    5.5270   72.8480 C.3   274  THR274      0.1808
     17  OG1       11.4130    5.6080   73.1830 O.3   274  THR274     -0.2208
     18  CG2       13.2210    4.1160   73.1240 C.3   274  THR274      0.0379
     19  N         15.5150    6.9790   72.4120 N.am  275  GLY275     -0.1954
     20  CA        16.9200    7.1890   72.2270 C.3   275  GLY275      0.1869
     21  C         17.2830    8.6160   72.6180 C.2   275  GLY275      0.2309
     22  O         16.4850    9.5460   72.4490 O.2   275  GLY275     -0.2863
     23  N         16.1310    6.9860   77.2990 N.3   319  GLY319     -0.1210
     24  CA        14.7340    7.2410   77.6690 C.3   319  GLY319      0.1956
     25  C         13.9800    5.9950   78.1260 C.2   319  GLY319      0.2612
     26  O         12.9800    6.0730   78.8720 O.2   319  GLY319     -0.2717
     27  N         14.4470    4.8300   77.6910 N.am  320  SER320     -0.1952
     28  CA        13.8910    3.5950   78.2380 C.3   320  SER320      0.1924
     29  C         14.1620    3.3000   79.7120 C.2   320  SER320      0.2314
     30  O         13.5160    2.4230   80.2680 O.2   320  SER320     -0.2863
     31  CB        14.2500    2.3880   77.3740 C.3   320  SER320      0.2116
     32  OG        13.5770    2.5050   76.1250 O.3   320  SER320     -0.2180
     33  N         13.3170    5.3750   81.9280 N.3   322  VAL322     -0.1231
     34  CA        12.0230    5.7850   82.4730 C.3   322  VAL322      0.1692
     35  C         10.9470    4.6830   82.3600 C.2   322  VAL322      0.2592
     36  O         10.1470    4.5240   83.2800 O.2   322  VAL322     -0.2718
     37  CB        11.5100    7.0930   81.8790 C.3   322  VAL322      0.0266
     38  CG1       10.1510    7.3900   82.4600 C.3   322  VAL322      0.0020
     39  CG2       12.4630    8.2440   82.1680 C.3   322  VAL322      0.0020
     40  N         10.9280    3.9180   81.2680 N.am  323  SER323     -0.1952
     41  CA        10.1100    2.7000   81.2100 C.3   323  SER323      0.1924
     42  C         10.4660    1.6340   82.2680 C.2   323  SER323      0.2314
     43  O          9.5660    0.9430   82.7860 O.2   323  SER323     -0.2863
     44  CB        10.1690    2.0400   79.8150 C.3   323  SER323      0.2116
     45  OG        10.4280    3.0060   78.8070 O.3   323  SER323     -0.2180
     46  N          9.0750    2.4140   85.5880 N.3   326  LEU326     -0.1245
     47  CA         7.6600    2.0130   85.4660 C.3   326  LEU326      0.1561
     48  C          7.4130    0.4770   85.5520 C.2   326  LEU326      0.2260
     49  O          6.4650    0.0280   86.1780 O.2   326  LEU326     -0.2867
     50  CB         7.0650    2.5260   84.1510 C.3   326  LEU326      0.0270
     51  CG         6.5410    3.9460   83.9710 C.3   326  LEU326      0.0019
     52  CD1        6.2290    4.1590   82.5350 C.3   326  LEU326      0.0001
     53  CD2        5.2720    4.1840   84.7390 C.3   326  LEU326      0.0001
     54  N          4.9650    8.3650   83.4310 N.3   334  PRO334     -0.2102
     55  CA         6.0920    9.2220   83.0640 C.3   334  PRO334      0.1504
     56  C          5.9540   10.6700   83.5330 C.2   334  PRO334      0.2576
     57  O          6.9710   11.3570   83.6860 O.2   334  PRO334     -0.2718
     58  CB         6.0620    9.1880   81.5310 C.3   334  PRO334      0.0282
     59  CG         5.4970    7.8440   81.2100 C.3   334  PRO334      0.0208
     60  CD         4.4440    7.6190   82.2640 C.3   334  PRO334      0.0893
     61  N          4.7160   11.1280   83.7490 N.am  335  SER335     -0.1953
     62  CA         4.4820   12.5210   84.1140 C.3   335  SER335      0.1924
     63  C          4.9440   12.7590   85.5310 C.2   335  SER335      0.2314
     64  O          5.4330   13.8460   85.8460 O.2   335  SER335     -0.2863
     65  CB         3.0140   12.9600   83.8780 C.3   335  SER335      0.2116
     66  OG         2.1630   12.7550   85.0080 O.3   335  SER335     -0.2180
     67  N          7.5390   11.7750   86.7250 N.3   337  ALA337     -0.1231
     68  CA         8.9700   12.0640   86.6570 C.3   337  ALA337      0.1694
     69  C          9.3080   13.5750   86.7540 C.2   337  ALA337      0.2592
     70  O         10.2770   13.9800   87.4260 O.2   337  ALA337     -0.2718
     71  CB         9.5460   11.4470   85.3720 C.3   337  ALA337      0.0304
     72  N          8.4940   14.3910   86.0830 N.am  338  SER338     -0.1952
     73  CA         8.5370   15.8500   86.1970 C.3   338  SER338      0.1924
     74  C          8.2260   16.3620   87.6120 C.2   338  SER338      0.2314
     75  O          8.9290   17.2520   88.1460 O.2   338  SER338     -0.2863
     76  CB         7.5410   16.4720   85.2090 C.3   338  SER338      0.2116
     77  OG         7.7030   15.9600   83.9000 O.3   338  SER338     -0.2180
     78  N         17.6650    9.9580   86.2330 N.3   389  LEU389     -0.1245
     79  CA        17.5220   11.0890   85.2910 C.3   389  LEU389      0.1561
     80  C         18.7860   11.9470   85.2400 C.2   389  LEU389      0.2260
     81  O         19.2420   12.3860   84.1720 O.2   389  LEU389     -0.2867
     82  CB        16.3300   11.9400   85.6980 C.3   389  LEU389      0.0270
     83  CG        14.9820   11.2750   85.3840 C.3   389  LEU389      0.0019
     84  CD1       13.8520   12.0960   86.0140 C.3   389  LEU389      0.0001
     85  CD2       14.8570   11.1120   83.8380 C.3   389  LEU389      0.0001
     86  N         11.8330   15.8770   71.7400 N.3   419  GLY419     -0.1210
     87  CA        11.4910   14.5960   72.3340 C.3   419  GLY419      0.1956
     88  C         10.7080   14.7840   73.6180 C.2   419  GLY419      0.2612
     89  O         10.7160   15.8550   74.2190 O.2   419  GLY419     -0.2717
     90  N         10.0720   13.7180   74.0630 N.am  420  GLY420     -0.1942
     91  CA         9.1930   13.7510   75.2030 C.3   420  GLY420      0.2014
     92  C          9.8040   14.0010   76.5650 C.2   420  GLY420      0.2638
     93  O          9.1120   14.4780   77.4710 O.2   420  GLY420     -0.2714
     94  N         11.0770   13.7020   76.7450 N.am  421  MET421     -0.1976
     95  CA        11.7420   14.0720   78.0050 C.3   421  MET421      0.1605
     96  C         11.8620   15.6030   78.1670 C.2   421  MET421      0.2287
     97  O         12.1120   16.0840   79.2780 O.2   421  MET421     -0.2864
     98  CB        13.1220   13.4080   78.1440 C.3   421  MET421      0.0413
     99  CG        13.1160   11.8880   78.1400 C.3   421  MET421      0.0598
    100  SD        14.7130   11.1890   78.5860 S.3   421  MET421     -0.1393
    101  CE        14.5490   11.3160   80.3560 C.3   421  MET421      0.0692
    102  N          9.4780   17.7110   77.9670 N.3   423  LYS423     -0.1231
    103  CA         8.3270   18.1700   78.7420 C.3   423  LYS423      0.1693
    104  C          8.6340   18.2550   80.2360 C.2   423  LYS423      0.2592
    105  O          7.8990   18.8580   80.9860 O.2   423  LYS423     -0.2718
    106  CB         7.1270   17.2320   78.5150 C.3   423  LYS423      0.0285
    107  CG         6.2210   17.6230   77.3290 C.3   423  LYS423      0.0035
    108  CD         5.4870   19.0060   77.5930 C.3   423  LYS423      0.0206
    109  CE         5.1300   19.8150   76.3030 C.3   423  LYS423      0.1093
    110  NZ         4.8220   21.2670   76.6530 N.3   423  LYS423     -0.1314
    111  N          9.7170   17.6270   80.6640 N.am  424  ASN424     -0.1974
    112  CA        10.1550   17.6510   82.0400 C.3   424  ASN424      0.1688
    113  C         11.0810   18.8390   82.1810 C.2   424  ASN424      0.2292
    114  O         12.2570   18.7800   81.7660 O.2   424  ASN424     -0.2864
    115  CB        10.8820   16.3480   82.3300 C.3   424  ASN424      0.1181
    116  CG        11.1480   16.1260   83.8160 C.2   424  ASN424      0.2629
    117  OD1       11.0340   14.9990   84.3040 O.2   424  ASN424     -0.2716
    118  ND2       11.5720   17.1760   84.5220 N.am  424  ASN424     -0.0877
    119  N         14.1270   18.5710   84.6770 N.3   427  PHE427     -0.1241
    120  CA        15.1550   17.7630   83.9990 C.3   427  PHE427      0.1605
    121  C         15.9030   18.5570   82.8930 C.2   427  PHE427      0.2264
    122  O         17.1250   18.4850   82.7950 O.2   427  PHE427     -0.2867
    123  CB        14.5620   16.4260   83.5210 C.3   427  PHE427      0.0534
    124  CG        15.4790   15.6230   82.6180 C.ar  427  PHE427     -0.0203
    125  CD1       16.5740   14.9150   83.1420 C.ar  427  PHE427     -0.0042
    126  CD2       15.2420   15.5690   81.2140 C.ar  427  PHE427     -0.0042
    127  CE1       17.4190   14.1780   82.2760 C.ar  427  PHE427     -0.0003
    128  CE2       16.0650   14.8210   80.3680 C.ar  427  PHE427     -0.0003
    129  CZ        17.1510   14.1310   80.9010 C.ar  427  PHE427     -0.0000
@<TRIPOS>BOND
     1     6     5    1
     2     5     7    1
     3     5     2    1
     4     1     2    1
     5     2     3    1
     6    86    87    1
     7     3     4    2
     8    20    19    1
     9    20    21    1
    10    87    88    1
    11    19    14   am
    12    22    21    2
    13    16    18    1
    14    16    17    1
    15    16    13    1
    16     9     8    1
    17     9    10    1
    18    12    13    1
    19    12    10   am
    20    14    13    1
    21    14    15    2
    22    88    90   am
    23    88    89    2
    24    10    11    2
    25    90    91    1
    26    91    92    1
    27    32    31    1
    28   109   110    1
    29   109   108    1
    30    92    94   am
    31    92    93    2
    32    94    95    1
    33    23    24    1
    34   107   108    1
    35   107   106    1
    36    31    28    1
    37    24    25    1
    38    27    25   am
    39    27    28    1
    40   102   103    1
    41    95    98    1
    42    95    96    1
    43    25    26    2
    44    99    98    1
    45    99   100    1
    46    96    97    2
    47    28    29    1
    48   106   103    1
    49   100   101    1
    50   103   104    1
    51    45    44    1
    52    29    30    2
    53    44    41    1
    54   104   111   am
    55   104   105    2
    56   128   129   ar
    57   128   126   ar
    58   111   112    1
    59   129   127   ar
    60    41    40    1
    61    41    42    1
    62    59    58    1
    63    59    60    1
    64   126   124   ar
    65    40    35   am
    66    58    55    1
    67   114   113    2
    68    37    39    1
    69    37    38    1
    70    37    34    1
    71    33    34    1
    72   112   113    1
    73   112   115    1
    74    60    54    1
    75    42    43    2
    76   127   125   ar
    77   115   116    1
    78    35    34    1
    79    35    36    2
    80    52    51    1
    81   124   125   ar
    82   124   123    1
    83   122   121    2
    84   121   120    1
    85    55    54    1
    86    55    56    1
    87   123   120    1
    88    56    57    2
    89    56    61   am
    90    61    62    1
    91   116   117    2
    92   116   118   am
    93    85    83    1
    94    65    62    1
    95    65    66    1
    96    77    76    1
    97    51    50    1
    98    51    53    1
    99   120   119    1
   100    62    63    1
   101    50    47    1
   102    81    80    2
   103    76    73    1
   104    80    79    1
   105    79    82    1
   106    79    78    1
   107    71    68    1
   108    83    82    1
   109    83    84    1
   110    47    48    1
   111    47    46    1
   112    63    64    2
   113    48    49    2
   114    72    73    1
   115    72    69   am
   116    73    74    1
   117    68    67    1
   118    68    69    1
   119    69    70    2
   120    74    75    2
