@<TRIPOS>MOLECULE
tmp/2w47A00.pdb
 96 90 0 0 0
SMALL
GASTEIGER

@<TRIPOS>ATOM
      1  N         -4.0510   20.4790   -0.7130 N.3    19  GLU19      -0.1245
      2  CA        -5.1750   20.0430    0.1090 C.3    19  GLU19       0.1567
      3  C         -5.8600   21.2200    0.7830 C.2    19  GLU19       0.2260
      4  O         -5.3960   22.3680    0.6900 O.2    19  GLU19      -0.2867
      5  CB        -4.7500   18.9780    1.1230 C.3    19  GLU19       0.0388
      6  CG        -3.9410   19.4990    2.2750 C.3    19  GLU19       0.1160
      7  CD        -3.6650   18.4570    3.3400 C.2    19  GLU19       0.3649
      8  OE1       -3.4740   18.8750    4.5010 O.co2  19  GLU19      -0.2457
      9  OE2       -3.6210   17.2440    3.0260 O.co2  19  GLU19      -0.2457
     10  N         -7.5310   20.5400    4.0480 N.3    21  VAL21      -0.1231
     11  CA        -7.9130   19.9310    5.3300 C.3    21  VAL21       0.1692
     12  C         -7.9840   20.9010    6.5060 C.2    21  VAL21       0.2592
     13  O         -8.9860   20.9480    7.2150 O.2    21  VAL21      -0.2718
     14  CB        -6.9620   18.7590    5.6830 C.3    21  VAL21       0.0266
     15  CG1       -7.2780   18.1680    7.0610 C.3    21  VAL21       0.0020
     16  CG2       -7.0510   17.6890    4.6140 C.3    21  VAL21       0.0020
     17  N         -6.9240   21.6700    6.7090 N.am   22  ASN22      -0.1974
     18  CA        -6.8060   22.5320    7.8770 C.3    22  ASN22       0.1688
     19  C         -7.1960   23.9550    7.5790 C.2    22  ASN22       0.2292
     20  O         -6.6560   24.5740    6.6600 O.2    22  ASN22      -0.2864
     21  CB        -5.3750   22.4920    8.4100 C.3    22  ASN22       0.1181
     22  CG        -4.9650   21.1150    8.8510 C.2    22  ASN22       0.2629
     23  OD1       -4.0280   20.5300    8.3030 O.2    22  ASN22      -0.2716
     24  ND2       -5.6760   20.5720    9.8290 N.am   22  ASN22      -0.0877
     25  N          0.6550   20.3600    1.2090 N.3    32  ASN32      -0.1225
     26  CA         1.0320   19.4310    2.2620 C.3    32  ASN32       0.1785
     27  C          2.0770   18.4850    1.6930 C.2    32  ASN32       0.2597
     28  O          1.7840   17.7060    0.7870 O.2    32  ASN32      -0.2718
     29  CB        -0.2150   18.6890    2.7540 C.3    32  ASN32       0.1169
     30  CG         0.0950   17.5240    3.6770 C.2    32  ASN32       0.2627
     31  OD1        1.2220   17.3440    4.1420 O.2    32  ASN32      -0.2716
     32  ND2       -0.9180   16.7010    3.9210 N.am   32  ASN32      -0.0877
     33  N          3.3060   18.5930    2.2000 N.am   33  TYR33      -0.1976
     34  CA         4.4120   17.7510    1.7640 C.3    33  TYR33       0.1639
     35  C          4.1660   16.3050    2.1650 C.2    33  TYR33       0.2290
     36  O          3.6100   16.0450    3.2280 O.2    33  TYR33      -0.2864
     37  CB         5.7000   18.2040    2.4530 C.3    33  TYR33       0.0560
     38  CG         6.3630   19.4480    1.8960 C.ar   33  TYR33      -0.0198
     39  CD1        5.8370   20.7150    2.1270 C.ar   33  TYR33      -0.0009
     40  CD2        7.5630   19.3570    1.1980 C.ar   33  TYR33      -0.0009
     41  CE1        6.4640   21.8570    1.6500 C.ar   33  TYR33       0.0417
     42  CE2        8.2070   20.4950    0.7140 C.ar   33  TYR33       0.0417
     43  CZ         7.6430   21.7400    0.9370 C.ar   33  TYR33       0.1957
     44  OH         8.2460   22.8890    0.4720 O.3    33  TYR33      -0.2866
     45  N          5.3070   13.0850    4.0010 N.3    35  ASN35      -0.1240
     46  CA         6.1400   12.9840    5.1860 C.3    35  ASN35       0.1653
     47  C          7.3560   12.1090    4.9240 C.2    35  ASN35       0.2266
     48  O          7.4330   10.9300    5.3020 O.2    35  ASN35      -0.2867
     49  CB         5.3020   12.5920    6.4050 C.3    35  ASN35       0.1155
     50  CG         4.3640   13.7230    6.8410 C.2    35  ASN35       0.2627
     51  OD1        3.8150   14.4550    6.0050 O.2    35  ASN35      -0.2716
     52  ND2        4.1970   13.8860    8.1390 N.am   35  ASN35      -0.0877
     53  N          3.3320   20.1470   14.4740 N.3    63  THR63      -0.1218
     54  CA         4.1690   19.2790   15.2960 C.3    63  THR63       0.1862
     55  C          5.0870   20.1470   16.1430 C.2    63  THR63       0.2287
     56  O          5.2330   21.3420   15.9000 O.2    63  THR63      -0.2866
     57  CB         5.0300   18.3020   14.4610 C.3    63  THR63       0.1770
     58  OG1        6.1660   18.9900   13.9200 O.3    63  THR63      -0.2211
     59  CG2        4.2180   17.6440   13.3340 C.3    63  THR63       0.0375
     60  N         10.7170   21.8630   10.9090 N.3    67  ARG67      -0.1245
     61  CA        10.7100   21.2050    9.5970 C.3    67  ARG67       0.1563
     62  C         11.5480   22.0420    8.6380 C.2    67  ARG67       0.2260
     63  O         11.0080   22.8290    7.8530 O.2    67  ARG67      -0.2867
     64  CB         9.2750   21.0510    9.0820 C.3    67  ARG67       0.0307
     65  CG         8.5000   20.0000    9.8580 C.3    67  ARG67       0.0489
     66  CD         7.1580   19.6950    9.2250 C.3    67  ARG67       0.2205
     67  NE         6.5230   18.5240    9.8260 N.pl3  67  ARG67      -0.0865
     68  CZ         5.3880   17.9960    9.3810 C.cat  67  ARG67       0.5346
     69  NH1        4.7640   18.5390    8.3360 N.pl3  67  ARG67       0.1354
     70  NH2        4.8760   16.9260    9.9750 N.pl3  67  ARG67       0.1354
     71  N         -2.2240   23.0070   13.5610 N.3    90  TRP90      -0.1241
     72  CA        -2.2520   22.9300   12.0950 C.3    90  TRP90       0.1605
     73  C         -3.0860   24.0450   11.4790 C.2    90  TRP90       0.2264
     74  O         -2.9980   24.3020   10.2830 O.2    90  TRP90      -0.2867
     75  CB        -2.7500   21.5650   11.6190 C.3    90  TRP90       0.0550
     76  CG        -1.7160   20.4980   11.8010 C.ar   90  TRP90       0.0003
     77  CD1       -1.7690   19.4400   12.6650 C.ar   90  TRP90       0.0946
     78  CD2       -0.4580   20.3960   11.1190 C.ar   90  TRP90       0.0152
     79  NE1       -0.6280   18.6790   12.5580 N.ar   90  TRP90      -0.2442
     80  CE2        0.1920   19.2400   11.6140 C.ar   90  TRP90       0.0810
     81  CE3        0.1790   21.1610   10.1290 C.ar   90  TRP90       0.0012
     82  CZ2        1.4540   18.8390   11.1630 C.ar   90  TRP90       0.0191
     83  CZ3        1.4360   20.7530    9.6770 C.ar   90  TRP90       0.0001
     84  CH2        2.0590   19.6080   10.2010 C.ar   90  TRP90       0.0015
     85  N          8.1750   18.7650    4.8010 N.3   119  GLY119     -0.1225
     86  CA         8.1310   20.2060    4.9990 C.3   119  GLY119      0.1811
     87  C          6.8840   20.6210    5.7520 C.2   119  GLY119      0.2280
     88  O          5.9740   19.8050    5.9430 O.2   119  GLY119     -0.2866
     89  N          3.2650   22.6410    6.1690 N.3   121  ASN121     -0.1240
     90  CA         2.2040   22.9910    5.2260 C.3   121  ASN121      0.1653
     91  C          2.4190   24.4270    4.7840 C.2   121  ASN121      0.2266
     92  O          2.7160   25.2950    5.6110 O.2   121  ASN121     -0.2867
     93  CB         0.8310   22.8280    5.8550 C.3   121  ASN121      0.1155
     94  CG         0.4420   21.3780    6.0420 C.2   121  ASN121      0.2627
     95  OD1        1.0640   20.4690    5.4910 O.2   121  ASN121     -0.2716
     96  ND2       -0.6140   21.1490    6.8290 N.am  121  ASN121     -0.0877
@<TRIPOS>BOND
     1     1     2    1
     2     2     3    1
     3     2     5    1
     4    44    43    1
     5     4     3    2
     6    42    43   ar
     7    42    40   ar
     8    28    27    2
     9    43    41   ar
    10     5     6    1
    11    40    38   ar
    12    25    26    1
    13    41    39   ar
    14    27    33   am
    15    27    26    1
    16    34    35    1
    17    34    33    1
    18    34    37    1
    19    38    39   ar
    20    38    37    1
    21    35    36    2
    22    26    29    1
    23     6     7    1
    24    29    30    1
    25     9     7   ar
    26     7     8   ar
    27    30    32   am
    28    30    31    2
    29    45    46    1
    30    10    11    1
    31    16    14    1
    32    91    90    1
    33    91    92    2
    34    85    86    1
    35    47    46    1
    36    47    48    2
    37    86    87    1
    38    46    49    1
    39    90    93    1
    40    90    89    1
    41    11    14    1
    42    11    12    1
    43    95    94    2
    44    14    15    1
    45    87    88    2
    46    93    94    1
    47    51    50    2
    48    94    96   am
    49    49    50    1
    50    12    17   am
    51    12    13    2
    52    20    19    2
    53    17    18    1
    54    50    52   am
    55    19    18    1
    56    63    62    2
    57    18    21    1
    58    23    22    2
    59    69    68    1
    60    21    22    1
    61    62    61    1
    62    22    24   am
    63    64    61    1
    64    64    65    1
    65    66    67    1
    66    66    65    1
    67    68    67    2
    68    68    70    1
    69    61    60    1
    70    83    81   ar
    71    83    84   ar
    72    81    78   ar
    73    84    82   ar
    74    74    73    2
    75    78    80   ar
    76    78    76   ar
    77    82    80   ar
    78    73    72    1
    79    80    79   ar
    80    75    76    1
    81    75    72    1
    82    76    77   ar
    83    72    71    1
    84    79    77   ar
    85    59    57    1
    86    58    57    1
    87    57    54    1
    88    53    54    1
    89    54    55    1
    90    56    55    2
