@<TRIPOS>MOLECULE
tmp/2w48A00.pdb
 102 101 0 0 0
SMALL
GASTEIGER

@<TRIPOS>ATOM
      1  N        -28.6300   14.8420  -22.3000 N.3   110  TRP110     -0.1241
      2  CA       -27.4130   14.0360  -22.2290 C.3   110  TRP110      0.1605
      3  C        -27.5320   12.6700  -22.9080 C.2   110  TRP110      0.2264
      4  O        -28.5960   12.2920  -23.4270 O.2   110  TRP110     -0.2867
      5  CB       -26.9420   13.8830  -20.7820 C.3   110  TRP110      0.0550
      6  CG       -27.9930   13.3600  -19.8250 C.ar  110  TRP110      0.0003
      7  CD1      -28.7030   14.0860  -18.9230 C.ar  110  TRP110      0.0946
      8  CD2      -28.4350   11.9930  -19.6720 C.ar  110  TRP110      0.0152
      9  NE1      -29.5670   13.2750  -18.2320 N.ar  110  TRP110     -0.2442
     10  CE2      -29.4200   11.9850  -18.6660 C.ar  110  TRP110      0.0810
     11  CE3      -28.0920   10.7790  -20.2930 C.ar  110  TRP110      0.0012
     12  CZ2      -30.0750   10.8060  -18.2550 C.ar  110  TRP110      0.0191
     13  CZ3      -28.7360    9.6100  -19.8900 C.ar  110  TRP110      0.0001
     14  CH2      -29.7190    9.6330  -18.8760 C.ar  110  TRP110      0.0015
     15  N        -30.5900   20.9800  -18.7450 N.3   136  ILE136     -0.1231
     16  CA       -30.5110   20.1250  -17.5660 C.3   136  ILE136      0.1692
     17  C        -29.1630   20.3370  -16.8560 C.2   136  ILE136      0.2593
     18  O        -28.1760   20.6930  -17.4900 O.2   136  ILE136     -0.2718
     19  CB       -30.6310   18.6670  -17.9940 C.3   136  ILE136      0.0266
     20  CG1      -30.5230   17.7370  -16.8000 C.3   136  ILE136      0.0019
     21  CG2      -29.5540   18.3330  -18.9870 C.3   136  ILE136      0.0020
     22  CD1      -31.8450   17.3730  -16.1970 C.3   136  ILE136      0.0001
     23  N        -29.1140   20.1200  -15.5450 N.am  137  GLY137     -0.1942
     24  CA       -27.8800   20.2460  -14.7890 C.3   137  GLY137      0.2014
     25  C        -26.9040   19.1150  -15.0440 C.2   137  GLY137      0.2639
     26  O        -27.1570   18.2720  -15.8950 O.2   137  GLY137     -0.2714
     27  N        -25.7940   19.0770  -14.3050 N.am  138  GLY138     -0.1940
     28  CA       -24.7980   18.0220  -14.4510 C.3   138  GLY138      0.1999
     29  C        -25.1410   16.6680  -13.8370 C.2   138  GLY138      0.2481
     30  O        -25.9900   16.5430  -12.9340 O.2   138  GLY138     -0.2729
     31  N        -24.4720   15.6220  -14.3150 N.am  139  PRO139     -0.2715
     32  CA       -24.7310   14.2560  -13.8540 C.3   139  PRO139      0.1536
     33  C        -24.2080   14.0050  -12.4560 C.2   139  PRO139      0.2599
     34  O        -24.5800   13.0100  -11.8390 O.2   139  PRO139     -0.2715
     35  CB       -23.9520   13.3930  -14.8400 C.3   139  PRO139      0.0310
     36  CG       -23.6230   14.3020  -15.9890 C.3   139  PRO139      0.0237
     37  CD       -23.5060   15.6670  -15.4130 C.3   139  PRO139      0.0939
     38  N        -23.3500   14.8820  -11.9560 N.am  140  SER140     -0.1950
     39  CA       -22.7690   14.6650  -10.6460 C.3   140  SER140      0.1924
     40  C        -22.1530   13.2840  -10.6300 C.2   140  SER140      0.2314
     41  O        -22.4870   12.4670   -9.7780 O.2   140  SER140     -0.2863
     42  CB       -23.8320   14.7520   -9.5580 C.3   140  SER140      0.2116
     43  OG       -24.6130   15.9280   -9.6870 O.3   140  SER140     -0.2180
     44  N        -22.5970   10.6790  -12.3010 N.3   142  LYS142     -0.1231
     45  CA       -23.4250    9.5610  -12.7330 C.3   142  LYS142      0.1693
     46  C        -23.2940    9.1520  -14.2130 C.2   142  LYS142      0.2591
     47  O        -23.8340    8.1230  -14.6170 O.2   142  LYS142     -0.2718
     48  CB       -24.8900    9.8470  -12.3850 C.3   142  LYS142      0.0285
     49  CG       -25.1750    9.9640  -10.8910 C.3   142  LYS142      0.0035
     50  CD       -24.5980    8.7650  -10.1630 C.3   142  LYS142      0.0206
     51  CE       -25.3520    8.4270   -8.8680 C.3   142  LYS142      0.1093
     52  NZ       -24.9790    7.0770   -8.3120 N.3   142  LYS142     -0.1314
     53  N        -22.5660    9.9380  -15.0050 N.am  143  LEU143     -0.1980
     54  CA       -22.3560    9.6540  -16.4330 C.3   143  LEU143      0.1596
     55  C        -20.9010    9.8060  -16.7950 C.2   143  LEU143      0.2287
     56  O        -20.1860   10.5840  -16.1690 O.2   143  LEU143     -0.2864
     57  CB       -23.1040   10.6490  -17.3130 C.3   143  LEU143      0.0297
     58  CG       -24.6070   10.5810  -17.4120 C.3   143  LEU143      0.0022
     59  CD1      -24.9650   11.1380  -18.7360 C.3   143  LEU143      0.0001
     60  CD2      -25.0320    9.1460  -17.3340 C.3   143  LEU143      0.0001
     61  N        -27.8420   18.5920  -11.8480 N.3   171  ALA171     -0.1231
     62  CA       -29.2490   18.4320  -12.1770 C.3   171  ALA171      0.1694
     63  C        -30.0400   18.0940  -10.9030 C.2   171  ALA171      0.2591
     64  O        -31.2220   18.4290  -10.7730 O.2   171  ALA171     -0.2718
     65  CB       -29.4380   17.3770  -13.2590 C.3   171  ALA171      0.0304
     66  N        -29.3610   17.4660   -9.9450 N.am  172  LEU172     -0.1980
     67  CA       -30.0470   16.9320   -8.7710 C.3   172  LEU172      0.1596
     68  C        -29.3070   17.2490   -7.4810 C.2   172  LEU172      0.2287
     69  O        -28.1470   16.8430   -7.3160 O.2   172  LEU172     -0.2864
     70  CB       -30.2240   15.4220   -8.9240 C.3   172  LEU172      0.0297
     71  CG       -30.6110   14.6400   -7.6800 C.3   172  LEU172      0.0022
     72  CD1      -31.8310   15.2540   -7.0760 C.3   172  LEU172      0.0001
     73  CD2      -30.8710   13.2060   -8.0760 C.3   172  LEU172      0.0001
     74  N        -28.8060    5.7100  -11.0620 N.3   219  PHE219     -0.1227
     75  CA       -28.8850    7.1480  -10.9550 C.3   219  PHE219      0.1736
     76  C        -29.4740    7.7000   -9.7000 C.2   219  PHE219      0.2595
     77  O        -28.8850    8.5490   -9.0870 O.2   219  PHE219     -0.2718
     78  CB       -29.8280    7.6350  -12.0160 C.3   219  PHE219      0.0547
     79  CG       -29.1780    8.1100  -13.2370 C.ar  219  PHE219     -0.0202
     80  CD1      -29.8990    8.3050  -14.3610 C.ar  219  PHE219     -0.0042
     81  CD2      -27.8710    8.3560  -13.2690 C.ar  219  PHE219     -0.0042
     82  CE1      -29.3260    8.7330  -15.4720 C.ar  219  PHE219     -0.0003
     83  CE2      -27.3090    8.7810  -14.3890 C.ar  219  PHE219     -0.0003
     84  CZ       -28.0310    8.9710  -15.4840 C.ar  219  PHE219     -0.0000
     85  N        -30.6360    7.2110   -9.3050 N.am  220  TYR220     -0.1976
     86  CA       -31.3480    7.7850   -8.1810 C.3   220  TYR220      0.1639
     87  C        -31.4090    6.8480   -7.0300 C.2   220  TYR220      0.2290
     88  O        -31.7660    7.1970   -5.9370 O.2   220  TYR220     -0.2864
     89  CB       -32.7570    8.1420   -8.5780 C.3   220  TYR220      0.0560
     90  CG       -32.8900    8.8690   -9.8780 C.ar  220  TYR220     -0.0198
     91  CD1      -33.4330    8.2550  -10.9590 C.ar  220  TYR220     -0.0009
     92  CD2      -32.5070   10.1800  -10.0110 C.ar  220  TYR220     -0.0009
     93  CE1      -33.5670    8.9060  -12.1360 C.ar  220  TYR220      0.0417
     94  CE2      -32.6380   10.8210  -11.1910 C.ar  220  TYR220      0.0417
     95  CZ       -33.1770   10.1740  -12.2480 C.ar  220  TYR220      0.1957
     96  OH       -33.3360   10.7660  -13.4510 O.3   220  TYR220     -0.2866
     97  N        -35.0470   14.5280  -16.6040 N.3   239  SER239     -0.1217
     98  CA       -35.3690   14.2960  -15.2150 C.3   239  SER239      0.1889
     99  C        -36.7680   14.7820  -14.8340 C.2   239  SER239      0.2288
    100  O        -37.0740   14.9810  -13.6540 O.2   239  SER239     -0.2866
    101  CB       -34.2900   14.8990  -14.2940 C.3   239  SER239      0.2089
    102  OG       -33.1480   14.0490  -14.1780 O.3   239  SER239     -0.2183
@<TRIPOS>BOND
     1     4     3    2
     2     3     2    1
     3     1     2    1
     4     2     5    1
     5     5     6    1
     6    11    13   ar
     7    11     8   ar
     8    13    14   ar
     9     6     8   ar
    10     6     7   ar
    11     8    10   ar
    12    21    19    1
    13     7     9   ar
    14    14    12   ar
    15    15    16    1
    16    59    58    1
    17    10    12   ar
    18    10     9   ar
    19    19    16    1
    20    19    20    1
    21    16    17    1
    22    18    17    2
    23    58    60    1
    24    58    57    1
    25    57    54    1
    26    17    23   am
    27    20    22    1
    28    55    54    1
    29    55    56    2
    30    97    98    1
    31    54    53    1
    32    36    37    1
    33    36    35    1
    34    26    25    2
    35    23    24    1
    36    84    82   ar
    37    84    83   ar
    38    82    80   ar
    39    37    31    1
    40    98    99    1
    41    98   101    1
    42    25    24    1
    43    25    27   am
    44    53    46   am
    45    35    32    1
    46    99   100    2
    47    47    46    2
    48    28    27    1
    49    28    29    1
    50    83    81   ar
    51    80    79   ar
    52    31    32    1
    53    31    29   am
    54   101   102    1
    55    46    45    1
    56    32    33    1
    57    29    30    2
    58    96    95    1
    59    81    79   ar
    60    65    62    1
    61    79    78    1
    62    45    48    1
    63    45    44    1
    64    33    38   am
    65    33    34    2
    66    48    49    1
    67    95    93   ar
    68    95    94   ar
    69    62    61    1
    70    62    63    1
    71    93    91   ar
    72    78    75    1
    73    38    39    1
    74    94    92   ar
    75    74    75    1
    76    91    90   ar
    77    75    76    1
    78    63    64    2
    79    63    66   am
    80    49    50    1
    81    39    40    1
    82    39    42    1
    83    40    41    2
    84    50    51    1
    85    92    90   ar
    86    66    67    1
    87    90    89    1
    88    76    85   am
    89    76    77    2
    90    43    42    1
    91    85    86    1
    92    70    67    1
    93    70    71    1
    94    51    52    1
    95    67    68    1
    96    89    86    1
    97    86    87    1
    98    73    71    1
    99    71    72    1
   100    68    69    2
   101    87    88    2
