@<TRIPOS>MOLECULE
tmp/2w4iD00.pdb
 95 91 0 0 0
SMALL
GASTEIGER

@<TRIPOS>ATOM
      1  N         36.7600   24.7150   61.0530 N.3    37  VAL37      -0.1231
      2  CA        36.5470   23.2980   60.7840 C.3    37  VAL37       0.1678
      3  C         37.6680   22.7960   59.8540 C.2    37  VAL37       0.2434
      4  O         38.1250   23.5530   58.9830 O.2    37  VAL37      -0.2733
      5  CB        35.1190   23.1270   60.1290 C.3    37  VAL37       0.0265
      6  CG1       35.0650   23.7270   58.7140 C.3    37  VAL37       0.0020
      7  CG2       34.6450   21.6910   60.1180 C.3    37  VAL37       0.0020
      8  N         38.1060   21.5170   59.9980 N.am   38  PRO38      -0.2729
      9  CA        37.6980   20.4760   60.9480 C.3    38  PRO38       0.1401
     10  C         38.3280   20.6290   62.3340 C.2    38  PRO38       0.2269
     11  O         39.4180   21.1890   62.4750 O.2    38  PRO38      -0.2865
     12  CB        38.2140   19.1830   60.2930 C.3    38  PRO38       0.0296
     13  CG        39.4640   19.6140   59.6010 C.3    38  PRO38       0.0237
     14  CD        39.1290   21.0170   59.0630 C.3    38  PRO38       0.0939
     15  N         41.0230   16.7000   63.1640 N.3    41  THR41      -0.1203
     16  CA        42.4140   16.5480   62.7420 C.3    41  THR41       0.1994
     17  C         43.3530   17.2860   63.6810 C.2    41  THR41       0.2617
     18  O         44.5700   17.2840   63.4820 O.2    41  THR41      -0.2717
     19  CB        42.6080   17.1400   61.3450 C.3    41  THR41       0.1784
     20  OG1       42.2490   18.5320   61.3850 O.3    41  THR41      -0.2211
     21  CG2       41.6890   16.4130   60.3460 C.3    41  THR41       0.0376
     22  N         42.7940   17.9430   64.6900 N.am   42  LYS42      -0.1979
     23  CA        43.6200   18.8060   65.5300 C.3    42  LYS42       0.1596
     24  C         43.8440   18.2630   66.9430 C.2    42  LYS42       0.2287
     25  O         43.3560   17.1790   67.2920 O.2    42  LYS42      -0.2864
     26  CB        43.0940   20.2400   65.4950 C.3    42  LYS42       0.0298
     27  CG        43.3320   20.8880   64.0850 C.3    42  LYS42       0.0038
     28  CD        42.2830   21.8920   63.7320 C.3    42  LYS42       0.0206
     29  CE        42.3720   22.2240   62.2190 C.3    42  LYS42       0.1093
     30  NZ        41.2920   23.1480   61.7960 N.3    42  LYS42      -0.1314
     31  N         39.9910   11.3340   63.8230 N.3   117  LYS117     -0.1245
     32  CA        41.2050   10.9910   64.5280 C.3   117  LYS117      0.1561
     33  C         41.1500   11.4350   65.9980 C.2   117  LYS117      0.2260
     34  O         41.4830   10.6490   66.8860 O.2   117  LYS117     -0.2867
     35  CB        42.4300   11.5510   63.8230 C.3   117  LYS117      0.0271
     36  CG        43.7330   11.0850   64.4970 C.3   117  LYS117      0.0035
     37  CD        44.9540   11.2550   63.6000 C.3   117  LYS117      0.0206
     38  CE        45.2510   12.7290   63.3160 C.3   117  LYS117      0.1093
     39  NZ        45.6200   12.8470   61.8550 N.3   117  LYS117     -0.1314
     40  N         39.0150    9.1710   58.9280 N.3   143  SER143     -0.1202
     41  CA        39.1430   10.6160   58.7990 C.3   143  SER143      0.2020
     42  C         38.6710   11.1300   57.4580 C.2   143  SER143      0.2618
     43  O         37.9550   12.1290   57.3780 O.2   143  SER143     -0.2717
     44  CB        40.5890   11.0170   59.0370 C.3   143  SER143      0.2103
     45  OG        40.9870   10.4760   60.2900 O.3   143  SER143     -0.2182
     46  N         39.0520   10.4320   56.3930 N.am  144  LEU144     -0.1979
     47  CA        38.7670   10.9300   55.0580 C.3   144  LEU144      0.1596
     48  C         37.2870   10.8670   54.6890 C.2   144  LEU144      0.2287
     49  O         36.8630   11.5150   53.7290 O.2   144  LEU144     -0.2864
     50  CB        39.6340   10.2050   54.0260 C.3   144  LEU144      0.0297
     51  CG        41.1430   10.5070   54.1140 C.3   144  LEU144      0.0022
     52  CD1       41.9240    9.6080   53.1290 C.3   144  LEU144      0.0001
     53  CD2       41.4940   12.0050   53.8460 C.3   144  LEU144      0.0001
     54  N         35.0620   12.3670   56.2080 N.3   146  VAL146     -0.1231
     55  CA        34.5750   13.7440   56.4550 C.3   146  VAL146      0.1678
     56  C         34.6810   14.6420   55.1940 C.2   146  VAL146      0.2434
     57  O         33.6650   15.1850   54.7490 O.2   146  VAL146     -0.2733
     58  CB        35.2270   14.3980   57.7370 C.3   146  VAL146      0.0265
     59  CG1       34.7210   15.8450   57.9350 C.3   146  VAL146      0.0020
     60  CG2       34.9550   13.5200   59.0260 C.3   146  VAL146      0.0020
     61  N         35.9030   14.8140   54.6310 N.am  147  PRO147     -0.2729
     62  CA        36.0030   15.6130   53.3880 C.3   147  PRO147      0.1401
     63  C         35.2220   15.0410   52.1980 C.2   147  PRO147      0.2269
     64  O         34.6590   15.8010   51.4230 O.2   147  PRO147     -0.2865
     65  CB        37.5180   15.6570   53.0850 C.3   147  PRO147      0.0296
     66  CG        38.1500   14.5980   53.9770 C.3   147  PRO147      0.0237
     67  CD        37.2210   14.3800   55.1350 C.3   147  PRO147      0.0939
     68  N         31.7830   16.2000   52.8650 N.3   150  GLU150     -0.1231
     69  CA        31.7840   17.6610   52.6220 C.3   150  GLU150      0.1699
     70  C         31.6550   17.9970   51.1220 C.2   150  GLU150      0.2592
     71  O         31.0200   18.9900   50.7520 O.2   150  GLU150     -0.2718
     72  CB        33.0560   18.3220   53.1920 C.3   150  GLU150      0.0402
     73  CG        33.1240   18.3960   54.7280 C.3   150  GLU150      0.1161
     74  CD        32.4310   19.6070   55.3140 C.2   150  GLU150      0.3649
     75  OE1       32.2670   20.6290   54.6160 O.co2 150  GLU150     -0.2457
     76  OE2       32.0660   19.5500   56.4930 O.co2 150  GLU150     -0.2457
     77  N         32.2920   17.1820   50.2830 N.am  151  GLU151     -0.1979
     78  CA        32.2450   17.3360   48.8200 C.3   151  GLU151      0.1602
     79  C         31.0580   16.6100   48.1690 C.2   151  GLU151      0.2287
     80  O         31.0290   16.4490   46.9350 O.2   151  GLU151     -0.2864
     81  CB        33.5280   16.7810   48.2070 C.3   151  GLU151      0.0415
     82  CG        34.7630   17.5120   48.6140 C.3   151  GLU151      0.1163
     83  CD        34.7140   18.9280   48.1590 C.2   151  GLU151      0.3649
     84  OE1       34.9190   19.1660   46.9490 O.co2 151  GLU151     -0.2457
     85  OE2       34.4420   19.7970   49.0080 O.co2 151  GLU151     -0.2457
     86  N         29.1020   13.5860   60.3960 N.3   183  HIS183     -0.1241
     87  CA        28.9700   13.4600   58.9460 C.3   183  HIS183      0.1621
     88  C         28.4960   12.0690   58.5550 C.2   183  HIS183      0.2264
     89  O         27.9110   11.8750   57.4730 O.2   183  HIS183     -0.2867
     90  CB        30.3190   13.7490   58.2770 C.3   183  HIS183      0.0745
     91  CG        30.6920   15.2020   58.2640 C.ar  183  HIS183      0.0817
     92  ND1       30.7790   15.9710   59.4130 N.ar  183  HIS183     -0.2268
     93  CD2       31.0380   16.0200   57.2340 C.ar  183  HIS183      0.1154
     94  CE1       31.1420   17.2020   59.0830 C.ar  183  HIS183      0.1986
     95  NE2       31.3170   17.2540   57.7660 N.ar  183  HIS183     -0.2212
@<TRIPOS>BOND
     1    80    79    2
     2    84    83   ar
     3    83    82    1
     4    83    85   ar
     5    79    78    1
     6    81    82    1
     7    81    78    1
     8    78    77    1
     9    77    70   am
    10    71    70    2
    11    70    69    1
    12    64    63    2
    13    63    62    1
    14    69    68    1
    15    69    72    1
    16    65    62    1
    17    65    66    1
    18    52    51    1
    19    72    73    1
    20    62    61    1
    21    49    48    2
    22    53    51    1
    23    66    67    1
    24    50    51    1
    25    50    47    1
    26    75    74   ar
    27    61    67    1
    28    61    56   am
    29    48    47    1
    30    73    74    1
    31    57    56    2
    32    47    46    1
    33    56    55    1
    34    74    76   ar
    35    54    55    1
    36    46    42   am
    37    55    58    1
    38    93    95   ar
    39    93    91   ar
    40    43    42    2
    41    42    41    1
    42    89    88    2
    43    58    59    1
    44    58    60    1
    45    95    94   ar
    46    91    90    1
    47    91    92   ar
    48    90    87    1
    49    88    87    1
    50     6     5    1
    51    41    40    1
    52    41    44    1
    53    87    86    1
    54     4     3    2
    55    44    45    1
    56    14    13    1
    57    14     8    1
    58    94    92   ar
    59    13    12    1
    60     3     8   am
    61     3     2    1
    62     8     9    1
    63     7     5    1
    64     5     2    1
    65    12     9    1
    66    21    19    1
    67     2     1    1
    68     9    10    1
    69    19    20    1
    70    19    16    1
    71    30    29    1
    72    39    38    1
    73    29    28    1
    74    10    11    2
    75    16    15    1
    76    16    17    1
    77    38    37    1
    78    18    17    2
    79    37    36    1
    80    17    22   am
    81    28    27    1
    82    35    36    1
    83    35    32    1
    84    31    32    1
    85    27    26    1
    86    32    33    1
    87    22    23    1
    88    26    23    1
    89    23    24    1
    90    33    34    2
    91    24    25    2
