@<TRIPOS>MOLECULE
tmp/2w4jA00.pdb
 162 150 0 0 0
SMALL
GASTEIGER

@<TRIPOS>ATOM
      1  N         17.4420   32.0950   13.1050 N.3    18  LEU18      -0.1231
      2  CA        18.0290   30.8770   13.6360 C.3    18  LEU18       0.1693
      3  C         19.3630   31.1360   14.3050 C.2    18  LEU18       0.2593
      4  O         19.7960   30.3660   15.1820 O.2    18  LEU18      -0.2718
      5  CB        18.2570   29.8520   12.5210 C.3    18  LEU18       0.0284
      6  CG        16.9600   29.3640   11.8380 C.3    18  LEU18       0.0019
      7  CD1       17.2420   28.6210   10.5290 C.3    18  LEU18       0.0001
      8  CD2       16.1740   28.4810   12.8110 C.3    18  LEU18       0.0001
      9  N         20.0920   32.1470   13.8750 N.am   19  GLY19      -0.1942
     10  CA        21.3590   32.4720   14.5050 C.3    19  GLY19       0.2014
     11  C         22.0280   33.5900   13.7080 C.2    19  GLY19       0.2640
     12  O         21.5310   34.0570   12.6600 O.2    19  GLY19      -0.2714
     13  N         23.2160   33.9380   14.1840 N.am   20  SER20      -0.1935
     14  CA        23.9980   34.9910   13.5350 C.3    20  SER20       0.2055
     15  C         25.4500   34.9450   13.9380 C.2    20  SER20       0.2644
     16  O         25.8050   34.2430   14.8710 O.2    20  SER20      -0.2714
     17  CB        23.4040   36.2990   13.9130 C.3    20  SER20       0.2130
     18  OG        23.4340   36.4830   15.3110 O.3    20  SER20      -0.2179
     19  N         26.2720   35.7060   13.2450 N.am   21  GLY21      -0.1939
     20  CA        27.6450   35.9640   13.6190 C.3    21  GLY21       0.2014
     21  C         27.9770   37.3890   13.2390 C.2    21  GLY21       0.2639
     22  O         27.1040   38.1700   12.9080 O.2    21  GLY21      -0.2714
     23  N         29.2520   37.7260   13.2590 N.am   22  GLN22      -0.1963
     24  CA        29.6630   39.1070   13.0500 C.3    22  GLN22       0.1733
     25  C         29.2350   39.6520   11.7070 C.2    22  GLN22       0.2616
     26  O         28.8030   40.7890   11.6320 O.2    22  GLN22      -0.2715
     27  CB        31.1780   39.2460   13.1960 C.3    22  GLN22       0.0408
     28  CG        31.6290   40.7040   13.1390 C.3    22  GLN22       0.0908
     29  CD        33.1270   40.9340   13.2800 C.2    22  GLN22       0.2608
     30  OE1       33.5630   42.0920   13.3850 O.2    22  GLN22      -0.2717
     31  NE2       33.9200   39.8680   13.1920 N.am   22  GLN22      -0.0878
     32  N         29.3100   38.8240   10.6720 N.am   23  PHE23      -0.1960
     33  CA        28.9600   39.3090    9.3250 C.3    23  PHE23       0.1771
     34  C         27.8430   38.5030    8.6550 C.2    23  PHE23       0.2619
     35  O         27.6790   38.5580    7.4350 O.2    23  PHE23      -0.2715
     36  CB        30.1720   39.2960    8.4140 C.3    23  PHE23       0.0574
     37  CG        31.3360   40.0950    8.9510 C.ar   23  PHE23      -0.0200
     38  CD1       31.2240   41.4570    9.1100 C.ar   23  PHE23      -0.0042
     39  CD2       32.5160   39.4650    9.2630 C.ar   23  PHE23      -0.0042
     40  CE1       32.3380   42.2220    9.6070 C.ar   23  PHE23      -0.0003
     41  CE2       33.6250   40.2050    9.7610 C.ar   23  PHE23      -0.0003
     42  CZ        33.5120   41.5650    9.9350 C.ar   23  PHE23      -0.0000
     43  N         27.0860   37.7410    9.4340 N.am   24  ALA24      -0.1977
     44  CA        26.0710   36.8690    8.8630 C.3    24  ALA24       0.1597
     45  C         24.8340   36.8410    9.7560 C.2    24  ALA24       0.2287
     46  O         24.9130   36.9410   10.9900 O.2    24  ALA24      -0.2864
     47  CB        26.6230   35.4070    8.6550 C.3    24  ALA24       0.0319
     48  N         21.1750   34.2790    9.9080 N.3    26  VAL26      -0.1245
     49  CA        20.5840   33.0640    9.3450 C.3    26  VAL26       0.1561
     50  C         19.0990   33.0540    9.7180 C.2    26  VAL26       0.2260
     51  O         18.7550   33.1690   10.9110 O.2    26  VAL26      -0.2867
     52  CB        21.3040   31.8150    9.8640 C.3    26  VAL26       0.0252
     53  CG1       20.7130   30.5500    9.1620 C.3    26  VAL26       0.0019
     54  CG2       22.7860   31.9340    9.5550 C.3    26  VAL26       0.0019
     55  N         17.5530   26.9970    5.7570 N.3    39  ALA39      -0.1245
     56  CA        18.1740   28.0690    6.5400 C.3    39  ALA39       0.1562
     57  C         18.9100   29.0140    5.5750 C.2    39  ALA39       0.2260
     58  O         19.8340   28.5880    4.8810 O.2    39  ALA39      -0.2867
     59  CB        19.1720   27.4620    7.5470 C.3    39  ALA39       0.0290
     60  N         21.3200   31.8510    4.9580 N.3    41  LYS41      -0.1245
     61  CA        22.4500   32.5440    5.5690 C.3    41  LYS41       0.1561
     62  C         22.8220   33.7530    4.7090 C.2    41  LYS41       0.2260
     63  O         23.2920   33.6230    3.5770 O.2    41  LYS41      -0.2867
     64  CB        23.6600   31.5940    5.7060 C.3    41  LYS41       0.0271
     65  CG        24.8870   32.2170    6.2810 C.3    41  LYS41       0.0035
     66  CD        26.0120   31.2030    6.5560 C.3    41  LYS41       0.0206
     67  CE        27.2680   31.8750    7.1180 C.3    41  LYS41       0.1093
     68  NZ        28.3470   30.8690    7.3710 N.3    41  LYS41      -0.1314
     69  N         25.8750   19.7740    6.5990 N.3    76  ILE76      -0.1245
     70  CA        24.8300   20.4270    5.8070 C.3    76  ILE76       0.1561
     71  C         25.2070   20.5220    4.3460 C.2    76  ILE76       0.2260
     72  O         26.3520   20.5060    3.9660 O.2    76  ILE76      -0.2867
     73  CB        24.4940   21.8240    6.3010 C.3    76  ILE76       0.0252
     74  CG1       25.7440   22.7130    6.4410 C.3    76  ILE76       0.0019
     75  CG2       23.6590   21.7100    7.5910 C.3    76  ILE76       0.0019
     76  CD1       25.4230   24.2060    6.5600 C.3    76  ILE76       0.0001
     77  N         20.7010   27.0330    2.7260 N.3    92  LEU92      -0.1231
     78  CA        21.3150   25.8450    3.3050 C.3    92  LEU92       0.1693
     79  C         20.2840   24.8690    3.7960 C.2    92  LEU92       0.2591
     80  O         19.1870   25.2450    4.1800 O.2    92  LEU92      -0.2718
     81  CB        22.1920   26.2310    4.5120 C.3    92  LEU92       0.0284
     82  CG        23.2720   27.2790    4.2930 C.3    92  LEU92       0.0019
     83  CD1       23.8940   27.7040    5.6430 C.3    92  LEU92       0.0001
     84  CD2       24.3080   26.7280    3.2820 C.3    92  LEU92       0.0001
     85  N         20.6660   23.5880    3.8580 N.am   93  GLU93      -0.1979
     86  CA        19.8460   22.6120    4.5550 C.3    93  GLU93       0.1602
     87  C         19.5390   23.1180    5.9720 C.2    93  GLU93       0.2287
     88  O         20.4420   23.4940    6.7280 O.2    93  GLU93      -0.2864
     89  CB        20.5870   21.2800    4.6200 C.3    93  GLU93       0.0415
     90  CG        19.8900   20.1550    5.3310 C.3    93  GLU93       0.1163
     91  CD        20.6230   18.8080    5.2330 C.2    93  GLU93       0.3649
     92  OE1       21.8470   18.8100    5.0140 O.co2  93  GLU93      -0.2457
     93  OE2       19.9590   17.7820    5.3850 O.co2  93  GLU93      -0.2457
     94  N         18.7430   22.7810    9.8520 N.3    95  VAL95      -0.1245
     95  CA        18.9720   21.8640   10.9530 C.3    95  VAL95       0.1561
     96  C         18.1800   22.4950   12.1150 C.2    95  VAL95       0.2260
     97  O         18.5350   23.5510   12.5790 O.2    95  VAL95      -0.2867
     98  CB        20.4280   21.6300   11.2840 C.3    95  VAL95       0.0252
     99  CG1       20.5500   20.3510   12.1600 C.3    95  VAL95       0.0019
    100  CG2       21.2870   21.4700   10.0460 C.3    95  VAL95       0.0019
    101  N         21.6840   24.5550   18.3250 N.3    99  GLU99      -0.1245
    102  CA        23.1080   24.3080   18.4250 C.3    99  GLU99       0.1567
    103  C         23.4160   23.2950   19.5170 C.2    99  GLU99       0.2260
    104  O         22.7500   23.2480   20.5650 O.2    99  GLU99      -0.2867
    105  CB        23.8950   25.5650   18.7720 C.3    99  GLU99       0.0388
    106  CG        23.8130   26.7080   17.7700 C.3    99  GLU99       0.1160
    107  CD        24.3580   28.0120   18.2960 C.2    99  GLU99       0.3649
    108  OE1       25.0210   28.0150   19.3450 O.co2  99  GLU99      -0.2457
    109  OE2       24.1590   29.0510   17.6090 O.co2  99  GLU99      -0.2457
    110  N         36.8650   25.5490   12.0830 N.3   138  ASP138     -0.1239
    111  CA        36.0040   26.2710   13.0150 C.3   138  ASP138      0.1674
    112  C         35.0760   25.3100   13.7610 C.2   138  ASP138      0.2266
    113  O         33.9300   25.6130   14.0580 O.2   138  ASP138     -0.2867
    114  CB        35.2310   27.3950   12.3190 C.3   138  ASP138      0.1410
    115  CG        34.8410   28.5530   13.2120 C.2   138  ASP138      0.3668
    116  OD1       35.3340   28.7070   14.3180 O.co2 138  ASP138     -0.2456
    117  OD2       34.0330   29.4020   12.7220 O.co2 138  ASP138     -0.2456
    118  N         28.9170   25.7760   18.8320 N.3   142  GLU142     -0.1231
    119  CA        27.9520   26.6060   18.0970 C.3   142  GLU142      0.1699
    120  C         27.8650   26.2990   16.6180 C.2   142  GLU142      0.2592
    121  O         26.9190   26.7970   15.9520 O.2   142  GLU142     -0.2718
    122  CB        28.1600   28.1100   18.2860 C.3   142  GLU142      0.0402
    123  CG        29.4010   28.6480   17.7080 C.3   142  GLU142      0.1161
    124  CD        29.5750   30.1400   17.9160 C.2   142  GLU142      0.3649
    125  OE1       28.9120   30.7150   18.8360 O.co2 142  GLU142     -0.2457
    126  OE2       30.3750   30.7530   17.1740 O.co2 142  GLU142     -0.2457
    127  N         28.8490   25.5500   16.1230 N.am  143  ASN143     -0.1974
    128  CA        28.9150   25.1340   14.7320 C.3   143  ASN143      0.1688
    129  C         28.5500   23.7020   14.4570 C.2   143  ASN143      0.2292
    130  O         28.9040   23.1150   13.4440 O.2   143  ASN143     -0.2864
    131  CB        30.2630   25.5050   14.1000 C.3   143  ASN143      0.1181
    132  CG        30.4680   26.9880   13.9500 C.2   143  ASN143      0.2629
    133  OD1       29.5080   27.7770   13.8830 O.2   143  ASN143     -0.2716
    134  ND2       31.7240   27.3860   13.8550 N.am  143  ASN143     -0.0877
    135  N         24.9570   21.3790   14.8330 N.3   145  MET145     -0.1245
    136  CA        23.4930   21.5520   14.9930 C.3   145  MET145      0.1570
    137  C         22.8460   20.1750   15.2070 C.2   145  MET145      0.2261
    138  O         23.2310   19.2000   14.5710 O.2   145  MET145     -0.2867
    139  CB        22.8650   22.1630   13.7280 C.3   145  MET145      0.0387
    140  CG        23.3330   23.5970   13.4220 C.3   145  MET145      0.0595
    141  SD        22.9370   24.7730   14.7550 S.3   145  MET145     -0.1393
    142  CE        21.1450   24.7050   14.6340 C.3   145  MET145      0.0692
    143  N         27.9780   22.5090   10.6790 N.3   159  ILE159     -0.1231
    144  CA        27.6280   23.7030    9.9110 C.3   159  ILE159      0.1692
    145  C         28.8220   24.6680    9.9010 C.2   159  ILE159      0.2592
    146  O         29.9190   24.3400   10.3920 O.2   159  ILE159     -0.2718
    147  CB        26.3820   24.3960   10.5050 C.3   159  ILE159      0.0266
    148  CG1       26.6570   24.9320   11.9010 C.3   159  ILE159      0.0019
    149  CG2       25.1490   23.4620   10.4480 C.3   159  ILE159      0.0020
    150  CD1       25.7870   26.1630   12.2670 C.3   159  ILE159      0.0001
    151  N         28.6140   25.8510    9.3160 N.am  160  ASP160     -0.1974
    152  CA        29.5690   26.9520    9.3360 C.3   160  ASP160      0.1709
    153  C         30.8800   26.6310    8.6340 C.2   160  ASP160      0.2293
    154  O         31.9150   26.3980    9.2710 O.2   160  ASP160     -0.2864
    155  CB        29.8210   27.5110   10.7170 C.3   160  ASP160      0.1436
    156  CG        30.5590   28.8490   10.6480 C.2   160  ASP160      0.3671
    157  OD1       30.9480   29.2690    9.5480 O.co2 160  ASP160     -0.2456
    158  OD2       30.7310   29.4990   11.7090 O.co2 160  ASP160     -0.2456
    159  N         32.5460   28.8560    6.9550 N.3   162  GLY162     -0.1225
    160  CA        33.1520   30.1640    6.7050 C.3   162  GLY162      0.1811
    161  C         34.6560   30.2520    6.8420 C.2   162  GLY162      0.2280
    162  O         35.2600   31.2410    6.4030 O.2   162  GLY162     -0.2866
@<TRIPOS>BOND
     1    77    78    1
     2    84    82    1
     3    78    79    1
     4    78    81    1
     5    63    62    2
     6    79    85   am
     7    79    80    2
     8    85    86    1
     9    72    71    2
    10    82    81    1
    11    82    83    1
    12    71    70    1
    13    86    89    1
    14    86    87    1
    15    89    90    1
    16    62    61    1
    17    58    57    2
    18    60    61    1
    19    92    91   ar
    20    91    90    1
    21    91    93   ar
    22    61    64    1
    23    57    56    1
    24    64    65    1
    25    55    56    1
    26    70    73    1
    27    70    69    1
    28    87    88    2
    29    65    66    1
    30    73    74    1
    31    73    75    1
    32   162   161    2
    33    74    76    1
    34    56    59    1
    35    66    67    1
    36   160   161    1
    37   160   159    1
    38    67    68    1
    39    35    34    2
    40    36    37    1
    41    36    33    1
    42   153   154    2
    43   153   152    1
    44    47    44    1
    45    34    33    1
    46    34    43   am
    47    44    43    1
    48    44    45    1
    49    37    38   ar
    50    37    39   ar
    51    38    40   ar
    52    53    52    1
    53    39    41   ar
    54   151   152    1
    55   151   145   am
    56    33    32    1
    57   152   155    1
    58    49    50    1
    59    49    52    1
    60    49    48    1
    61   157   156   ar
    62    54    52    1
    63    40    42   ar
    64    50    51    2
    65    45    46    2
    66    41    42   ar
    67    94    95    1
    68   145   144    1
    69   145   146    2
    70   144   147    1
    71   144   143    1
    72   100    98    1
    73   149   147    1
    74   147   148    1
    75     7     6    1
    76   156   155    1
    77   156   158   ar
    78    32    25   am
    79    95    98    1
    80    95    96    1
    81    98    99    1
    82    26    25    2
    83    25    24    1
    84     6     5    1
    85     6     8    1
    86   148   150    1
    87   110   111    1
    88    96    97    2
    89   114   111    1
    90   114   115    1
    91     5     2    1
    92    12    11    2
    93   117   115   ar
    94    22    21    2
    95   111   112    1
    96    24    27    1
    97    24    23    1
    98     1     2    1
    99    28    27    1
   100    28    29    1
   101    31    29   am
   102   115   116   ar
   103    21    23   am
   104    21    20    1
   105    19    20    1
   106    19    15   am
   107    29    30    2
   108   140   139    1
   109   140   141    1
   110   130   129    2
   111    14    17    1
   112    14    15    1
   113    14    13    1
   114     2     3    1
   115    11    13   am
   116    11    10    1
   117   139   136    1
   118   112   113    2
   119   134   132   am
   120     9     3   am
   121     9    10    1
   122   133   132    2
   123    17    18    1
   124    15    16    2
   125   132   131    1
   126   131   128    1
   127     3     4    2
   128   129   128    1
   129   138   137    2
   130   142   141    1
   131   128   127    1
   132   135   136    1
   133   136   137    1
   134   121   120    2
   135   127   120   am
   136   120   119    1
   137   126   124   ar
   138   109   107   ar
   139   123   124    1
   140   123   122    1
   141   106   107    1
   142   106   105    1
   143   124   125   ar
   144   119   122    1
   145   119   118    1
   146   107   108   ar
   147   101   102    1
   148   102   105    1
   149   102   103    1
   150   103   104    2
