@<TRIPOS>MOLECULE
tmp/2w4qA02.pdb
 142 136 0 0 0
SMALL
GASTEIGER

@<TRIPOS>ATOM
      1  N          3.9850   -7.8900   36.4750 N.3    98  THR98      -0.1218
      2  CA         4.7480   -8.5340   35.4110 C.3    98  THR98       0.1862
      3  C          6.0160   -9.1280   35.9850 C.2    98  THR98       0.2287
      4  O          6.5030   -8.6630   37.0130 O.2    98  THR98      -0.2866
      5  CB         5.2000   -7.5300   34.3180 C.3    98  THR98       0.1770
      6  OG1        6.0270   -6.5360   34.9240 O.3    98  THR98      -0.2211
      7  CG2        4.0070   -6.8290   33.6670 C.3    98  THR98       0.0375
      8  N          9.8250  -10.9220   34.1270 N.3   100  PHE100     -0.1241
      9  CA        10.6170  -11.4430   33.0020 C.3   100  PHE100      0.1605
     10  C         10.6680  -12.9850   32.9600 C.2   100  PHE100      0.2264
     11  O         10.9550  -13.5670   31.9200 O.2   100  PHE100     -0.2867
     12  CB        12.0580  -10.9120   33.0960 C.3   100  PHE100      0.0534
     13  CG        12.1920   -9.4400   32.7780 C.ar  100  PHE100     -0.0203
     14  CD1       12.7990   -9.0300   31.6140 C.ar  100  PHE100     -0.0042
     15  CD2       11.7230   -8.4710   33.6590 C.ar  100  PHE100     -0.0042
     16  CE1       12.9350   -7.6770   31.3110 C.ar  100  PHE100     -0.0003
     17  CE2       11.8430   -7.1130   33.3660 C.ar  100  PHE100     -0.0003
     18  CZ        12.4490   -6.7220   32.1840 C.ar  100  PHE100     -0.0000
     19  N          6.9150   -6.9640   39.3660 N.3   116  GLU116     -0.1231
     20  CA         6.7520   -5.5130   39.3540 C.3   116  GLU116      0.1699
     21  C          5.2890   -5.1930   39.1420 C.2   116  GLU116      0.2592
     22  O          4.6540   -5.7490   38.2500 O.2   116  GLU116     -0.2718
     23  CB         7.5470   -4.8770   38.2130 C.3   116  GLU116      0.0402
     24  CG         9.0190   -4.7570   38.4530 C.3   116  GLU116      0.1161
     25  CD         9.3440   -3.8310   39.6120 C.2   116  GLU116      0.3649
     26  OE1        8.7440   -2.7310   39.6940 O.co2 116  GLU116     -0.2457
     27  OE2       10.1910   -4.2160   40.4490 O.co2 116  GLU116     -0.2457
     28  N          4.7480   -4.3080   39.9610 N.am  117  LYS117     -0.1966
     29  CA         3.3830   -3.8430   39.7720 C.3   117  LYS117      0.1728
     30  C          3.3680   -2.8760   38.5880 C.2   117  LYS117      0.2616
     31  O          4.3090   -2.1050   38.4080 O.2   117  LYS117     -0.2715
     32  CB         2.8380   -3.1690   41.0390 C.3   117  LYS117      0.0311
     33  CG         1.4500   -2.6420   40.8710 C.3   117  LYS117      0.0038
     34  CD         0.9090   -2.1340   42.2220 C.3   117  LYS117      0.0206
     35  CE        -0.4170   -1.2400   42.1950 C.3   117  LYS117      0.1093
     36  NZ        -1.5280   -1.4730   41.2040 N.3   117  LYS117     -0.1314
     37  N          2.3210   -2.9560   37.7700 N.am  118  VAL118     -0.1963
     38  CA         2.1700   -2.0830   36.6040 C.3   118  VAL118      0.1727
     39  C          0.8440   -1.3420   36.6850 C.2   118  VAL118      0.2616
     40  O         -0.1350   -1.8220   37.3060 O.2   118  VAL118     -0.2715
     41  CB         2.2580   -2.8630   35.2720 C.3   118  VAL118      0.0290
     42  CG1        3.5750   -3.6440   35.2170 C.3   118  VAL118      0.0023
     43  CG2        1.0660   -3.7790   35.1020 C.3   118  VAL118      0.0023
     44  N          0.8280   -0.1600   36.0780 N.am  119  ASP119     -0.1971
     45  CA        -0.3450    0.7010   36.0580 C.3   119  ASP119      0.1709
     46  C         -1.0790    0.5430   34.7220 C.2   119  ASP119      0.2293
     47  O         -0.5950    1.0180   33.6810 O.2   119  ASP119     -0.2864
     48  CB         0.0730    2.1500   36.2470 C.3   119  ASP119      0.1436
     49  CG        -1.1170    3.0980   36.2900 C.2   119  ASP119      0.3671
     50  OD1       -2.2680    2.6330   36.1050 O.co2 119  ASP119     -0.2456
     51  OD2       -0.8890    4.3020   36.5170 O.co2 119  ASP119     -0.2456
     52  N         -1.2800    3.1800   31.8500 N.3   122  LEU122     -0.1245
     53  CA        -0.2350    3.3660   30.8250 C.3   122  LEU122      0.1561
     54  C         -0.6180    2.7700   29.4650 C.2   122  LEU122      0.2260
     55  O         -0.1610    3.2620   28.4320 O.2   122  LEU122     -0.2867
     56  CB         1.1060    2.7830   31.2810 C.3   122  LEU122      0.0270
     57  CG         1.7900    3.4850   32.4460 C.3   122  LEU122      0.0019
     58  CD1        3.0240    2.7020   32.8660 C.3   122  LEU122      0.0001
     59  CD2        2.1240    4.9250   32.0720 C.3   122  LEU122      0.0001
     60  N          1.9650   -4.4000   27.5470 N.3   130  PHE130     -0.1227
     61  CA         3.1060   -4.3490   28.4270 C.3   130  PHE130      0.1736
     62  C          4.1630   -5.3720   28.0480 C.2   130  PHE130      0.2595
     63  O          5.2880   -5.2930   28.5480 O.2   130  PHE130     -0.2718
     64  CB         2.6850   -4.5490   29.8890 C.3   130  PHE130      0.0547
     65  CG         2.1490   -3.2970   30.5710 C.ar  130  PHE130     -0.0202
     66  CD1        2.9000   -2.1160   30.6020 C.ar  130  PHE130     -0.0042
     67  CD2        0.9300   -3.3220   31.2550 C.ar  130  PHE130     -0.0042
     68  CE1        2.4340   -0.9820   31.2960 C.ar  130  PHE130     -0.0003
     69  CE2        0.4750   -2.1850   31.9350 C.ar  130  PHE130     -0.0003
     70  CZ         1.2230   -1.0300   31.9470 C.ar  130  PHE130     -0.0000
     71  N          3.8010   -6.3530   27.2120 N.am  131  LEU131     -0.1980
     72  CA         4.7580   -7.3620   26.7460 C.3   131  LEU131      0.1596
     73  C          5.3300   -7.0090   25.3780 C.2   131  LEU131      0.2287
     74  O          6.1670   -7.7430   24.8280 O.2   131  LEU131     -0.2864
     75  CB         4.1010   -8.7380   26.6840 C.3   131  LEU131      0.0297
     76  CG         3.4730   -9.2620   27.9720 C.3   131  LEU131      0.0022
     77  CD1        2.7570  -10.5830   27.7350 C.3   131  LEU131      0.0001
     78  CD2        4.5630   -9.4300   29.0050 C.3   131  LEU131      0.0001
     79  N          4.6160   -1.2320   24.6870 N.3   134  ILE134     -0.1231
     80  CA         4.8080   -0.5510   25.9880 C.3   134  ILE134      0.1692
     81  C          5.4780   -1.5470   26.9720 C.2   134  ILE134      0.2593
     82  O          5.1280   -1.6760   28.1630 O.2   134  ILE134     -0.2718
     83  CB         3.5000    0.0870   26.4540 C.3   134  ILE134      0.0266
     84  CG1        2.9820    1.0100   25.3270 C.3   134  ILE134      0.0019
     85  CG2        3.7040    0.9610   27.7150 C.3   134  ILE134      0.0020
     86  CD1        1.5440    1.4050   25.4920 C.3   134  ILE134      0.0001
     87  N          6.4940   -2.2130   26.4270 N.am  135  GLY135     -0.1942
     88  CA         7.2930   -3.2170   27.1240 C.3   135  GLY135      0.2014
     89  C          8.6820   -3.3000   26.5100 C.2   135  GLY135      0.2638
     90  O          9.1460   -2.3570   25.8550 O.2   135  GLY135     -0.2714
     91  N          9.3240   -4.4430   26.7220 N.am  136  MET136     -0.1976
     92  CA        10.7150   -4.6340   26.3310 C.3   136  MET136      0.1605
     93  C         10.9500   -4.4320   24.8170 C.2   136  MET136      0.2287
     94  O         11.9050   -3.7600   24.4330 O.2   136  MET136     -0.2864
     95  CB        11.2080   -6.0030   26.8120 C.3   136  MET136      0.0413
     96  CG        11.3270   -6.1090   28.3480 C.3   136  MET136      0.0598
     97  SD        12.4760   -4.8950   29.0060 S.3   136  MET136     -0.1393
     98  CE        14.0160   -5.5270   28.3630 C.3   136  MET136      0.0692
     99  N         10.7970   -0.6670   24.1970 N.3   139  LEU139     -0.1245
    100  CA        11.9730   -0.0250   24.7540 C.3   139  LEU139      0.1561
    101  C         13.2040   -0.2920   23.9050 C.2   139  LEU139      0.2260
    102  O         14.0060    0.5980   23.6890 O.2   139  LEU139     -0.2867
    103  CB        12.2380   -0.4910   26.1850 C.3   139  LEU139      0.0270
    104  CG        11.2830    0.0080   27.2400 C.3   139  LEU139      0.0019
    105  CD1       11.5650   -0.7170   28.5860 C.3   139  LEU139      0.0001
    106  CD2       11.4270    1.5460   27.3920 C.3   139  LEU139      0.0001
    107  N         14.5510    2.9360   31.0610 N.3   297  PHE297     -0.1227
    108  CA        13.2780    2.2050   30.9790 C.3   297  PHE297      0.1736
    109  C         12.1170    3.1210   31.4070 C.2   297  PHE297      0.2595
    110  O         11.0640    3.1410   30.7720 O.2   297  PHE297     -0.2718
    111  CB        13.3170    0.9240   31.8410 C.3   297  PHE297      0.0547
    112  CG        14.1450   -0.2210   31.2530 C.ar  297  PHE297     -0.0202
    113  CD1       15.0030   -0.0380   30.1800 C.ar  297  PHE297     -0.0042
    114  CD2       14.0600   -1.4940   31.8150 C.ar  297  PHE297     -0.0042
    115  CE1       15.7430   -1.0960   29.6720 C.ar  297  PHE297     -0.0003
    116  CE2       14.7910   -2.5580   31.3110 C.ar  297  PHE297     -0.0003
    117  CZ        15.6430   -2.3600   30.2400 C.ar  297  PHE297     -0.0000
    118  N         12.3120    3.8960   32.4670 N.am  298  GLU298     -0.1979
    119  CA        11.2570    4.8150   32.9510 C.3   298  GLU298      0.1602
    120  C         10.8630    5.8470   31.8730 C.2   298  GLU298      0.2287
    121  O          9.7210    5.8730   31.4370 O.2   298  GLU298     -0.2864
    122  CB        11.6450    5.5000   34.2810 C.3   298  GLU298      0.0415
    123  CG        10.7040    6.6450   34.6560 C.3   298  GLU298      0.1163
    124  CD        10.9240    7.2230   36.0490 C.2   298  GLU298      0.3649
    125  OE1       12.0520    7.2330   36.5770 O.co2 298  GLU298     -0.2457
    126  OE2        9.9380    7.6920   36.6010 O.co2 298  GLU298     -0.2457
    127  N          9.3000    3.9550   28.7200 N.3   301  ILE301     -0.1231
    128  CA         7.9020    3.5390   28.9160 C.3   301  ILE301      0.1692
    129  C          6.9660    4.7340   28.9510 C.2   301  ILE301      0.2591
    130  O          5.9120    4.7190   28.3280 O.2   301  ILE301     -0.2718
    131  CB         7.7550    2.6810   30.2000 C.3   301  ILE301      0.0266
    132  CG1        8.3870    1.2930   29.9680 C.3   301  ILE301      0.0019
    133  CG2        6.2780    2.5200   30.6190 C.3   301  ILE301      0.0020
    134  CD1        7.7680    0.4350   28.8150 C.3   301  ILE301      0.0001
    135  N          7.3510    5.7930   29.6580 N.am  302  LEU302     -0.1980
    136  CA         6.5110    6.9900   29.7230 C.3   302  LEU302      0.1596
    137  C          6.2780    7.5890   28.3040 C.2   302  LEU302      0.2287
    138  O          5.1680    8.0170   28.0080 O.2   302  LEU302     -0.2864
    139  CB         7.1090    8.0250   30.6810 C.3   302  LEU302      0.0297
    140  CG         7.0330    7.7160   32.1900 C.3   302  LEU302      0.0022
    141  CD1        7.6790    8.8170   33.0370 C.3   302  LEU302      0.0001
    142  CD2        5.5650    7.5330   32.6120 C.3   302  LEU302      0.0001
@<TRIPOS>BOND
     1   102   101    2
     2   101   100    1
     3    99   100    1
     4    94    93    2
     5    79    80    1
     6   100   103    1
     7    93    92    1
     8    74    73    2
     9    84    86    1
    10    84    83    1
    11    73    72    1
    12    90    89    2
    13    80    83    1
    14    80    81    1
    15   103   104    1
    16    92    91    1
    17    92    95    1
    18    87    81   am
    19    87    88    1
    20    83    85    1
    21    89    91   am
    22    89    88    1
    23    75    72    1
    24    75    76    1
    25    72    71    1
    26    95    96    1
    27    81    82    2
    28    71    62   am
    29   104   106    1
    30   104   105    1
    31    60    61    1
    32    77    76    1
    33    76    78    1
    34   138   137    2
    35    62    61    1
    36    62    63    2
    37   137   136    1
    38   130   129    2
    39    96    97    1
    40    98    97    1
    41    61    64    1
    42    55    54    2
    43   127   128    1
    44   134   132    1
    45   128   129    1
    46   128   131    1
    47   129   135   am
    48    54    53    1
    49   135   136    1
    50   115   113   ar
    51   115   117   ar
    52   136   139    1
    53    64    65    1
    54   132   131    1
    55   113   112   ar
    56   131   133    1
    57   117   116   ar
    58    65    66   ar
    59    65    67   ar
    60    66    68   ar
    61   139   140    1
    62   110   109    2
    63    53    56    1
    64    53    52    1
    65   108   107    1
    66   108   109    1
    67   108   111    1
    68   112   114   ar
    69   112   111    1
    70    67    69   ar
    71    56    57    1
    72    68    70   ar
    73   116   114   ar
    74    16    14   ar
    75    16    18   ar
    76   109   118   am
    77   121   120    2
    78    14    13   ar
    79   120   119    1
    80    11    10    2
    81    69    70   ar
    82    59    57    1
    83    18    17   ar
    84   140   142    1
    85   140   141    1
    86    57    58    1
    87   118   119    1
    88    13    12    1
    89    13    15   ar
    90   119   122    1
    91    10     9    1
    92     9    12    1
    93     9     8    1
    94    17    15   ar
    95     7     5    1
    96    47    46    2
    97   122   123    1
    98     5     6    1
    99     5     2    1
   100   123   124    1
   101    46    45    1
   102    43    41    1
   103    42    41    1
   104    41    38    1
   105     2     3    1
   106     2     1    1
   107     3     4    2
   108   124   125   ar
   109   124   126   ar
   110    45    44    1
   111    45    48    1
   112    44    39   am
   113    50    49   ar
   114    48    49    1
   115    49    51   ar
   116    38    39    1
   117    38    37    1
   118    39    40    2
   119    37    30   am
   120    23    24    1
   121    23    20    1
   122    22    21    2
   123    31    30    2
   124    24    25    1
   125    30    29    1
   126    21    20    1
   127    21    28   am
   128    20    19    1
   129    25    26   ar
   130    25    27   ar
   131    29    28    1
   132    29    32    1
   133    33    32    1
   134    33    34    1
   135    36    35    1
   136    35    34    1
