@<TRIPOS>MOLECULE
tmp/2w4qA01.pdb
 175 172 0 0 0
SMALL
GASTEIGER

@<TRIPOS>ATOM
      1  N         11.8220  -14.3090   20.0030 N.3    51  PRO51      -0.2102
      2  CA        12.8690  -15.0550   19.3220 C.3    51  PRO51       0.1504
      3  C         14.0230  -15.5400   20.2000 C.2    51  PRO51       0.2575
      4  O         14.4660  -16.6530   20.0070 O.2    51  PRO51      -0.2718
      5  CB        13.3500  -14.0740   18.2580 C.3    51  PRO51       0.0282
      6  CG        12.1380  -13.3120   17.9370 C.3    51  PRO51       0.0208
      7  CD        11.5000  -13.0660   19.2760 C.3    51  PRO51       0.0893
      8  N         14.4620  -14.7560   21.1860 N.am   52  TYR52      -0.1977
      9  CA        15.5800  -15.1600   22.0250 C.3    52  TYR52       0.1639
     10  C         15.3460  -16.5140   22.6890 C.2    52  TYR52       0.2290
     11  O         16.3230  -17.2240   23.0300 O.2    52  TYR52      -0.2864
     12  CB        15.8980  -14.1060   23.1040 C.3    52  TYR52       0.0560
     13  CG        14.9690  -14.1610   24.3010 C.ar   52  TYR52      -0.0198
     14  CD1       15.2390  -14.9960   25.3820 C.ar   52  TYR52      -0.0009
     15  CD2       13.8080  -13.4000   24.3460 C.ar   52  TYR52      -0.0009
     16  CE1       14.3740  -15.0540   26.4860 C.ar   52  TYR52       0.0417
     17  CE2       12.9330  -13.4500   25.4620 C.ar   52  TYR52       0.0417
     18  CZ        13.2280  -14.2780   26.5160 C.ar   52  TYR52       0.1957
     19  OH        12.3830  -14.3610   27.6020 O.3    52  TYR52      -0.2866
     20  N         17.2730  -19.7660   21.7220 N.3    55  CYS55      -0.1235
     21  CA        18.5450  -20.0540   22.4170 C.3    55  CYS55       0.1677
     22  C         18.3670  -20.8770   23.6820 C.2    55  CYS55       0.2270
     23  O         19.2290  -21.7070   24.0000 O.2    55  CYS55      -0.2867
     24  CB        19.2560  -18.7640   22.8080 C.3    55  CYS55       0.0956
     25  SG        19.5520  -17.6480   21.4130 S.3    55  CYS55      -0.0801
     26  N         25.2430  -17.4450   25.4490 N.3    63  THR63      -0.1218
     27  CA        25.3870  -16.1780   26.1680 C.3    63  THR63       0.1862
     28  C         24.9330  -16.2770   27.6250 C.2    63  THR63       0.2287
     29  O         23.9430  -16.9520   27.9470 O.2    63  THR63      -0.2866
     30  CB        24.6130  -15.0220   25.4610 C.3    63  THR63       0.1770
     31  OG1       24.6190  -13.8610   26.3050 O.3    63  THR63      -0.2211
     32  CG2       23.1680  -15.4260   25.1460 C.3    63  THR63       0.0375
     33  N         23.5800  -14.0470   29.3690 N.3    65  TYR65      -0.1227
     34  CA        22.3780  -13.2820   29.6550 C.3    65  TYR65       0.1736
     35  C         21.1310  -14.1430   29.8280 C.2    65  TYR65       0.2595
     36  O         20.2020  -13.7490   30.5000 O.2    65  TYR65      -0.2718
     37  CB        22.1640  -12.2230   28.5940 C.3    65  TYR65       0.0548
     38  CG        23.0350  -11.0220   28.8040 C.ar   65  TYR65      -0.0200
     39  CD1       22.5910   -9.9510   29.5700 C.ar   65  TYR65      -0.0009
     40  CD2       24.2830  -10.9310   28.2140 C.ar   65  TYR65      -0.0009
     41  CE1       23.3850   -8.8290   29.7580 C.ar   65  TYR65       0.0417
     42  CE2       25.0890   -9.8130   28.4010 C.ar   65  TYR65       0.0417
     43  CZ        24.6380   -8.7680   29.1690 C.ar   65  TYR65       0.1957
     44  OH        25.4280   -7.6520   29.3510 O.3    65  TYR65      -0.2866
     45  N         21.1300  -15.3330   29.2570 N.am   66  ILE66      -0.1980
     46  CA        20.0060  -16.2340   29.3770 C.3    66  ILE66       0.1595
     47  C         20.5580  -17.6410   29.4930 C.2    66  ILE66       0.2287
     48  O         21.5610  -17.9930   28.8400 O.2    66  ILE66      -0.2864
     49  CB        19.0420  -16.1600   28.1450 C.3    66  ILE66       0.0276
     50  CG1       19.8180  -16.3600   26.8300 C.3    66  ILE66       0.0022
     51  CG2       18.2440  -14.8460   28.1770 C.3    66  ILE66       0.0022
     52  CD1       18.9710  -16.2500   25.4910 C.3    66  ILE66       0.0001
     53  N          9.8250  -10.9220   34.1270 N.3   100  PHE100     -0.1227
     54  CA        10.6170  -11.4430   33.0020 C.3   100  PHE100      0.1736
     55  C         10.6680  -12.9850   32.9600 C.2   100  PHE100      0.2595
     56  O         10.9550  -13.5670   31.9200 O.2   100  PHE100     -0.2718
     57  CB        12.0580  -10.9120   33.0960 C.3   100  PHE100      0.0547
     58  CG        12.1920   -9.4400   32.7780 C.ar  100  PHE100     -0.0202
     59  CD1       12.7990   -9.0300   31.6140 C.ar  100  PHE100     -0.0042
     60  CD2       11.7230   -8.4710   33.6590 C.ar  100  PHE100     -0.0042
     61  CE1       12.9350   -7.6770   31.3110 C.ar  100  PHE100     -0.0003
     62  CE2       11.8430   -7.1130   33.3660 C.ar  100  PHE100     -0.0003
     63  CZ        12.4490   -6.7220   32.1840 C.ar  100  PHE100     -0.0000
     64  N         10.4380  -13.6380   34.0990 N.am  101  TYR101     -0.1976
     65  CA        10.5760  -15.0840   34.2180 C.3   101  TYR101      0.1639
     66  C          9.3090  -15.7250   34.7790 C.2   101  TYR101      0.2290
     67  O          9.3330  -16.4820   35.7360 O.2   101  TYR101     -0.2864
     68  CB        11.8490  -15.4120   35.0150 C.3   101  TYR101      0.0560
     69  CG        13.0540  -14.9930   34.1890 C.ar  101  TYR101     -0.0198
     70  CD1       13.2600  -15.5630   32.9220 C.ar  101  TYR101     -0.0009
     71  CD2       13.9060  -13.9600   34.5960 C.ar  101  TYR101     -0.0009
     72  CE1       14.3110  -15.1610   32.1060 C.ar  101  TYR101      0.0417
     73  CE2       14.9750  -13.5460   33.7790 C.ar  101  TYR101      0.0417
     74  CZ        15.1610  -14.1580   32.5290 C.ar  101  TYR101      0.1957
     75  OH        16.1730  -13.8030   31.6680 O.3   101  TYR101     -0.2866
     76  N          9.3240   -4.4430   26.7220 N.3   136  MET136     -0.1245
     77  CA        10.7150   -4.6340   26.3310 C.3   136  MET136      0.1570
     78  C         10.9500   -4.4320   24.8170 C.2   136  MET136      0.2261
     79  O         11.9050   -3.7600   24.4330 O.2   136  MET136     -0.2867
     80  CB        11.2080   -6.0030   26.8120 C.3   136  MET136      0.0387
     81  CG        11.3270   -6.1090   28.3480 C.3   136  MET136      0.0595
     82  SD        12.4760   -4.8950   29.0060 S.3   136  MET136     -0.1393
     83  CE        14.0160   -5.5270   28.3630 C.3   136  MET136      0.0692
     84  N         13.3320   -1.5210   23.4180 N.3   140  THR140     -0.1218
     85  CA        14.4390   -1.8970   22.5530 C.3   140  THR140      0.1862
     86  C         14.4750   -0.9750   21.3260 C.2   140  THR140      0.2287
     87  O         15.5250   -0.4360   20.9570 O.2   140  THR140     -0.2866
     88  CB        14.3330   -3.3650   22.1040 C.3   140  THR140      0.1770
     89  OG1       14.3040   -4.2230   23.2540 O.3   140  THR140     -0.2211
     90  CG2       15.5180   -3.7460   21.2360 C.3   140  THR140      0.0375
     91  N         19.9250   -4.7480   16.3540 N.3   254  CYS254     -0.1221
     92  CA        18.9700   -5.2290   17.3330 C.3   254  CYS254      0.1808
     93  C         18.9950   -6.7470   17.4560 C.2   254  CYS254      0.2602
     94  O         19.1720   -7.2850   18.5520 O.2   254  CYS254     -0.2717
     95  CB        17.5690   -4.7580   16.9510 C.3   254  CYS254      0.0970
     96  SG        16.3350   -5.0750   18.1760 S.3   254  CYS254     -0.0800
     97  N         18.8170   -7.4230   16.3230 N.am  255  GLY255     -0.1942
     98  CA        18.8260   -8.8780   16.2530 C.3   255  GLY255      0.2014
     99  C         19.2970   -9.3470   14.8970 C.2   255  GLY255      0.2639
    100  O         19.4150   -8.5460   13.9630 O.2   255  GLY255     -0.2714
    101  N         19.5750  -10.6450   14.7950 N.am  256  GLN256     -0.1963
    102  CA        19.9530  -11.2690   13.5230 C.3   256  GLN256      0.1733
    103  C         19.1490  -12.5560   13.3270 C.2   256  GLN256      0.2616
    104  O         19.6900  -13.6500   13.2930 O.2   256  GLN256     -0.2715
    105  CB        21.4560  -11.5390   13.4900 C.3   256  GLN256      0.0408
    106  CG        22.3250  -10.2580   13.7270 C.3   256  GLN256      0.0908
    107  CD        22.5610   -9.4340   12.4690 C.2   256  GLN256      0.2608
    108  OE1       23.5270   -9.6800   11.7450 O.2   256  GLN256     -0.2717
    109  NE2       21.7180   -8.4120   12.2320 N.am  256  GLN256     -0.0878
    110  N         17.8330  -12.4110   13.2260 N.am  257  ILE257     -0.1977
    111  CA        16.9780  -13.5780   13.3050 C.3   257  ILE257      0.1596
    112  C         17.2060  -14.5370   12.1240 C.2   257  ILE257      0.2287
    113  O         16.9670  -15.7320   12.2670 O.2   257  ILE257     -0.2864
    114  CB        15.4960  -13.1990   13.4940 C.3   257  ILE257      0.0276
    115  CG1       14.7170  -14.3380   14.1570 C.3   257  ILE257      0.0022
    116  CG2       14.8500  -12.8010   12.1710 C.3   257  ILE257      0.0022
    117  CD1       13.2800  -13.9560   14.5290 C.3   257  ILE257      0.0001
    118  N         19.5360  -17.7210   12.9620 N.3   260  TYR260     -0.1241
    119  CA        19.1560  -18.7240   13.9600 C.3   260  TYR260      0.1605
    120  C         19.2400  -20.1330   13.3960 C.2   260  TYR260      0.2264
    121  O         19.3870  -20.3020   12.1880 O.2   260  TYR260     -0.2867
    122  CB        17.7220  -18.5100   14.3950 C.3   260  TYR260      0.0534
    123  CG        17.5200  -17.4750   15.4510 C.ar  260  TYR260     -0.0201
    124  CD1       18.3110  -16.3260   15.5220 C.ar  260  TYR260     -0.0009
    125  CD2       16.4900  -17.6150   16.3650 C.ar  260  TYR260     -0.0009
    126  CE1       18.0680  -15.3530   16.5030 C.ar  260  TYR260      0.0417
    127  CE2       16.2450  -16.6610   17.3230 C.ar  260  TYR260      0.0417
    128  CZ        17.0340  -15.5430   17.4070 C.ar  260  TYR260      0.1957
    129  OH        16.7330  -14.6120   18.3850 O.3   260  TYR260     -0.2866
    130  N         26.8670  -13.7910   17.9090 N.3   266  TYR266     -0.1241
    131  CA        26.5720  -12.3660   17.7230 C.3   266  TYR266      0.1605
    132  C         27.6910  -11.5420   18.3580 C.2   266  TYR266      0.2264
    133  O         28.1650  -11.8780   19.4530 O.2   266  TYR266     -0.2867
    134  CB        25.2240  -12.0210   18.3820 C.3   266  TYR266      0.0534
    135  CG        24.8650  -10.5480   18.5290 C.ar  266  TYR266     -0.0201
    136  CD1       23.9300   -9.9540   17.6850 C.ar  266  TYR266     -0.0009
    137  CD2       25.3850   -9.7730   19.5700 C.ar  266  TYR266     -0.0009
    138  CE1       23.5740   -8.6070   17.8260 C.ar  266  TYR266      0.0417
    139  CE2       25.0330   -8.4220   19.7180 C.ar  266  TYR266      0.0417
    140  CZ        24.1240   -7.8420   18.8460 C.ar  266  TYR266      0.1957
    141  OH        23.7310   -6.4950   19.0040 O.3   266  TYR266     -0.2866
    142  N         24.1760   -3.9230   20.5230 N.3   288  PHE288     -0.1227
    143  CA        23.1480   -3.2250   21.2670 C.3   288  PHE288      0.1736
    144  C         22.3640   -4.2150   22.1110 C.2   288  PHE288      0.2595
    145  O         21.7540   -5.1200   21.5810 O.2   288  PHE288     -0.2718
    146  CB        22.1910   -2.4870   20.3420 C.3   288  PHE288      0.0547
    147  CG        21.0440   -1.8580   21.0700 C.ar  288  PHE288     -0.0202
    148  CD1       21.2650   -0.8080   21.9290 C.ar  288  PHE288     -0.0042
    149  CD2       19.7650   -2.3350   20.9310 C.ar  288  PHE288     -0.0042
    150  CE1       20.2060   -0.2120   22.6310 C.ar  288  PHE288     -0.0003
    151  CE2       18.7040   -1.7470   21.6330 C.ar  288  PHE288     -0.0003
    152  CZ        18.9250   -0.6990   22.4840 C.ar  288  PHE288     -0.0000
    153  N         22.4070   -4.0340   23.4250 N.am  289  LEU289     -0.1966
    154  CA        21.6400   -4.8740   24.3390 C.3   289  LEU289      0.1728
    155  C         20.8070   -3.9650   25.2640 C.2   289  LEU289      0.2616
    156  O         21.3270   -3.2140   26.0670 O.2   289  LEU289     -0.2715
    157  CB        22.5640   -5.8410   25.1000 C.3   289  LEU289      0.0311
    158  CG        23.0290   -7.0950   24.3150 C.3   289  LEU289      0.0022
    159  CD1       24.1050   -6.7730   23.2950 C.3   289  LEU289      0.0001
    160  CD2       23.5620   -8.1680   25.2600 C.3   289  LEU289      0.0001
    161  N         19.4930   -4.0400   25.1090 N.am  290  VAL290     -0.1963
    162  CA        18.5640   -3.1300   25.7890 C.3   290  VAL290      0.1727
    163  C         18.7920   -3.0540   27.2970 C.2   290  VAL290      0.2616
    164  O         18.6510   -1.9690   27.8800 O.2   290  VAL290     -0.2715
    165  CB        17.1050   -3.4850   25.4580 C.3   290  VAL290      0.0290
    166  CG1       16.7280   -4.8430   26.0390 C.3   290  VAL290      0.0023
    167  CG2       16.1430   -2.3650   25.9330 C.3   290  VAL290      0.0023
    168  N         19.1710   -4.1820   27.9230 N.am  291  LEU291     -0.1977
    169  CA        19.4410   -4.2220   29.3690 C.3   291  LEU291      0.1596
    170  C         20.5470   -3.2830   29.8140 C.2   291  LEU291      0.2287
    171  O         20.5740   -2.8950   30.9750 O.2   291  LEU291     -0.2864
    172  CB        19.8290   -5.6280   29.8340 C.3   291  LEU291      0.0297
    173  CG        18.8780   -6.5010   30.6400 C.3   291  LEU291      0.0022
    174  CD1       19.7180   -7.6060   31.3050 C.3   291  LEU291      0.0001
    175  CD2       18.0760   -5.7290   31.6960 C.3   291  LEU291      0.0001
@<TRIPOS>BOND
     1   108   107    2
     2   112   113    2
     3   112   111    1
     4   116   114    1
     5   121   120    2
     6   109   107   am
     7   107   106    1
     8   118   119    1
     9   110   111    1
    10   110   103   am
    11   104   103    2
    12   111   114    1
    13   103   102    1
    14   120   119    1
    15   105   102    1
    16   105   106    1
    17   114   115    1
    18   102   101    1
    19   119   122    1
    20   100    99    2
    21   115   117    1
    22   122   123    1
    23   101    99   am
    24    99    98    1
    25   123   124   ar
    26   123   125   ar
    27   124   126   ar
    28    98    97    1
    29    97    93   am
    30    91    92    1
    31   125   127   ar
    32   126   128   ar
    33    95    92    1
    34    95    96    1
    35   127   128   ar
    36    92    93    1
    37   128   129    1
    38    93    94    2
    39   136   138   ar
    40   136   135   ar
    41   131   130    1
    42   131   132    1
    43   131   134    1
    44   138   140   ar
    45     6     5    1
    46     6     7    1
    47     5     2    1
    48   132   133    2
    49   134   135    1
    50   135   137   ar
    51   140   141    1
    52   140   139   ar
    53     7     1    1
    54     2     1    1
    55     2     3    1
    56   137   139   ar
    57     4     3    2
    58     3     8   am
    59   146   147    1
    60   146   143    1
    61   142   143    1
    62   149   147   ar
    63   149   151   ar
    64    87    86    2
    65   147   148   ar
    66     8     9    1
    67    90    88    1
    68   143   144    1
    69    86    85    1
    70    25    24    1
    71   145   144    2
    72   151   152   ar
    73    20    21    1
    74   148   150   ar
    75     9    10    1
    76     9    12    1
    77    88    85    1
    78    88    89    1
    79   144   153   am
    80    21    24    1
    81    21    22    1
    82   152   150   ar
    83    85    84    1
    84    10    11    2
    85    12    13    1
    86   159   158    1
    87   153   154    1
    88    22    23    2
    89    13    15   ar
    90    13    14   ar
    91   158   157    1
    92   158   160    1
    93   154   157    1
    94   154   155    1
    95    15    17   ar
    96    79    78    2
    97    78    77    1
    98   161   155   am
    99   161   162    1
   100    32    30    1
   101   155   156    2
   102    14    16   ar
   103    26    27    1
   104   165   162    1
   105   165   167    1
   106   165   166    1
   107    30    27    1
   108    30    31    1
   109    17    18   ar
   110    52    50    1
   111   162   163    1
   112    27    28    1
   113    77    76    1
   114    77    80    1
   115    16    18   ar
   116    18    19    1
   117    80    81    1
   118    50    49    1
   119   163   164    2
   120   163   168   am
   121    28    29    2
   122   168   169    1
   123    49    51    1
   124    49    46    1
   125    40    42   ar
   126    40    38   ar
   127    81    82    1
   128    83    82    1
   129    42    43   ar
   130    37    38    1
   131    37    34    1
   132    38    39   ar
   133    48    47    2
   134    43    44    1
   135    43    41   ar
   136    45    46    1
   137    45    35   am
   138    33    34    1
   139   169   170    1
   140   169   172    1
   141    46    47    1
   142    39    41   ar
   143    34    35    1
   144   170   171    2
   145    35    36    2
   146   172   173    1
   147   173   174    1
   148   173   175    1
   149    61    59   ar
   150    61    63   ar
   151    59    58   ar
   152    75    74    1
   153    56    55    2
   154    72    74   ar
   155    72    70   ar
   156    63    62   ar
   157    74    73   ar
   158    58    57    1
   159    58    60   ar
   160    70    69   ar
   161    55    54    1
   162    55    64   am
   163    54    57    1
   164    54    53    1
   165    62    60   ar
   166    73    71   ar
   167    64    65    1
   168    69    71   ar
   169    69    68    1
   170    65    66    1
   171    65    68    1
   172    66    67    2
