@<TRIPOS>MOLECULE
tmp/2w4xA00.pdb
 173 165 0 0 0
SMALL
GASTEIGER

@<TRIPOS>ATOM
      1  N        -14.7490  -12.4670   13.6880 N.3   125  GLY125     -0.1225
      2  CA       -13.5090  -12.8450   13.0200 C.3   125  GLY125      0.1811
      3  C        -12.2220  -12.3300   13.6280 C.2   125  GLY125      0.2280
      4  O        -11.2010  -12.2870   12.9660 O.2   125  GLY125     -0.2866
      5  N         -8.9660  -12.4110   16.2740 N.3   127  TYR127     -0.1241
      6  CA        -8.0930  -13.1300   17.2150 C.3   127  TYR127      0.1605
      7  C         -8.2020  -12.5630   18.6310 C.2   127  TYR127      0.2264
      8  O         -8.6290  -11.4060   18.8120 O.2   127  TYR127     -0.2867
      9  CB        -6.6660  -12.9940   16.7440 C.3   127  TYR127      0.0534
     10  CG        -6.4800  -13.7230   15.4480 C.ar  127  TYR127     -0.0201
     11  CD1       -6.3400  -15.1060   15.4430 C.ar  127  TYR127     -0.0009
     12  CD2       -6.5270  -13.0600   14.2350 C.ar  127  TYR127     -0.0009
     13  CE1       -6.2130  -15.8100   14.2750 C.ar  127  TYR127      0.0417
     14  CE2       -6.4040  -13.7440   13.0560 C.ar  127  TYR127      0.0417
     15  CZ        -6.2340  -15.1240   13.0750 C.ar  127  TYR127      0.1957
     16  OH        -6.0950  -15.8440   11.8990 O.3   127  TYR127     -0.2866
     17  N        -13.2740  -18.8550   18.1850 N.3   156  LYS156     -0.1245
     18  CA       -12.0620  -19.5970   17.9090 C.3   156  LYS156      0.1561
     19  C        -11.7680  -20.6690   18.9490 C.2   156  LYS156      0.2260
     20  O        -10.7390  -21.3120   18.8900 O.2   156  LYS156     -0.2867
     21  CB       -10.8890  -18.6450   17.7480 C.3   156  LYS156      0.0271
     22  CG       -11.1140  -17.6610   16.6180 C.3   156  LYS156      0.0035
     23  CD        -9.8120  -17.1100   16.0790 C.3   156  LYS156      0.0206
     24  CE       -10.0710  -16.0050   15.0360 C.3   156  LYS156      0.1093
     25  NZ       -10.5270  -16.4830   13.6840 N.3   156  LYS156     -0.1314
     26  N        -14.7240  -20.8060    4.0490 N.3   230  PHE230     -0.1241
     27  CA       -13.5280  -19.9480    4.0830 C.3   230  PHE230      0.1605
     28  C        -12.3740  -20.5880    3.3770 C.2   230  PHE230      0.2264
     29  O        -12.1670  -21.8070    3.5050 O.2   230  PHE230     -0.2867
     30  CB       -13.1100  -19.6400    5.5240 C.3   230  PHE230      0.0534
     31  CG       -13.9010  -18.5170    6.1530 C.ar  230  PHE230     -0.0203
     32  CD1      -15.2780  -18.6210    6.3140 C.ar  230  PHE230     -0.0042
     33  CD2      -13.2860  -17.3510    6.5630 C.ar  230  PHE230     -0.0042
     34  CE1      -16.0350  -17.5870    6.9060 C.ar  230  PHE230     -0.0003
     35  CE2      -14.0400  -16.3160    7.1420 C.ar  230  PHE230     -0.0003
     36  CZ       -15.4190  -16.4450    7.3140 C.ar  230  PHE230     -0.0000
     37  N         -9.3020  -18.5950    3.0960 N.3   232  ASP232     -0.1239
     38  CA        -8.2370  -17.6720    3.3240 C.3   232  ASP232      0.1674
     39  C         -7.0870  -18.4600    3.8500 C.2   232  ASP232      0.2266
     40  O         -5.9630  -18.0620    3.7550 O.2   232  ASP232     -0.2867
     41  CB        -8.6620  -16.6600    4.3500 C.3   232  ASP232      0.1410
     42  CG        -8.9390  -17.2760    5.6620 C.2   232  ASP232      0.3668
     43  OD1       -9.9630  -17.9190    5.7930 O.co2 232  ASP232     -0.2456
     44  OD2       -8.1360  -17.1310    6.5760 O.co2 232  ASP232     -0.2456
     45  N        -15.3120  -16.9290    1.5060 N.3   268  CYS268     -0.1235
     46  CA       -14.1960  -16.0110    1.6540 C.3   268  CYS268      0.1677
     47  C        -13.0560  -16.4300    0.7500 C.2   268  CYS268      0.2270
     48  O        -12.4660  -17.4920    0.9380 O.2   268  CYS268     -0.2867
     49  CB       -13.7050  -15.9840    3.1020 C.3   268  CYS268      0.0956
     50  SG       -12.4640  -14.6870    3.4560 S.3   268  CYS268     -0.0801
     51  N         -8.4060  -11.8120   -0.5550 N.3   272  TYR272     -0.1241
     52  CA        -9.5480  -11.0980   -0.0280 C.3   272  TYR272      0.1605
     53  C         -9.3420   -9.6150    0.1810 C.2   272  TYR272      0.2264
     54  O        -10.2170   -8.9590    0.7460 O.2   272  TYR272     -0.2867
     55  CB       -10.0490  -11.7090    1.2790 C.3   272  TYR272      0.0534
     56  CG        -9.0570  -11.7560    2.4140 C.ar  272  TYR272     -0.0201
     57  CD1       -8.7880  -10.6370    3.1820 C.ar  272  TYR272     -0.0009
     58  CD2       -8.4260  -12.9540    2.7430 C.ar  272  TYR272     -0.0009
     59  CE1       -7.8880  -10.7180    4.2680 C.ar  272  TYR272      0.0417
     60  CE2       -7.5460  -13.0530    3.7890 C.ar  272  TYR272      0.0417
     61  CZ        -7.2720  -11.9490    4.5540 C.ar  272  TYR272      0.1957
     62  OH        -6.3750  -12.1130    5.5960 O.3   272  TYR272     -0.2866
     63  N         -3.2520   -8.0070   -1.3710 N.3   276  TRP276     -0.1241
     64  CA        -2.7470   -9.3760   -1.3470 C.3   276  TRP276      0.1605
     65  C         -3.2070  -10.0940   -2.5740 C.2   276  TRP276      0.2264
     66  O         -3.1950  -11.3270   -2.6310 O.2   276  TRP276     -0.2867
     67  CB        -3.1420  -10.1500   -0.0880 C.3   276  TRP276      0.0550
     68  CG        -2.3520   -9.7560    1.0980 C.ar  276  TRP276      0.0003
     69  CD1       -1.3960   -8.7960    1.1540 C.ar  276  TRP276      0.0946
     70  CD2       -2.5010  -10.2490    2.4340 C.ar  276  TRP276      0.0152
     71  NE1       -0.9010   -8.6780    2.4320 N.ar  276  TRP276     -0.2442
     72  CE2       -1.5750   -9.5490    3.2420 C.ar  276  TRP276      0.0810
     73  CE3       -3.3220  -11.2290    3.0280 C.ar  276  TRP276      0.0012
     74  CZ2       -1.4500   -9.7860    4.6210 C.ar  276  TRP276      0.0191
     75  CZ3       -3.1960  -11.4720    4.3830 C.ar  276  TRP276      0.0001
     76  CH2       -2.2680  -10.7490    5.1740 C.ar  276  TRP276      0.0015
     77  N        -16.6890  -12.5590   -0.1290 N.3   298  MET298     -0.1245
     78  CA       -16.2990  -11.5500    0.8500 C.3   298  MET298      0.1570
     79  C        -15.0370  -10.8000    0.4520 C.2   298  MET298      0.2261
     80  O        -14.2250  -11.3070   -0.3310 O.2   298  MET298     -0.2867
     81  CB       -16.1100  -12.2230    2.1930 C.3   298  MET298      0.0387
     82  CG       -17.3560  -12.9400    2.6170 C.3   298  MET298      0.0595
     83  SD       -17.1930  -13.4590    4.3040 S.3   298  MET298     -0.1393
     84  CE       -17.9930  -12.0920    5.1120 C.3   298  MET298      0.0692
     85  N        -12.2530   -7.3500    1.8700 N.3   300  THR300     -0.1218
     86  CA       -11.9820   -6.4150    2.9520 C.3   300  THR300      0.1862
     87  C        -11.5560   -5.0480    2.4780 C.2   300  THR300      0.2287
     88  O        -11.2860   -4.2010    3.3100 O.2   300  THR300     -0.2866
     89  CB       -10.9450   -6.9560    4.0010 C.3   300  THR300      0.1770
     90  OG1       -9.6520   -7.0580    3.3950 O.3   300  THR300     -0.2211
     91  CG2      -11.3850   -8.3530    4.5440 C.3   300  THR300      0.0375
     92  N         -5.7180   -5.2700    4.0580 N.3   304  VAL304     -0.1231
     93  CA        -6.3960   -6.0130    5.1170 C.3   304  VAL304      0.1692
     94  C         -7.2640   -5.1010    5.9570 C.2   304  VAL304      0.2591
     95  O         -8.4270   -5.4160    6.1830 O.2   304  VAL304     -0.2718
     96  CB        -5.3960   -6.7690    6.0140 C.3   304  VAL304      0.0266
     97  CG1       -6.0930   -7.3390    7.2500 C.3   304  VAL304      0.0020
     98  CG2       -4.7510   -7.8420    5.2270 C.3   304  VAL304      0.0020
     99  N         -6.7050   -3.9830    6.4310 N.am  305  ILE305     -0.1980
    100  CA        -7.5020   -2.9520    7.0890 C.3   305  ILE305      0.1595
    101  C         -7.7220   -1.7860    6.1490 C.2   305  ILE305      0.2287
    102  O         -6.7890   -1.1380    5.7030 O.2   305  ILE305     -0.2864
    103  CB        -6.8500   -2.4190    8.4020 C.3   305  ILE305      0.0276
    104  CG1       -6.0450   -3.5120    9.1010 C.3   305  ILE305      0.0022
    105  CG2       -7.9840   -2.0550    9.4250 C.3   305  ILE305      0.0022
    106  CD1       -6.9790   -4.6170    9.6610 C.3   305  ILE305      0.0001
    107  N        -16.2650   -7.1860    4.1050 N.3   327  TRP327     -0.1241
    108  CA       -15.8260   -7.4920    5.4690 C.3   327  TRP327      0.1605
    109  C        -14.9630   -6.3160    5.9130 C.2   327  TRP327      0.2264
    110  O        -13.8340   -6.1160    5.3890 O.2   327  TRP327     -0.2867
    111  CB       -15.0020   -8.7600    5.4150 C.3   327  TRP327      0.0550
    112  CG       -14.3040   -9.1510    6.6500 C.ar  327  TRP327      0.0003
    113  CD1      -13.6070   -8.3480    7.5430 C.ar  327  TRP327      0.0946
    114  CD2      -14.1610  -10.4940    7.1140 C.ar  327  TRP327      0.0152
    115  NE1      -13.0390   -9.1420    8.5310 N.ar  327  TRP327     -0.2442
    116  CE2      -13.3710  -10.4570    8.2870 C.ar  327  TRP327      0.0810
    117  CE3      -14.6210  -11.7350    6.6380 C.ar  327  TRP327      0.0012
    118  CZ2      -13.0490  -11.6120    8.9910 C.ar  327  TRP327      0.0191
    119  CZ3      -14.2900  -12.8780    7.3340 C.ar  327  TRP327      0.0001
    120  CH2      -13.5190  -12.8120    8.5020 C.ar  327  TRP327      0.0015
    121  N        -12.6230   -4.5500    8.4350 N.3   329  ASN329     -0.1240
    122  CA       -11.8620   -4.8370    9.6270 C.3   329  ASN329      0.1653
    123  C        -11.7250   -3.6600   10.5940 C.2   329  ASN329      0.2266
    124  O        -10.6130   -3.2110   10.8370 O.2   329  ASN329     -0.2867
    125  CB       -10.5010   -5.4110    9.2860 C.3   329  ASN329      0.1155
    126  CG       -10.5580   -6.8890    9.0310 C.2   329  ASN329      0.2627
    127  OD1      -11.1820   -7.6040    9.7920 O.2   329  ASN329     -0.2716
    128  ND2       -9.9120   -7.3650    7.9490 N.am  329  ASN329     -0.0877
    129  N        -12.1940   -4.2010   15.1240 N.3   332  VAL332     -0.1245
    130  CA       -11.2650   -5.2210   15.5500 C.3   332  VAL332      0.1561
    131  C         -9.9450   -4.6220   15.9610 C.2   332  VAL332      0.2260
    132  O         -9.3510   -3.9030   15.2190 O.2   332  VAL332     -0.2867
    133  CB       -11.0610   -6.3240   14.4770 C.3   332  VAL332      0.0252
    134  CG1      -10.6630   -5.7610   13.1760 C.3   332  VAL332      0.0019
    135  CG2      -10.0920   -7.3230   14.9220 C.3   332  VAL332      0.0019
    136  N         -7.3440   -6.6540   17.3250 N.3   334  ASP334     -0.1225
    137  CA        -6.5820   -7.8160   17.7070 C.3   334  ASP334      0.1805
    138  C         -5.1080   -7.6570   17.3040 C.2   334  ASP334      0.2597
    139  O         -4.2890   -8.5220   17.6270 O.2   334  ASP334     -0.2718
    140  CB        -7.2160   -9.1090   17.1750 C.3   334  ASP334      0.1424
    141  CG        -7.1780   -9.2280   15.6360 C.2   334  ASP334      0.3668
    142  OD1       -6.3940   -8.5000   15.0060 O.co2 334  ASP334     -0.2456
    143  OD2       -7.9370  -10.0430   15.0420 O.co2 334  ASP334     -0.2456
    144  N         -4.7520   -6.5510   16.6470 N.am  335  TYR335     -0.1976
    145  CA        -3.3380   -6.3290   16.3230 C.3   335  TYR335      0.1639
    146  C         -2.8540   -5.0290   16.9920 C.2   335  TYR335      0.2290
    147  O         -1.7690   -4.5350   16.7120 O.2   335  TYR335     -0.2864
    148  CB        -3.0950   -6.2590   14.7950 C.3   335  TYR335      0.0560
    149  CG        -3.9450   -5.1890   14.1290 C.ar  335  TYR335     -0.0198
    150  CD1       -5.2540   -5.4360   13.8060 C.ar  335  TYR335     -0.0009
    151  CD2       -3.4640   -3.9070   13.9190 C.ar  335  TYR335     -0.0009
    152  CE1       -6.0620   -4.4610   13.2580 C.ar  335  TYR335      0.0417
    153  CE2       -4.2660   -2.9110   13.3280 C.ar  335  TYR335      0.0417
    154  CZ        -5.5720   -3.1980   13.0030 C.ar  335  TYR335      0.1957
    155  OH        -6.4190   -2.2440   12.4250 O.3   335  TYR335     -0.2866
    156  N        -15.9930   -6.5230   11.5420 N.3   362  ASN362     -0.1240
    157  CA       -15.2460   -7.3710   12.4210 C.3   362  ASN362      0.1653
    158  C        -14.9540   -6.5760   13.6960 C.2   362  ASN362      0.2266
    159  O        -14.2930   -5.5320   13.6400 O.2   362  ASN362     -0.2867
    160  CB       -13.9730   -7.8440   11.7290 C.3   362  ASN362      0.1155
    161  CG       -13.3200   -8.9640   12.4720 C.2   362  ASN362      0.2627
    162  OD1      -13.9490   -9.5710   13.3370 O.2   362  ASN362     -0.2716
    163  ND2      -12.0590   -9.2210   12.1900 N.am  362  ASN362     -0.0877
    164  N         -0.4140   -2.5730   10.2730 N.3   423  HIS423     -0.1241
    165  CA        -1.2900   -2.3010    9.1430 C.3   423  HIS423      0.1621
    166  C         -1.3050   -0.8630    8.6420 C.2   423  HIS423      0.2264
    167  O         -1.8940   -0.6240    7.6100 O.2   423  HIS423     -0.2867
    168  CB        -2.7000   -2.8020    9.3690 C.3   423  HIS423      0.0745
    169  CG        -2.7670   -4.2610    9.6780 C.ar  423  HIS423      0.0817
    170  ND1       -2.7130   -5.2290    8.6980 N.ar  423  HIS423     -0.2268
    171  CD2       -2.8940   -4.9200   10.8590 C.ar  423  HIS423      0.1154
    172  CE1       -2.7860   -6.4220    9.2600 C.ar  423  HIS423      0.1986
    173  NE2       -2.8980   -6.2660   10.5730 N.ar  423  HIS423     -0.2212
@<TRIPOS>BOND
     1    66    65    2
     2    65    64    1
     3    63    64    1
     4    64    67    1
     5    51    52    1
     6    80    79    2
     7    77    78    1
     8    67    68    1
     9    52    53    1
    10    52    55    1
    11    53    54    2
    12    79    78    1
    13    47    48    2
    14    47    46    1
    15    78    81    1
    16    68    69   ar
    17    68    70   ar
    18    69    71   ar
    19    55    56    1
    20    45    46    1
    21    46    49    1
    22    85    86    1
    23    81    82    1
    24    56    58   ar
    25    56    57   ar
    26    71    72   ar
    27    70    73   ar
    28    70    72   ar
    29    87    86    1
    30    87    88    2
    31    82    83    1
    32    58    60   ar
    33    86    89    1
    34    73    75   ar
    35    37    38    1
    36    49    50    1
    37    57    59   ar
    38    72    74   ar
    39    38    39    1
    40    38    41    1
    41    28    29    2
    42    28    27    1
    43    90    89    1
    44    40    39    2
    45    60    61   ar
    46    89    91    1
    47    26    27    1
    48    92    93    1
    49    27    30    1
    50   107   108    1
    51    59    61   ar
    52    83    84    1
    53    41    42    1
    54    75    76   ar
    55    61    62    1
    56    74    76   ar
    57    93    94    1
    58    93    96    1
    59    98    96    1
    60   110   109    2
    61   111   108    1
    62   111   112    1
    63   108   109    1
    64    30    31    1
    65    42    43   ar
    66    42    44   ar
    67   102   101    2
    68    94    95    2
    69    94    99   am
    70    96    97    1
    71   101   100    1
    72    31    32   ar
    73    31    33   ar
    74    32    34   ar
    75    99   100    1
    76    33    35   ar
    77   117   114   ar
    78   117   119   ar
    79   112   114   ar
    80   112   113   ar
    81    34    36   ar
    82   100   103    1
    83   114   116   ar
    84    35    36   ar
    85   119   120   ar
    86   113   115   ar
    87   167   166    2
    88   128   126   am
    89   116   115   ar
    90   116   118   ar
    91   103   104    1
    92   103   105    1
    93   121   122    1
    94   120   118   ar
    95   166   165    1
    96   170   172   ar
    97   170   169   ar
    98   126   125    1
    99   126   127    2
   100   104   106    1
   101   165   168    1
   102   165   164    1
   103   172   173   ar
   104   125   122    1
   105   168   169    1
   106   122   123    1
   107   169   171   ar
   108   173   171   ar
   109   123   124    2
   110   156   157    1
   111   160   157    1
   112   160   161    1
   113    16    15    1
   114   163   161   am
   115   157   158    1
   116   155   154    1
   117   161   162    2
   118     4     3    2
   119   154   152   ar
   120   154   153   ar
   121     2     3    1
   122     2     1    1
   123    14    15   ar
   124    14    12   ar
   125    15    13   ar
   126   134   133    1
   127   152   150   ar
   128   153   151   ar
   129   159   158    2
   130    25    24    1
   131   150   149   ar
   132   151   149   ar
   133   149   148    1
   134    12    10   ar
   135    13    11   ar
   136   133   135    1
   137   133   130    1
   138   148   145    1
   139   142   141   ar
   140    24    23    1
   141   143   141   ar
   142   129   130    1
   143   132   131    2
   144    11    10   ar
   145    10     9    1
   146   130   131    1
   147   141   140    1
   148    23    22    1
   149     5     6    1
   150   145   144    1
   151   145   146    1
   152    22    21    1
   153   144   138   am
   154   147   146    2
   155     9     6    1
   156   140   137    1
   157     6     7    1
   158   138   139    2
   159   138   137    1
   160   136   137    1
   161    21    18    1
   162    18    17    1
   163    18    19    1
   164     7     8    2
   165    20    19    2
