@<TRIPOS>MOLECULE
tmp/2w52A01.pdb
 150 142 0 0 0
SMALL
GASTEIGER

@<TRIPOS>ATOM
      1  N          5.6550   18.2470   46.5140 N.3    27  THR27      -0.1218
      2  CA         4.6170   17.2130   46.5390 C.3    27  THR27       0.1862
      3  C          3.8640   17.0760   45.1940 C.2    27  THR27       0.2287
      4  O          2.8360   16.4180   45.1190 O.2    27  THR27      -0.2866
      5  CB         3.6390   17.4150   47.7380 C.3    27  THR27       0.1770
      6  OG1        3.0810   18.7380   47.7140 O.3    27  THR27      -0.2211
      7  CG2        4.3520   17.2210   49.0830 C.3    27  THR27       0.0375
      8  N         -5.1570   20.9510   49.3180 N.3    99  TRP99      -0.1241
      9  CA        -4.2770   20.3410   50.3210 C.3    99  TRP99       0.1605
     10  C         -3.5490   21.4690   51.0560 C.2    99  TRP99       0.2264
     11  O         -2.4240   21.8480   50.6820 O.2    99  TRP99      -0.2867
     12  CB        -3.3200   19.3780   49.6110 C.3    99  TRP99       0.0550
     13  CG        -2.2900   18.6930   50.4760 C.ar   99  TRP99       0.0003
     14  CD1       -2.1690   18.7080   51.8480 C.ar   99  TRP99       0.0946
     15  CD2       -1.2730   17.8200   49.9920 C.ar   99  TRP99       0.0152
     16  NE1       -1.0850   17.9300   52.2390 N.ar   99  TRP99      -0.2442
     17  CE2       -0.5250   17.3670   51.1100 C.ar   99  TRP99       0.0810
     18  CE3       -0.9040   17.4040   48.6990 C.ar   99  TRP99       0.0012
     19  CZ2        0.5820   16.4960   50.9740 C.ar   99  TRP99       0.0191
     20  CZ3        0.2030   16.5480   48.5530 C.ar   99  TRP99       0.0001
     21  CH2        0.9220   16.0960   49.6830 C.ar   99  TRP99       0.0015
     22  N         10.0760   17.1540   60.4890 N.3   115  GLU115     -0.1245
     23  CA         8.9090   17.8470   59.9490 C.3   115  GLU115      0.1567
     24  C          7.7610   17.6100   60.9230 C.2   115  GLU115      0.2260
     25  O          7.5270   16.4760   61.3400 O.2   115  GLU115     -0.2867
     26  CB         8.5310   17.2780   58.5760 C.3   115  GLU115      0.0388
     27  CG         7.1630   17.7750   58.0670 C.3   115  GLU115      0.1160
     28  CD         6.7610   17.2360   56.6850 C.2   115  GLU115      0.3649
     29  OE1        7.5650   16.5070   56.0430 O.co2 115  GLU115     -0.2457
     30  OE2        5.6180   17.5180   56.2480 O.co2 115  GLU115     -0.2457
     31  N          3.7020   18.4320   61.0050 N.3   117  ASP117     -0.1239
     32  CA         2.5170   18.9370   60.3210 C.3   117  ASP117      0.1674
     33  C          1.4770   19.2150   61.3870 C.2   117  ASP117      0.2266
     34  O          1.0600   18.2930   62.1120 O.2   117  ASP117     -0.2867
     35  CB         2.0150   17.9390   59.2720 C.3   117  ASP117      0.1410
     36  CG         3.1170   17.5760   58.2750 C.2   117  ASP117      0.3668
     37  OD1        3.8780   18.5000   57.8920 O.co2 117  ASP117     -0.2456
     38  OD2        3.2240   16.4010   57.8950 O.co2 117  ASP117     -0.2456
     39  N         -3.3200   19.9850   58.6580 N.3   120  GLU120     -0.1245
     40  CA        -3.1290   19.3530   57.3490 C.3   120  GLU120      0.1567
     41  C         -4.2690   18.4120   57.0330 C.2   120  GLU120      0.2260
     42  O         -4.7180   17.6530   57.9050 O.2   120  GLU120     -0.2867
     43  CB        -1.8120   18.5360   57.3120 C.3   120  GLU120      0.0388
     44  CG        -1.4100   18.1330   55.8680 C.3   120  GLU120      0.1160
     45  CD        -0.1750   17.2400   55.7670 C.2   120  GLU120      0.3649
     46  OE1        0.2000   16.5950   56.7800 O.co2 120  GLU120     -0.2457
     47  OE2        0.3870   17.1490   54.6460 O.co2 120  GLU120     -0.2457
     48  N         -5.1760   16.1620   60.7160 N.3   129  ALA129     -0.1245
     49  CA        -4.0880   15.2240   61.0410 C.3   129  ALA129      0.1562
     50  C         -2.8810   16.0220   61.4960 C.2   129  ALA129      0.2260
     51  O         -2.5200   17.0220   60.8680 O.2   129  ALA129     -0.2867
     52  CB        -3.7110   14.3850   59.8040 C.3   129  ALA129      0.0290
     53  N          7.2900   13.6140   60.3890 N.3   133  HIS133     -0.1241
     54  CA         8.0260   12.8870   59.3570 C.3   133  HIS133      0.1621
     55  C          9.5020   13.1010   59.6760 C.2   133  HIS133      0.2264
     56  O          9.9350   14.2420   59.8360 O.2   133  HIS133     -0.2867
     57  CB         7.7130   13.5050   57.9880 C.3   133  HIS133      0.0745
     58  CG         6.2710   13.3940   57.5750 C.ar  133  HIS133      0.0817
     59  ND1        5.8100   12.4310   56.7050 N.ar  133  HIS133     -0.2268
     60  CD2        5.2010   14.1600   57.8910 C.ar  133  HIS133      0.1154
     61  CE1        4.5110   12.5970   56.5120 C.ar  133  HIS133      0.1986
     62  NE2        4.1140   13.6420   57.2200 N.ar  133  HIS133     -0.2212
     63  N         -2.8470    7.0530   64.2230 N.3   151  THR151     -0.1203
     64  CA        -3.0260    6.0950   63.1600 C.3   151  THR151      0.1994
     65  C         -1.7020    5.3530   63.0600 C.2   151  THR151      0.2617
     66  O         -1.5270    4.2810   63.6430 O.2   151  THR151     -0.2717
     67  CB        -3.5130    6.7560   61.8520 C.3   151  THR151      0.1784
     68  OG1       -2.6240    7.8160   61.4820 O.3   151  THR151     -0.2211
     69  CG2       -4.9220    7.3190   62.0550 C.3   151  THR151      0.0376
     70  N         -0.7490    5.9530   62.3810 N.am  152  ASN152     -0.1974
     71  CA         0.4980    5.2450   62.0640 C.3   152  ASN152      0.1688
     72  C          1.5150    5.6770   63.0940 C.2   152  ASN152      0.2292
     73  O          1.5540    6.8610   63.4560 O.2   152  ASN152     -0.2864
     74  CB         1.0100    5.6190   60.6710 C.3   152  ASN152      0.1181
     75  CG        -0.0370    5.4290   59.5840 C.2   152  ASN152      0.2629
     76  OD1       -0.4710    6.3960   58.9570 O.2   152  ASN152     -0.2716
     77  ND2       -0.4430    4.1830   59.3530 N.am  152  ASN152     -0.0877
     78  N         10.2830    8.5030   57.2380 N.3   157  VAL157     -0.1231
     79  CA         9.7420    8.7420   55.8840 C.3   157  VAL157      0.1692
     80  C         10.0070    7.6020   54.9130 C.2   157  VAL157      0.2592
     81  O          9.3010    7.4620   53.9040 O.2   157  VAL157     -0.2718
     82  CB        10.3240   10.0200   55.2340 C.3   157  VAL157      0.0266
     83  CG1        9.9820   11.2690   56.0620 C.3   157  VAL157      0.0020
     84  CG2       11.8070    9.9060   55.0490 C.3   157  VAL157      0.0020
     85  N         11.0240    6.7960   55.2060 N.am  158  ASN158     -0.1974
     86  CA        11.3490    5.7100   54.2870 C.3   158  ASN158      0.1688
     87  C         10.5830    4.4310   54.6280 C.2   158  ASN158      0.2292
     88  O         10.8670    3.3600   54.0620 O.2   158  ASN158     -0.2864
     89  CB        12.8670    5.5370   54.1890 C.3   158  ASN158      0.1181
     90  CG        13.5600    6.7460   53.5320 C.2   158  ASN158      0.2629
     91  OD1       14.4350    7.3660   54.1320 O.2   158  ASN158     -0.2716
     92  ND2       13.1440    7.0940   52.3080 N.am  158  ASN158     -0.0877
     93  N          5.3980    4.3310   52.8880 N.3   161  GLY161     -0.1210
     94  CA         5.0570    5.3100   51.8540 C.3   161  GLY161      0.1956
     95  C          5.0790    6.7380   52.3800 C.2   161  GLY161      0.2612
     96  O          4.3850    7.6120   51.8560 O.2   161  GLY161     -0.2717
     97  N          5.8910    6.9720   53.4080 N.am  162  ASN162     -0.1960
     98  CA         5.9340    8.2800   54.0680 C.3   162  ASN162      0.1819
     99  C          4.5750    8.7930   54.5770 C.2   162  ASN162      0.2621
    100  O          4.2340    9.9850   54.4370 O.2   162  ASN162     -0.2715
    101  CB         6.6120    9.3540   53.2180 C.3   162  ASN162      0.1195
    102  CG         6.8430   10.6490   54.0160 C.2   162  ASN162      0.2630
    103  OD1        7.0180   10.5940   55.2340 O.2   162  ASN162     -0.2716
    104  ND2        6.8040   11.7920   53.3420 N.am  162  ASN162     -0.0877
    105  N          3.8300    7.9070   55.2210 N.am  163  THR163     -0.1951
    106  CA         2.6650    8.3780   55.9730 C.3   163  THR163      0.1897
    107  C          3.0950    9.2280   57.1670 C.2   163  THR163      0.2313
    108  O          2.3510   10.1120   57.5660 O.2   163  THR163     -0.2863
    109  CB         1.7790    7.2300   56.4780 C.3   163  THR163      0.1794
    110  OG1        2.5290    6.3730   57.3530 O.3   163  THR163     -0.2208
    111  CG2        1.2590    6.4300   55.3070 C.3   163  THR163      0.0378
    112  N          0.8940   14.3950   45.6210 N.3   256  ASP256     -0.1225
    113  CA         1.2420   13.0920   46.2670 C.3   256  ASP256      0.1805
    114  C          0.0760   12.5080   47.0830 C.2   256  ASP256      0.2597
    115  O         -0.2150   11.3140   47.0030 O.2   256  ASP256     -0.2718
    116  CB         2.4220   13.2480   47.2530 C.3   256  ASP256      0.1424
    117  CG         3.7450   13.6110   46.6010 C.2   256  ASP256      0.3668
    118  OD1        3.8500   13.5640   45.3530 O.co2 256  ASP256     -0.2456
    119  OD2        4.6970   13.9230   47.3810 O.co2 256  ASP256     -0.2456
    120  N         -0.5620   13.3550   47.8840 N.am  257  TRP257     -0.1976
    121  CA        -1.6670   12.9190   48.7450 C.3   257  TRP257      0.1640
    122  C         -3.0420   13.2270   48.1210 C.2   257  TRP257      0.2290
    123  O         -3.7950   12.3040   47.7880 O.2   257  TRP257     -0.2864
    124  CB        -1.4860   13.5100   50.1540 C.3   257  TRP257      0.0576
    125  CG        -2.4740   13.0400   51.1770 C.ar  257  TRP257      0.0006
    126  CD1       -3.4300   12.0810   51.0180 C.ar  257  TRP257      0.0946
    127  CD2       -2.5810   13.4980   52.5330 C.ar  257  TRP257      0.0152
    128  NE1       -4.1480   11.9240   52.1970 N.ar  257  TRP257     -0.2442
    129  CE2       -3.6450   12.7820   53.1370 C.ar  257  TRP257      0.0810
    130  CE3       -1.8930   14.4500   53.2920 C.ar  257  TRP257      0.0012
    131  CZ2       -4.0350   13.0040   54.4670 C.ar  257  TRP257      0.0191
    132  CZ3       -2.2760   14.6630   54.6300 C.ar  257  TRP257      0.0001
    133  CH2       -3.3280   13.9250   55.1950 C.ar  257  TRP257      0.0015
    134  N         -4.3100   11.4650   44.5950 N.3   260  GLN260     -0.1245
    135  CA        -4.5820   10.0190   44.4680 C.3   260  GLN260      0.1566
    136  C         -6.0520    9.8540   44.1400 C.2   260  GLN260      0.2260
    137  O         -6.9200   10.3360   44.8710 O.2   260  GLN260     -0.2867
    138  CB        -4.2580    9.2730   45.7730 C.3   260  GLN260      0.0367
    139  CG        -2.7800    9.2460   46.1760 C.3   260  GLN260      0.0905
    140  CD        -2.5730    8.5800   47.5520 C.2   260  GLN260      0.2608
    141  OE1       -3.1610    7.5270   47.8330 O.2   260  GLN260     -0.2717
    142  NE2       -1.7590    9.1830   48.4060 N.am  260  GLN260     -0.0878
    143  N         -8.4500    8.6560   46.8660 N.3   263  ILE263     -0.1245
    144  CA        -8.6980    9.6180   47.9390 C.3   263  ILE263      0.1561
    145  C         -9.5970   10.7390   47.4140 C.2   263  ILE263      0.2260
    146  O        -10.5850   11.1200   48.0620 O.2   263  ILE263     -0.2867
    147  CB        -7.3630   10.1790   48.5020 C.3   263  ILE263      0.0252
    148  CG1       -6.5480    9.0500   49.1290 C.3   263  ILE263      0.0019
    149  CG2       -7.6050   11.2680   49.5280 C.3   263  ILE263      0.0019
    150  CD1       -5.2090    9.5130   49.6780 C.3   263  ILE263      0.0001
@<TRIPOS>BOND
     1   136   135    1
     2   136   137    2
     3   135   134    1
     4   135   138    1
     5     4     3    2
     6     3     2    1
     7   118   117   ar
     8   112   113    1
     9   138   139    1
    10   139   140    1
    11   113   114    1
    12   113   116    1
    13     1     2    1
    14     2     5    1
    15   117   116    1
    16   117   119   ar
    17   143   144    1
    18   115   114    2
    19   114   120   am
    20   145   144    1
    21   145   146    2
    22   140   141    2
    23   140   142   am
    24     6     5    1
    25     5     7    1
    26   123   122    2
    27   120   121    1
    28   144   147    1
    29   122   121    1
    30   147   148    1
    31   147   149    1
    32    20    18   ar
    33    20    21   ar
    34    18    15   ar
    35   121   124    1
    36   148   150    1
    37     8     9    1
    38    12     9    1
    39    12    13    1
    40    21    19   ar
    41    15    13   ar
    42    15    17   ar
    43   124   125    1
    44     9    10    1
    45    13    14   ar
    46    11    10    2
    47    19    17   ar
    48   126   125   ar
    49   126   128   ar
    50    17    16   ar
    51   125   127   ar
    52    14    16   ar
    53    94    95    1
    54    94    93    1
    55    96    95    2
    56   128   129   ar
    57    92    90   am
    58    95    97   am
    59   127   129   ar
    60   127   130   ar
    61   129   131   ar
    62   101   102    1
    63   101    98    1
    64   130   132   ar
    65   104   102   am
    66    97    98    1
    67    90    91    2
    68    90    89    1
    69    81    80    2
    70   102   103    2
    71    88    87    2
    72    98    99    1
    73    89    86    1
    74    86    87    1
    75    86    85    1
    76   100    99    2
    77   131   133   ar
    78    99   105   am
    79   132   133   ar
    80    47    45   ar
    81    80    85   am
    82    80    79    1
    83    84    82    1
    84   105   106    1
    85    82    79    1
    86    82    83    1
    87   111   109    1
    88    45    44    1
    89    45    46   ar
    90    44    43    1
    91    79    78    1
    92   106   109    1
    93   106   107    1
    94    29    28   ar
    95    30    28   ar
    96   109   110    1
    97    61    59   ar
    98    61    62   ar
    99    28    27    1
   100    59    58   ar
   101    41    40    1
   102    41    42    2
   103   107   108    2
   104    62    60   ar
   105    43    40    1
   106    40    39    1
   107    58    60   ar
   108    58    57    1
   109    37    36   ar
   110    38    36   ar
   111    57    54    1
   112    27    26    1
   113    36    35    1
   114    26    23    1
   115    76    75    2
   116    35    32    1
   117    77    75   am
   118    54    55    1
   119    54    53    1
   120    75    74    1
   121    55    56    2
   122    52    49    1
   123    23    22    1
   124    23    24    1
   125    32    31    1
   126    32    33    1
   127    74    71    1
   128    48    49    1
   129    51    50    2
   130    24    25    2
   131    49    50    1
   132    33    34    2
   133    68    67    1
   134    67    69    1
   135    67    64    1
   136    71    70    1
   137    71    72    1
   138    70    65   am
   139    65    64    1
   140    65    66    2
   141    72    73    2
   142    64    63    1
