@<TRIPOS>MOLECULE
tmp/2w52A02.pdb
 128 126 0 0 0
SMALL
GASTEIGER

@<TRIPOS>ATOM
      1  N          7.3360   20.4530   45.9620 N.3    26  PRO26      -0.2102
      2  CA         7.9330   19.1560   46.3110 C.3    26  PRO26       0.1504
      3  C          6.9400   17.9700   46.2860 C.2    26  PRO26       0.2576
      4  O          7.3500   16.8180   46.1010 O.2    26  PRO26      -0.2718
      5  CB         8.4350   19.3860   47.7620 C.3    26  PRO26       0.0282
      6  CG         8.7050   20.8960   47.8000 C.3    26  PRO26       0.0208
      7  CD         7.5500   21.4800   47.0180 C.3    26  PRO26       0.0893
      8  N          5.6550   18.2470   46.5140 N.am   27  THR27      -0.1939
      9  CA         4.6170   17.2130   46.5390 C.3    27  THR27       0.2028
     10  C          3.8640   17.0760   45.1940 C.2    27  THR27       0.2642
     11  O          2.8360   16.4180   45.1190 O.2    27  THR27      -0.2714
     12  CB         3.6390   17.4150   47.7380 C.3    27  THR27       0.1808
     13  OG1        3.0810   18.7380   47.7140 O.3    27  THR27      -0.2208
     14  CG2        4.3520   17.2210   49.0830 C.3    27  THR27       0.0379
     15  N          4.4170   17.6850   44.1410 N.am   28  HIS28      -0.1973
     16  CA         3.9740   17.4080   42.7340 C.3    28  HIS28       0.1656
     17  C          2.5180   17.7900   42.4610 C.2    28  HIS28       0.2291
     18  O          1.8460   17.1810   41.6210 O.2    28  HIS28      -0.2864
     19  CB         4.2510   15.9580   42.3690 C.3    28  HIS28       0.0771
     20  CG         5.6340   15.5350   42.7310 C.ar   28  HIS28       0.0820
     21  ND1        5.8970   14.7350   43.8220 N.ar   28  HIS28      -0.2267
     22  CD2        6.8350   15.8540   42.1940 C.ar   28  HIS28       0.1154
     23  CE1        7.2040   14.5610   43.9360 C.ar   28  HIS28       0.1986
     24  NE2        7.7960   15.2230   42.9550 N.ar   28  HIS28      -0.2212
     25  N          2.9680   29.7260   49.2130 N.3    73  ARG73      -0.1245
     26  CA         3.6300   28.9360   50.2580 C.3    73  ARG73       0.1563
     27  C          4.5730   29.9220   50.9520 C.2    73  ARG73       0.2260
     28  O          5.5930   30.3500   50.3820 O.2    73  ARG73      -0.2867
     29  CB         4.4580   27.8240   49.6240 C.3    73  ARG73       0.0307
     30  CG         5.3160   27.0650   50.6090 C.3    73  ARG73       0.0489
     31  CD         5.7340   25.7000   50.0170 C.3    73  ARG73       0.2205
     32  NE         6.9040   25.1080   50.7000 N.pl3  73  ARG73      -0.0865
     33  CZ         7.1780   23.7980   50.7510 C.cat  73  ARG73       0.5346
     34  NH1        6.3510   22.9010   50.2130 N.pl3  73  ARG73       0.1354
     35  NH2        8.2910   23.3730   51.3350 N.pl3  73  ARG73       0.1354
     36  N         -5.1570   20.9510   49.3180 N.3    99  TRP99      -0.1241
     37  CA        -4.2770   20.3410   50.3210 C.3    99  TRP99       0.1605
     38  C         -3.5490   21.4690   51.0560 C.2    99  TRP99       0.2264
     39  O         -2.4240   21.8480   50.6820 O.2    99  TRP99      -0.2867
     40  CB        -3.3200   19.3780   49.6110 C.3    99  TRP99       0.0550
     41  CG        -2.2900   18.6930   50.4760 C.ar   99  TRP99       0.0003
     42  CD1       -2.1690   18.7080   51.8480 C.ar   99  TRP99       0.0946
     43  CD2       -1.2730   17.8200   49.9920 C.ar   99  TRP99       0.0152
     44  NE1       -1.0850   17.9300   52.2390 N.ar   99  TRP99      -0.2442
     45  CE2       -0.5250   17.3670   51.1100 C.ar   99  TRP99       0.0810
     46  CE3       -0.9040   17.4040   48.6990 C.ar   99  TRP99       0.0012
     47  CZ2        0.5820   16.4960   50.9740 C.ar   99  TRP99       0.0191
     48  CZ3        0.2030   16.5480   48.5530 C.ar   99  TRP99       0.0001
     49  CH2        0.9220   16.0960   49.6830 C.ar   99  TRP99       0.0015
     50  N          2.7520   24.1250   59.1670 N.3   103  TRP103     -0.1241
     51  CA         3.6940   23.0660   59.5840 C.3   103  TRP103      0.1605
     52  C          5.0710   23.6660   59.8060 C.2   103  TRP103      0.2264
     53  O          5.2600   24.8580   59.6000 O.2   103  TRP103     -0.2867
     54  CB         3.7730   21.9500   58.5050 C.3   103  TRP103      0.0550
     55  CG         4.0580   22.4130   57.0890 C.ar  103  TRP103      0.0003
     56  CD1        3.3130   23.2800   56.3030 C.ar  103  TRP103      0.0946
     57  CD2        5.1080   21.9250   56.2530 C.ar  103  TRP103      0.0152
     58  NE1        3.8890   23.3870   55.0400 N.ar  103  TRP103     -0.2442
     59  CE2        4.9860   22.5630   54.9900 C.ar  103  TRP103      0.0810
     60  CE3        6.1390   21.0090   56.4550 C.ar  103  TRP103      0.0012
     61  CZ2        5.8590   22.2760   53.9140 C.ar  103  TRP103      0.0191
     62  CZ3        7.0150   20.7230   55.3860 C.ar  103  TRP103      0.0001
     63  CH2        6.8770   21.3750   54.1440 C.ar  103  TRP103      0.0015
     64  N          9.4180   22.6370   59.2400 N.3   105  THR105     -0.1218
     65  CA        10.4430   21.6990   58.7820 C.3   105  THR105      0.1862
     66  C         11.7530   22.4490   58.5360 C.2   105  THR105      0.2287
     67  O         11.8120   23.6770   58.5930 O.2   105  THR105     -0.2866
     68  CB         9.9850   20.9780   57.4820 C.3   105  THR105      0.1770
     69  OG1       10.8020   19.8180   57.2390 O.3   105  THR105     -0.2211
     70  CG2       10.0210   21.9320   56.2660 C.3   105  THR105      0.0375
     71  N         13.7500   22.4170   55.2710 N.3   107  GLU107     -0.1245
     72  CA        13.7440   21.9440   53.8760 C.3   107  GLU107      0.1567
     73  C         15.1380   21.5360   53.4360 C.2   107  GLU107      0.2260
     74  O         15.2950   20.5540   52.6740 O.2   107  GLU107     -0.2867
     75  CB        13.2500   23.0470   52.9350 C.3   107  GLU107      0.0388
     76  CG        11.7890   23.4040   53.1400 C.3   107  GLU107      0.1160
     77  CD        11.4890   24.7810   52.5970 C.2   107  GLU107      0.3649
     78  OE1       12.0460   25.7390   53.1510 O.co2 107  GLU107     -0.2457
     79  OE2       10.6880   24.9010   51.6380 O.co2 107  GLU107     -0.2457
     80  N         15.9070   17.9480   54.6430 N.3   110  TRP110     -0.1241
     81  CA        14.7710   17.0310   54.8140 C.3   110  TRP110      0.1605
     82  C         15.1090   15.5980   54.3620 C.2   110  TRP110      0.2264
     83  O         15.7250   15.4100   53.2950 O.2   110  TRP110     -0.2867
     84  CB        13.5810   17.6000   54.0190 C.3   110  TRP110      0.0550
     85  CG        12.2760   16.9020   54.3020 C.ar  110  TRP110      0.0003
     86  CD1       11.3130   17.2970   55.1890 C.ar  110  TRP110      0.0946
     87  CD2       11.7990   15.6840   53.7040 C.ar  110  TRP110      0.0152
     88  NE1       10.2640   16.3960   55.1880 N.ar  110  TRP110     -0.2442
     89  CE2       10.5340   15.4050   54.2740 C.ar  110  TRP110      0.0810
     90  CE3       12.3240   14.7940   52.7410 C.ar  110  TRP110      0.0012
     91  CZ2        9.7990   14.2660   53.9390 C.ar  110  TRP110      0.0191
     92  CZ3       11.5770   13.6870   52.3820 C.ar  110  TRP110      0.0001
     93  CH2       10.3350   13.4140   52.9860 C.ar  110  TRP110      0.0015
     94  N         10.0760   17.1540   60.4890 N.3   115  GLU115     -0.1245
     95  CA         8.9090   17.8470   59.9490 C.3   115  GLU115      0.1567
     96  C          7.7610   17.6100   60.9230 C.2   115  GLU115      0.2260
     97  O          7.5270   16.4760   61.3400 O.2   115  GLU115     -0.2867
     98  CB         8.5310   17.2780   58.5760 C.3   115  GLU115      0.0388
     99  CG         7.1630   17.7750   58.0670 C.3   115  GLU115      0.1160
    100  CD         6.7610   17.2360   56.6850 C.2   115  GLU115      0.3649
    101  OE1        7.5650   16.5070   56.0430 O.co2 115  GLU115     -0.2457
    102  OE2        5.6180   17.5180   56.2480 O.co2 115  GLU115     -0.2457
    103  N          7.2900   13.6140   60.3890 N.3   133  HIS133     -0.1241
    104  CA         8.0260   12.8870   59.3570 C.3   133  HIS133      0.1621
    105  C          9.5020   13.1010   59.6760 C.2   133  HIS133      0.2264
    106  O          9.9350   14.2420   59.8360 O.2   133  HIS133     -0.2867
    107  CB         7.7130   13.5050   57.9880 C.3   133  HIS133      0.0745
    108  CG         6.2710   13.3940   57.5750 C.ar  133  HIS133      0.0817
    109  ND1        5.8100   12.4310   56.7050 N.ar  133  HIS133     -0.2268
    110  CD2        5.2010   14.1600   57.8910 C.ar  133  HIS133      0.1154
    111  CE1        4.5110   12.5970   56.5120 C.ar  133  HIS133      0.1986
    112  NE2        4.1140   13.6420   57.2200 N.ar  133  HIS133     -0.2212
    113  N          5.8910    6.9720   53.4080 N.3   162  ASN162     -0.1240
    114  CA         5.9340    8.2800   54.0680 C.3   162  ASN162      0.1653
    115  C          4.5750    8.7930   54.5770 C.2   162  ASN162      0.2266
    116  O          4.2340    9.9850   54.4370 O.2   162  ASN162     -0.2867
    117  CB         6.6120    9.3540   53.2180 C.3   162  ASN162      0.1155
    118  CG         6.8430   10.6490   54.0160 C.2   162  ASN162      0.2627
    119  OD1        7.0180   10.5940   55.2340 O.2   162  ASN162     -0.2716
    120  ND2        6.8040   11.7920   53.3420 N.am  162  ASN162     -0.0877
    121  N          0.8940   14.3950   45.6210 N.3   256  ASP256     -0.1239
    122  CA         1.2420   13.0920   46.2670 C.3   256  ASP256      0.1674
    123  C          0.0760   12.5080   47.0830 C.2   256  ASP256      0.2266
    124  O         -0.2150   11.3140   47.0030 O.2   256  ASP256     -0.2867
    125  CB         2.4220   13.2480   47.2530 C.3   256  ASP256      0.1410
    126  CG         3.7450   13.6110   46.6010 C.2   256  ASP256      0.3668
    127  OD1        3.8500   13.5640   45.3530 O.co2 256  ASP256     -0.2456
    128  OD2        4.6970   13.9230   47.3810 O.co2 256  ASP256     -0.2456
@<TRIPOS>BOND
     1    18    17    2
     2    22    20   ar
     3    22    24   ar
     4    19    20    1
     5    19    16    1
     6    17    16    1
     7    20    21   ar
     8    16    15    1
     9    24    23   ar
    10    21    23   ar
    11    15    10   am
    12    11    10    2
    13    10     9    1
    14   127   126   ar
    15   121   122    1
    16     1     2    1
    17     1     7    1
    18     4     3    2
    19   122   123    1
    20   122   125    1
    21     3     2    1
    22     3     8   am
    23     2     5    1
    24     8     9    1
    25     9    12    1
    26   126   125    1
    27   126   128   ar
    28   124   123    2
    29     7     6    1
    30    13    12    1
    31    12    14    1
    32     5     6    1
    33    48    46   ar
    34    48    49   ar
    35    46    43   ar
    36    25    26    1
    37    36    37    1
    38    40    37    1
    39    40    41    1
    40    29    26    1
    41    29    30    1
    42    49    47   ar
    43    43    41   ar
    44    43    45   ar
    45    31    30    1
    46    31    32    1
    47    34    33    1
    48    26    27    1
    49    37    38    1
    50    28    27    2
    51    41    42   ar
    52    39    38    2
    53    32    33    2
    54    33    35    1
    55    47    45   ar
    56    45    44   ar
    57    79    77   ar
    58    42    44   ar
    59    92    90   ar
    60    92    93   ar
    61    77    76    1
    62    77    78   ar
    63    74    73    2
    64    90    87   ar
    65    75    76    1
    66    75    72    1
    67    93    91   ar
    68   117   118    1
    69   117   114    1
    70    83    82    2
    71   120   118   am
    72   113   114    1
    73    73    72    1
    74    87    89   ar
    75    87    85   ar
    76    72    71    1
    77    61    63   ar
    78    61    59   ar
    79    91    89   ar
    80   118   119    2
    81    84    85    1
    82    84    81    1
    83   114   115    1
    84    63    62   ar
    85    89    88   ar
    86    85    86   ar
    87    82    81    1
    88   116   115    2
    89    80    81    1
    90    59    58   ar
    91    59    57   ar
    92    58    56   ar
    93    88    86   ar
    94    62    60   ar
    95   101   100   ar
    96   102   100   ar
    97    57    60   ar
    98    57    55   ar
    99    70    68    1
   100    56    55   ar
   101   111   109   ar
   102   111   112   ar
   103   100    99    1
   104   109   108   ar
   105    55    54    1
   106   112   110   ar
   107    69    68    1
   108    68    65    1
   109   108   110   ar
   110   108   107    1
   111   107   104    1
   112    99    98    1
   113    54    51    1
   114    66    67    2
   115    66    65    1
   116    98    95    1
   117    65    64    1
   118    50    51    1
   119   104   105    1
   120   104   103    1
   121    51    52    1
   122    53    52    2
   123   105   106    2
   124    95    94    1
   125    95    96    1
   126    96    97    2
