@<TRIPOS>MOLECULE
tmp/2w54B01.pdb
 104 97 0 0 0
SMALL
GASTEIGER

@<TRIPOS>ATOM
      1  N         10.1150   12.3570   17.8010 N.3   231  GLU231     -0.1245
      2  CA        10.3970   11.2100   18.6550 C.3   231  GLU231      0.1567
      3  C          9.1580   10.7020   19.3990 C.2   231  GLU231      0.2260
      4  O          9.0800    9.5210   19.7440 O.2   231  GLU231     -0.2867
      5  CB        11.5160   11.5140   19.6510 C.3   231  GLU231      0.0388
      6  CG        12.1400   10.2480   20.2160 C.3   231  GLU231      0.1160
      7  CD        13.0810   10.4870   21.3810 C.2   231  GLU231      0.3649
      8  OE1       12.9260    9.7810   22.4050 O.co2 231  GLU231     -0.2457
      9  OE2       13.9770   11.3580   21.2750 O.co2 231  GLU231     -0.2457
     10  N          9.0930   13.5530   27.5510 N.3   302  LEU302     -0.1245
     11  CA        10.4630   13.0730   27.7030 C.3   302  LEU302      0.1561
     12  C         11.2950   14.0350   28.5520 C.2   302  LEU302      0.2260
     13  O         12.4990   14.1880   28.3320 O.2   302  LEU302     -0.2867
     14  CB        11.1140   12.8690   26.3300 C.3   302  LEU302      0.0270
     15  CG        10.5210   11.8010   25.4050 C.3   302  LEU302      0.0019
     16  CD1       10.7890   12.1390   23.9410 C.3   302  LEU302      0.0001
     17  CD2       11.0450   10.4080   25.7490 C.3   302  LEU302      0.0001
     18  N         14.1950   12.0930   31.0740 N.3   305  PRO305     -0.2116
     19  CA        15.5350   11.8560   30.5360 C.3   305  PRO305      0.1372
     20  C         16.2590   13.1350   30.0820 C.2   305  PRO305      0.2244
     21  O         17.4890   13.2020   30.1810 O.2   305  PRO305     -0.2868
     22  CB        15.2800   10.9130   29.3550 C.3   305  PRO305      0.0268
     23  CG        13.8820   11.1790   28.9540 C.3   305  PRO305      0.0207
     24  CD        13.1540   11.4800   30.2270 C.3   305  PRO305      0.0892
     25  N         20.0200   14.4760   31.3250 N.3   309  ARG309     -0.1245
     26  CA        21.1360   14.7530   30.4250 C.3   309  ARG309      0.1563
     27  C         21.7020   16.1560   30.6560 C.2   309  ARG309      0.2260
     28  O         22.9130   16.3730   30.5500 O.2   309  ARG309     -0.2867
     29  CB        20.7280   14.5540   28.9630 C.3   309  ARG309      0.0307
     30  CG        21.8910   14.6500   27.9870 C.3   309  ARG309      0.0489
     31  CD        21.5120   14.2150   26.5890 C.3   309  ARG309      0.2205
     32  NE        21.3770   12.7670   26.4860 N.pl3 309  ARG309     -0.0865
     33  CZ        22.3620   11.9420   26.1450 C.cat 309  ARG309      0.5346
     34  NH1       23.5730   12.4160   25.8680 N.pl3 309  ARG309      0.1354
     35  NH2       22.1320   10.6380   26.0820 N.pl3 309  ARG309      0.1354
     36  N         19.2310   17.0940   23.4600 N.3   343  PHE343     -0.1241
     37  CA        18.4370   16.4040   24.4860 C.3   343  PHE343      0.1605
     38  C         18.7420   16.8620   25.9270 C.2   343  PHE343      0.2264
     39  O         18.9700   16.0470   26.8200 O.2   343  PHE343     -0.2867
     40  CB        18.5940   14.8830   24.3260 C.3   343  PHE343      0.0534
     41  CG        17.4430   14.0860   24.8680 C.ar  343  PHE343     -0.0203
     42  CD1       16.2860   13.9140   24.1200 C.ar  343  PHE343     -0.0042
     43  CD2       17.5240   13.4840   26.1170 C.ar  343  PHE343     -0.0042
     44  CE1       15.2180   13.1680   24.6180 C.ar  343  PHE343     -0.0003
     45  CE2       16.4650   12.7400   26.6200 C.ar  343  PHE343     -0.0003
     46  CZ        15.3080   12.5840   25.8700 C.ar  343  PHE343     -0.0000
     47  N         21.8730    6.1760   24.9120 N.3   442  PHE442     -0.1227
     48  CA        20.6710    6.4750   25.6840 C.3   442  PHE442      0.1736
     49  C         21.0130    6.3460   27.1670 C.2   442  PHE442      0.2596
     50  O         21.6330    5.3580   27.5840 O.2   442  PHE442     -0.2718
     51  CB        19.5250    5.5190   25.3250 C.3   442  PHE442      0.0547
     52  CG        18.9660    5.7170   23.9360 C.ar  442  PHE442     -0.0202
     53  CD1       19.4290    4.9540   22.8660 C.ar  442  PHE442     -0.0042
     54  CD2       17.9640    6.6520   23.6990 C.ar  442  PHE442     -0.0042
     55  CE1       18.9080    5.1320   21.5800 C.ar  442  PHE442     -0.0003
     56  CE2       17.4440    6.8370   22.4130 C.ar  442  PHE442     -0.0003
     57  CZ        17.9190    6.0780   21.3560 C.ar  442  PHE442     -0.0000
     58  N         20.6270    7.3490   27.9570 N.am  443  THR443     -0.1939
     59  CA        20.7960    7.2910   29.4150 C.3   443  THR443      0.2028
     60  C         19.8710    6.2210   29.9890 C.2   443  THR443      0.2642
     61  O         20.1240    5.6800   31.0610 O.2   443  THR443     -0.2714
     62  CB        20.5230    8.6470   30.1040 C.3   443  THR443      0.1808
     63  OG1       19.1250    8.9460   30.0490 O.3   443  THR443     -0.2208
     64  CG2       21.2960    9.7630   29.4250 C.3   443  THR443      0.0379
     65  N         18.7960    5.9360   29.2580 N.am  444  LEU444     -0.1977
     66  CA        17.9480    4.7860   29.5210 C.3   444  LEU444      0.1596
     67  C         18.5850    3.5710   28.8320 C.2   444  LEU444      0.2287
     68  O         18.3440    3.3200   27.6470 O.2   444  LEU444     -0.2864
     69  CB        16.5360    5.0470   28.9820 C.3   444  LEU444      0.0297
     70  CG        15.2850    4.5840   29.7380 C.3   444  LEU444      0.0022
     71  CD1       15.4190    3.1570   30.2380 C.3   444  LEU444      0.0001
     72  CD2       14.9630    5.5330   30.8920 C.3   444  LEU444      0.0001
     73  N         17.4940    0.8130   25.9800 N.3   447  LEU447     -0.1245
     74  CA        17.1710    1.3290   24.6520 C.3   447  LEU447      0.1561
     75  C         18.3820    1.3430   23.7220 C.2   447  LEU447      0.2260
     76  O         18.2640    1.6620   22.5380 O.2   447  LEU447     -0.2867
     77  CB        16.5730    2.7320   24.7560 C.3   447  LEU447      0.0270
     78  CG        15.3260    2.9120   25.6200 C.3   447  LEU447      0.0019
     79  CD1       14.9880    4.3770   25.6670 C.3   447  LEU447      0.0001
     80  CD2       14.1400    2.1030   25.1000 C.3   447  LEU447      0.0001
     81  N         13.8550    4.5450   19.5240 N.3   509  ALA509     -0.1245
     82  CA        13.7300    5.7720   18.7540 C.3   509  ALA509      0.1562
     83  C         15.0710    6.0890   18.1060 C.2   509  ALA509      0.2260
     84  O         16.1180    5.8330   18.7020 O.2   509  ALA509     -0.2867
     85  CB        13.3000    6.9050   19.6540 C.3   509  ALA509      0.0290
     86  N         17.4300    8.2030   18.0610 N.3   511  ALA511     -0.1231
     87  CA        17.8390    9.3110   18.9110 C.3   511  ALA511      0.1694
     88  C         19.2520    9.0950   19.4740 C.2   511  ALA511      0.2591
     89  O         19.9580    8.1680   19.0530 O.2   511  ALA511     -0.2718
     90  CB        16.8240    9.5000   20.0370 C.3   511  ALA511      0.0304
     91  N         19.6570    9.9670   20.4040 N.am  512  ALA512     -0.1980
     92  CA        20.9490    9.8830   21.1210 C.3   512  ALA512      0.1597
     93  C         22.1930    9.7950   20.2160 C.2   512  ALA512      0.2287
     94  O         23.2760    9.3960   20.6620 O.2   512  ALA512     -0.2864
     95  CB        20.9270    8.7340   22.1580 C.3   512  ALA512      0.0319
     96  N         24.1890   14.7760   17.2030 N.3   713  GLU713     -0.1245
     97  CA        23.8750   15.7990   18.2160 C.3   713  GLU713      0.1567
     98  C         25.0600   16.6530   18.6900 C.2   713  GLU713      0.2260
     99  O         24.9150   17.8740   18.8020 O.2   713  GLU713     -0.2867
    100  CB        23.1960   15.1770   19.4410 C.3   713  GLU713      0.0388
    101  CG        21.7620   14.7390   19.2280 C.3   713  GLU713      0.1160
    102  CD        21.2020   14.0230   20.4430 C.2   713  GLU713      0.3649
    103  OE1       21.7740   12.9820   20.8380 O.co2 713  GLU713     -0.2457
    104  OE2       20.1930   14.5010   21.0060 O.co2 713  GLU713     -0.2457
@<TRIPOS>BOND
     1    96    97    1
     2     1     2    1
     3    86    87    1
     4    83    84    2
     5    83    82    1
     6    97    98    1
     7    97   100    1
     8     2     3    1
     9     2     5    1
    10    98    99    2
    11    82    81    1
    12    82    85    1
    13    87    88    1
    14    87    90    1
    15    89    88    2
    16   101   100    1
    17   101   102    1
    18     3     4    2
    19    88    91   am
    20     5     6    1
    21    93    94    2
    22    93    92    1
    23     6     7    1
    24    91    92    1
    25   102   103   ar
    26   102   104   ar
    27    92    95    1
    28     9     7   ar
    29    57    55   ar
    30    57    56   ar
    31     7     8   ar
    32    55    53   ar
    33    56    54   ar
    34    76    75    2
    35    53    52   ar
    36    36    37    1
    37    54    52   ar
    38    75    74    1
    39    52    51    1
    40    16    15    1
    41    42    44   ar
    42    42    41   ar
    43    40    37    1
    44    40    41    1
    45    37    38    1
    46    44    46   ar
    47    74    77    1
    48    74    73    1
    49    77    78    1
    50    41    43   ar
    51    47    48    1
    52    80    78    1
    53    51    48    1
    54    15    17    1
    55    15    14    1
    56    78    79    1
    57    48    49    1
    58    34    33    1
    59    46    45   ar
    60    38    39    2
    61    35    33    1
    62    43    45   ar
    63    33    32    2
    64    14    11    1
    65    32    31    1
    66    31    30    1
    67    49    50    2
    68    49    58   am
    69    10    11    1
    70    68    67    2
    71    11    12    1
    72    58    59    1
    73    30    29    1
    74    13    12    2
    75    67    66    1
    76    23    22    1
    77    23    24    1
    78    29    26    1
    79    69    66    1
    80    69    70    1
    81    65    66    1
    82    65    60   am
    83    22    19    1
    84    59    60    1
    85    59    62    1
    86    64    62    1
    87    70    71    1
    88    70    72    1
    89    60    61    2
    90    63    62    1
    91    20    21    2
    92    20    19    1
    93    24    18    1
    94    26    27    1
    95    26    25    1
    96    19    18    1
    97    28    27    2
