@<TRIPOS>MOLECULE
tmp/2w58A00.pdb
 107 105 0 0 0
SMALL
GASTEIGER

@<TRIPOS>ATOM
      1  N        -27.5000    6.2580  -25.1940 N.3    16  ILE16      -0.1245
      2  CA       -27.3820    7.4230  -26.0720 C.3    16  ILE16       0.1561
      3  C        -28.4550    7.3670  -27.1570 C.2    16  ILE16       0.2260
      4  O        -28.6180    8.3060  -27.9380 O.2    16  ILE16      -0.2867
      5  CB       -25.9510    7.5170  -26.7130 C.3    16  ILE16       0.0252
      6  CG1      -25.9280    6.9040  -28.1170 C.3    16  ILE16       0.0019
      7  CG2      -24.9390    6.8340  -25.8130 C.3    16  ILE16       0.0019
      8  CD1      -26.1190    7.9040  -29.2390 C.3    16  ILE16       0.0001
      9  N        -36.0500   17.2980  -29.9660 N.3    23  ASP23      -0.1225
     10  CA       -35.2560   17.8360  -28.8660 C.3    23  ASP23       0.1805
     11  C        -34.0850   18.6530  -29.3860 C.2    23  ASP23       0.2598
     12  O        -33.3610   19.2760  -28.6130 O.2    23  ASP23      -0.2718
     13  CB       -34.7350   16.7130  -27.9720 C.3    23  ASP23       0.1424
     14  CG       -35.5390   16.5660  -26.6980 C.2    23  ASP23       0.3668
     15  OD1      -34.9720   16.0860  -25.6980 O.co2  23  ASP23      -0.2456
     16  OD2      -36.7350   16.9260  -26.6910 O.co2  23  ASP23      -0.2456
     17  N        -33.9020   18.6370  -30.7010 N.am   24  VAL24      -0.1966
     18  CA       -32.8320   19.3920  -31.3370 C.3    24  VAL24       0.1727
     19  C        -33.3540   20.7970  -31.6300 C.2    24  VAL24       0.2616
     20  O        -34.3750   20.9610  -32.3000 O.2    24  VAL24      -0.2715
     21  CB       -32.3790   18.7040  -32.6410 C.3    24  VAL24       0.0290
     22  CG1      -31.4440   17.5330  -32.3210 C.3    24  VAL24       0.0023
     23  CG2      -33.5980   18.1960  -33.4010 C.3    24  VAL24       0.0023
     24  N        -32.6430   21.8040  -31.1270 N.am   25  ASP25      -0.1971
     25  CA       -33.0320   23.2090  -31.2750 C.3    25  ASP25       0.1709
     26  C        -32.7150   23.8460  -32.6330 C.2    25  ASP25       0.2293
     27  O        -31.7480   23.4740  -33.3060 O.2    25  ASP25      -0.2864
     28  CB       -32.3770   24.0280  -30.1570 C.3    25  ASP25       0.1436
     29  CG       -33.1930   25.2480  -29.7590 C.2    25  ASP25       0.3671
     30  OD1      -32.6820   26.0540  -28.9570 O.co2  25  ASP25      -0.2456
     31  OD2      -34.3410   25.4010  -30.2320 O.co2  25  ASP25      -0.2456
     32  N        -16.0800   18.7290  -31.1300 N.3    60  PHE60      -0.1227
     33  CA       -16.5330   17.7770  -30.1280 C.3    60  PHE60       0.1736
     34  C        -17.7160   18.2530  -29.3070 C.2    60  PHE60       0.2596
     35  O        -17.7590   19.4020  -28.8860 O.2    60  PHE60      -0.2718
     36  CB       -15.3760   17.4040  -29.1930 C.3    60  PHE60       0.0547
     37  CG       -14.6830   18.5820  -28.5780 C.ar   60  PHE60      -0.0202
     38  CD1      -15.2440   19.2600  -27.5050 C.ar   60  PHE60      -0.0042
     39  CD2      -13.4600   19.0220  -29.0890 C.ar   60  PHE60      -0.0042
     40  CE1      -14.5980   20.3510  -26.9700 C.ar   60  PHE60      -0.0003
     41  CE2      -12.8150   20.1120  -28.5540 C.ar   60  PHE60      -0.0003
     42  CZ       -13.3790   20.7760  -27.4950 C.ar   60  PHE60      -0.0000
     43  N        -18.6790   17.3600  -29.0920 N.am   61  GLY61      -0.1942
     44  CA       -19.8470   17.6900  -28.2880 C.3    61  GLY61       0.2014
     45  C        -20.9680   18.5670  -28.8500 C.2    61  GLY61       0.2639
     46  O        -21.7770   19.0510  -28.0670 O.2    61  GLY61      -0.2714
     47  N        -21.0500   18.7810  -30.1640 N.am   62  VAL62      -0.1963
     48  CA       -22.1330   19.6180  -30.7130 C.3    62  VAL62       0.1727
     49  C        -23.4580   18.8620  -30.9130 C.2    62  VAL62       0.2617
     50  O        -24.5030   19.4690  -31.1610 O.2    62  VAL62      -0.2715
     51  CB       -21.7230   20.2850  -32.0610 C.3    62  VAL62       0.0290
     52  CG1      -20.5680   21.2320  -31.8230 C.3    62  VAL62       0.0023
     53  CG2      -21.3270   19.2390  -33.0870 C.3    62  VAL62       0.0023
     54  N        -23.4220   17.5380  -30.8190 N.am   63  GLY63      -0.1940
     55  CA       -24.6490   16.7710  -30.9720 C.3    63  GLY63       0.2014
     56  C        -24.7500   15.9710  -32.2550 C.2    63  GLY63       0.2639
     57  O        -25.8590   15.6590  -32.7010 O.2    63  GLY63      -0.2714
     58  N        -23.6010   15.6190  -32.8330 N.am   64  LYS64      -0.1963
     59  CA       -23.5780   14.8770  -34.0870 C.3    64  LYS64       0.1728
     60  C        -24.1230   13.4650  -33.9200 C.2    64  LYS64       0.2617
     61  O        -25.0530   13.0730  -34.6340 O.2    64  LYS64      -0.2715
     62  CB       -22.1600   14.8470  -34.6680 C.3    64  LYS64       0.0311
     63  CG       -21.5690   16.2350  -34.8460 C.3    64  LYS64       0.0038
     64  CD       -20.1820   16.1960  -35.4940 C.3    64  LYS64       0.0206
     65  CE       -19.1330   15.5100  -34.6190 C.3    64  LYS64       0.1093
     66  NZ       -18.8010   16.2610  -33.3600 N.3    64  LYS64      -0.1314
     67  N        -23.5540   12.7150  -32.9780 N.am   65  THR65      -0.1937
     68  CA       -23.9910   11.3540  -32.6870 C.3    65  THR65       0.2028
     69  C        -25.4720   11.3500  -32.2690 C.2    65  THR65       0.2642
     70  O        -26.2510   10.4950  -32.6910 O.2    65  THR65      -0.2714
     71  CB       -23.1330   10.7380  -31.5510 C.3    65  THR65       0.1808
     72  OG1      -21.7530   10.7460  -31.9430 O.3    65  THR65      -0.2208
     73  CG2      -23.5720    9.3000  -31.2550 C.3    65  THR65       0.0379
     74  N        -25.8630   12.3100  -31.4430 N.am   66  TYR66      -0.1973
     75  CA       -27.2500   12.3920  -31.0180 C.3    66  TYR66       0.1639
     76  C        -28.1710   12.5440  -32.2370 C.2    66  TYR66       0.2290
     77  O        -29.2980   12.0420  -32.2470 O.2    66  TYR66      -0.2864
     78  CB       -27.4150   13.5670  -30.0570 C.3    66  TYR66       0.0560
     79  CG       -28.8310   13.8010  -29.5800 C.ar   66  TYR66      -0.0198
     80  CD1      -29.7620   14.4510  -30.3890 C.ar   66  TYR66      -0.0009
     81  CD2      -29.2430   13.3710  -28.3180 C.ar   66  TYR66      -0.0009
     82  CE1      -31.0700   14.6660  -29.9530 C.ar   66  TYR66       0.0417
     83  CE2      -30.5460   13.5830  -27.8740 C.ar   66  TYR66       0.0417
     84  CZ       -31.4550   14.2270  -28.6960 C.ar   66  TYR66       0.1957
     85  OH       -32.7510   14.4040  -28.2650 O.3    66  TYR66      -0.2866
     86  N        -22.1520   20.9250  -25.8040 N.3   187  ARG187     -0.1231
     87  CA       -23.0840   20.3250  -24.8550 C.3   187  ARG187      0.1694
     88  C        -22.2820   19.2620  -24.0020 C.2   187  ARG187      0.2591
     89  O        -22.0280   18.1300  -24.4480 O.2   187  ARG187     -0.2718
     90  CB       -24.2630   19.6670  -25.6200 C.3   187  ARG187      0.0321
     91  CG       -25.4910   20.5350  -26.1060 C.3   187  ARG187      0.0489
     92  CD       -26.4310   19.3920  -26.5730 C.3   187  ARG187      0.2205
     93  NE       -27.7640   19.9760  -26.7760 N.pl3 187  ARG187     -0.0865
     94  CZ       -28.7940   19.8390  -25.9280 C.cat 187  ARG187      0.5346
     95  NH1      -28.6620   19.1220  -24.7800 N.pl3 187  ARG187      0.1354
     96  NH2      -29.9830   20.4020  -26.2370 N.pl3 187  ARG187      0.1354
     97  N        -21.8490   19.6550  -22.7990 N.am  188  ARG188     -0.1980
     98  CA       -21.1250   18.7950  -21.8290 C.3   188  ARG188      0.1597
     99  C        -20.8490   19.6990  -20.6000 C.2   188  ARG188      0.2287
    100  O        -20.4030   19.1800  -19.5460 O.2   188  ARG188     -0.2864
    101  CB       -19.7380   18.2760  -22.3200 C.3   188  ARG188      0.0334
    102  CG       -19.5000   17.6040  -23.7220 C.3   188  ARG188      0.0492
    103  CD       -19.9550   16.1020  -23.8900 C.3   188  ARG188      0.2205
    104  NE       -19.7480   15.2160  -22.7310 N.pl3 188  ARG188     -0.0865
    105  CZ       -19.5500   13.8970  -22.8400 C.cat 188  ARG188      0.5346
    106  NH1      -19.3900   13.1160  -21.7710 N.pl3 188  ARG188      0.1354
    107  NH2      -19.4590   13.3540  -24.0480 N.pl3 188  ARG188      0.1354
@<TRIPOS>BOND
     1    64    63    1
     2    64    65    1
     3    63    62    1
     4    62    59    1
     5    61    60    2
     6    65    66    1
     7    59    60    1
     8    59    58    1
     9    60    67   am
    10    23    21    1
    11    27    26    2
    12    53    51    1
    13    67    68    1
    14    58    56   am
    15    57    56    2
    16    70    69    2
    17    68    69    1
    18    68    71    1
    19    21    22    1
    20    21    18    1
    21    26    25    1
    22    20    19    2
    23    69    74   am
    24    56    55    1
    25    77    76    2
    26    76    75    1
    27    51    52    1
    28    51    48    1
    29    72    71    1
    30    19    18    1
    31    19    24   am
    32    71    73    1
    33    74    75    1
    34    18    17    1
    35    25    24    1
    36    25    28    1
    37    50    49    2
    38    32    33    1
    39    75    78    1
    40    55    54    1
    41    49    54   am
    42    49    48    1
    43    48    47    1
    44    17    11   am
    45    80    82   ar
    46    80    79   ar
    47    31    29   ar
    48    47    45   am
    49    28    29    1
    50    33    34    1
    51    33    36    1
    52    78    79    1
    53     9    10    1
    54    82    84   ar
    55    29    30   ar
    56    79    81   ar
    57    11    10    1
    58    11    12    2
    59    34    43   am
    60    34    35    2
    61     8     6    1
    62    36    37    1
    63    43    44    1
    64    39    37   ar
    65    39    41   ar
    66    10    13    1
    67    45    44    1
    68    45    46    2
    69    84    85    1
    70    84    83   ar
    71    37    38   ar
    72    41    42   ar
    73    81    83   ar
    74     6     5    1
    75    13    14    1
    76     4     3    2
    77    38    40   ar
    78    42    40   ar
    79     3     2    1
    80    93    92    1
    81    93    94    2
    82     5     2    1
    83     5     7    1
    84    14    16   ar
    85    14    15   ar
    86    92    91    1
    87    96    94    1
    88    91    90    1
    89     2     1    1
    90    94    95    1
    91    86    87    1
    92    90    87    1
    93    87    88    1
    94    89    88    2
    95   107   105    1
    96    88    97   am
    97   103   102    1
    98   103   104    1
    99   102   101    1
   100   105   104    2
   101   105   106    1
   102    97    98    1
   103   101    98    1
   104    98    99    1
   105    99   100    2
