@<TRIPOS>MOLECULE
tmp/2w59A00.pdb
 99 91 0 0 0
SMALL
GASTEIGER

@<TRIPOS>ATOM
      1  N          6.7700   -9.6980   25.2700 N.3     1  PRO1       -0.2116
      2  CA         6.4900  -10.5470   24.1060 C.3     1  PRO1        0.1372
      3  C          6.3290   -9.7110   22.8390 C.2     1  PRO1        0.2244
      4  O          5.2190   -9.2760   22.5380 O.2     1  PRO1       -0.2868
      5  CB         5.1500  -11.2060   24.4620 C.3     1  PRO1        0.0268
      6  CG         4.9730  -10.9900   25.9370 C.3     1  PRO1        0.0207
      7  CD         5.6560   -9.6980   26.2310 C.3     1  PRO1        0.0892
      8  N          5.5030   -8.7460   19.3090 N.3     3  GLN3       -0.1245
      9  CA         4.6000   -9.3280   18.3200 C.3     3  GLN3        0.1566
     10  C          4.5710   -8.5040   17.0400 C.2     3  GLN3        0.2260
     11  O          4.8020   -7.2960   17.0610 O.2     3  GLN3       -0.2867
     12  CB         3.1830   -9.4350   18.8800 C.3     3  GLN3        0.0367
     13  CG         3.0890  -10.1260   20.2250 C.3     3  GLN3        0.0905
     14  CD         1.6550  -10.2740   20.6890 C.2     3  GLN3        0.2608
     15  OE1        1.2390   -9.6510   21.6670 O.2     3  GLN3       -0.2717
     16  NE2        0.8840  -11.0900   19.9780 N.am    3  GLN3       -0.0878
     17  N          2.3050   -7.7040   13.3980 N.3     5  TYR5       -0.1241
     18  CA         1.0530   -7.8320   12.6590 C.3     5  TYR5        0.1605
     19  C          1.1780   -7.2290   11.2690 C.2     5  TYR5        0.2264
     20  O          1.7090   -6.1280   11.1070 O.2     5  TYR5       -0.2867
     21  CB        -0.0930   -7.1540   13.4100 C.3     5  TYR5        0.0534
     22  CG        -0.2450   -7.6290   14.8320 C.ar    5  TYR5       -0.0201
     23  CD1       -0.9000   -8.8190   15.1210 C.ar    5  TYR5       -0.0009
     24  CD2        0.2750   -6.8920   15.8890 C.ar    5  TYR5       -0.0009
     25  CE1       -1.0350   -9.2590   16.4220 C.ar    5  TYR5        0.0417
     26  CE2        0.1440   -7.3240   17.1910 C.ar    5  TYR5        0.0417
     27  CZ        -0.5110   -8.5070   17.4530 C.ar    5  TYR5        0.1957
     28  OH        -0.6420   -8.9380   18.7520 O.3     5  TYR5       -0.2866
     29  N         -0.9270   -5.8230    8.0720 N.3     7  ILE7       -0.1245
     30  CA        -2.2480   -5.2470    7.8870 C.3     7  ILE7        0.1561
     31  C         -2.4930   -4.9030    6.4200 C.2     7  ILE7        0.2260
     32  O         -1.7520   -4.1200    5.8240 O.2     7  ILE7       -0.2867
     33  CB        -2.4160   -3.9900    8.7690 C.3     7  ILE7        0.0252
     34  CG1       -2.1400   -4.3410   10.2380 C.3     7  ILE7        0.0019
     35  CG2       -3.8050   -3.3830    8.5940 C.3     7  ILE7        0.0019
     36  CD1       -1.9420   -3.1350   11.1360 C.3     7  ILE7        0.0001
     37  N          2.8610   -3.6370   11.9080 N.3    25  LEU25      -0.1245
     38  CA         2.8620   -3.0890   13.2600 C.3    25  LEU25       0.1561
     39  C          3.6240   -4.0170   14.1950 C.2    25  LEU25       0.2260
     40  O          3.3340   -5.2090   14.2600 O.2    25  LEU25      -0.2867
     41  CB         1.4290   -2.8980   13.7720 C.3    25  LEU25       0.0270
     42  CG         1.2990   -2.4370   15.2290 C.3    25  LEU25       0.0019
     43  CD1        1.8170   -1.0190   15.3960 C.3    25  LEU25       0.0001
     44  CD2       -0.1390   -2.5360   15.7030 C.3    25  LEU25       0.0001
     45  N          4.6500   -4.5910   18.1700 N.3    27  VAL27      -0.1231
     46  CA         4.2690   -4.1800   19.5200 C.3    27  VAL27       0.1692
     47  C          5.1800   -4.7770   20.5880 C.2    27  VAL27       0.2592
     48  O          5.8630   -5.7760   20.3520 O.2    27  VAL27      -0.2718
     49  CB         2.8130   -4.5730   19.8500 C.3    27  VAL27       0.0266
     50  CG1        1.8610   -4.0300   18.8010 C.3    27  VAL27       0.0020
     51  CG2        2.6830   -6.0810   19.9600 C.3    27  VAL27       0.0020
     52  N          5.1740   -4.1540   21.7630 N.am   28  ASN28      -0.1974
     53  CA         5.9350   -4.6290   22.9190 C.3    28  ASN28       0.1688
     54  C          7.4510   -4.5000   22.7710 C.2    28  ASN28       0.2292
     55  O          8.2020   -5.2650   23.3730 O.2    28  ASN28      -0.2864
     56  CB         5.5670   -6.0770   23.2680 C.3    28  ASN28       0.1181
     57  CG         4.1400   -6.2150   23.7770 C.2    28  ASN28       0.2629
     58  OD1        3.5000   -5.2310   24.1530 O.2    28  ASN28      -0.2716
     59  ND2        3.6380   -7.4430   23.7940 N.am   28  ASN28      -0.0877
     60  N          6.1710    4.8620   18.4040 N.3    55  GLN55      -0.1245
     61  CA         5.3490    5.4240   19.4670 C.3    55  GLN55       0.1566
     62  C          5.7360    4.8790   20.8370 C.2    55  GLN55       0.2260
     63  O          5.9100    3.6720   21.0130 O.2    55  GLN55      -0.2867
     64  CB         3.8590    5.1700   19.2190 C.3    55  GLN55       0.0367
     65  CG         3.0040    5.4490   20.4510 C.3    55  GLN55       0.0905
     66  CD         1.5410    5.6790   20.1280 C.2    55  GLN55       0.2608
     67  OE1        0.8880    6.5290   20.7360 O.2    55  GLN55      -0.2717
     68  NE2        1.0170    4.9250   19.1670 N.am   55  GLN55      -0.0878
     69  N          4.5410    4.2580   24.6680 N.3    57  HIS57      -0.1241
     70  CA         3.2730    4.0650   25.3640 C.3    57  HIS57       0.1621
     71  C          3.4050    4.2370   26.8740 C.2    57  HIS57       0.2264
     72  O          4.5110    4.3590   27.4020 O.2    57  HIS57      -0.2867
     73  CB         2.6910    2.6880   25.0460 C.3    57  HIS57       0.0745
     74  CG         2.3410    2.4990   23.6050 C.ar   57  HIS57       0.0817
     75  ND1        1.3710    3.2460   22.9710 N.ar   57  HIS57      -0.2268
     76  CD2        2.8240    1.6430   22.6740 C.ar   57  HIS57       0.1154
     77  CE1        1.2730    2.8590   21.7120 C.ar   57  HIS57       0.1986
     78  NE2        2.1450    1.8880   21.5050 N.ar   57  HIS57      -0.2212
     79  N          2.3420    1.9510   29.0570 N.3    59  ASN59      -0.1240
     80  CA         2.6970    0.6450   29.6060 C.3    59  ASN59       0.1653
     81  C          4.1920    0.3330   29.4980 C.2    59  ASN59       0.2266
     82  O          4.6150   -0.8050   29.7050 O.2    59  ASN59      -0.2867
     83  CB         1.8530   -0.4700   28.9730 C.3    59  ASN59       0.1155
     84  CG         1.5070   -0.1950   27.5200 C.2    59  ASN59       0.2627
     85  OD1        0.8880    0.8200   27.1980 O.2    59  ASN59      -0.2716
     86  ND2        1.8990   -1.1070   26.6350 N.am   59  ASN59      -0.0877
     87  N          6.2500    0.0870   27.0080 N.3    61  THR61      -0.1218
     88  CA         6.7640   -0.4510   25.7500 C.3    61  THR61       0.1862
     89  C          6.6990    0.5400   24.5910 C.2    61  THR61       0.2287
     90  O          6.0850    1.6030   24.6920 O.2    61  THR61      -0.2866
     91  CB         6.0390   -1.7530   25.3390 C.3    61  THR61       0.1770
     92  OG1        4.6290   -1.6100   25.5530 O.3    61  THR61      -0.2211
     93  CG2        6.5530   -2.9320   26.1510 C.3    61  THR61       0.0375
     94  N          5.9430    0.8280   20.2830 N.3    63  SER63      -0.1217
     95  CA         5.4450    0.1730   19.0840 C.3    63  SER63       0.1889
     96  C          6.0510    0.8470   17.8590 C.2    63  SER63       0.2288
     97  O          6.4700    2.0020   17.9150 O.2    63  SER63      -0.2866
     98  CB         3.9160    0.2030   19.0280 C.3    63  SER63       0.2089
     99  OG         3.4300    1.5320   18.9560 O.3    63  SER63      -0.2183
@<TRIPOS>BOND
     1    32    31    2
     2    31    30    1
     3    30    29    1
     4    30    33    1
     5    35    33    1
     6    33    34    1
     7    34    36    1
     8    20    19    2
     9    19    18    1
    10    37    38    1
    11    18    17    1
    12    18    21    1
    13    38    41    1
    14    38    39    1
    15    21    22    1
    16    41    42    1
    17    39    40    2
    18    22    23   ar
    19    22    24   ar
    20    23    25   ar
    21    42    43    1
    22    42    44    1
    23    24    26   ar
    24    25    27   ar
    25    10    11    2
    26    10     9    1
    27    26    27   ar
    28    27    28    1
    29    96    97    2
    30    96    95    1
    31    45    46    1
    32     9    12    1
    33     9     8    1
    34    60    61    1
    35    50    49    1
    36    12    13    1
    37    99    98    1
    38    98    95    1
    39    95    94    1
    40    68    66   am
    41    64    61    1
    42    64    65    1
    43    61    62    1
    44    46    49    1
    45    46    47    1
    46    49    51    1
    47    16    14   am
    48    66    65    1
    49    66    67    2
    50    13    14    1
    51    48    47    2
    52    47    52   am
    53    14    15    2
    54    62    63    2
    55    78    77   ar
    56    78    76   ar
    57    77    75   ar
    58    52    53    1
    59     4     3    2
    60    76    74   ar
    61    54    53    1
    62    54    55    2
    63     3     2    1
    64    53    56    1
    65    75    74   ar
    66    56    57    1
    67    74    73    1
    68    57    59   am
    69    57    58    2
    70     2     5    1
    71     2     1    1
    72     5     6    1
    73    89    90    2
    74    89    88    1
    75    69    70    1
    76    73    70    1
    77     1     7    1
    78    91    92    1
    79    91    88    1
    80    91    93    1
    81    70    71    1
    82    88    87    1
    83     6     7    1
    84    86    84   am
    85    71    72    2
    86    85    84    2
    87    84    83    1
    88    83    80    1
    89    79    80    1
    90    81    80    1
    91    81    82    2
