@<TRIPOS>MOLECULE
tmp/2w5aA00.pdb
 173 164 0 0 0
SMALL
GASTEIGER

@<TRIPOS>ATOM
      1  N        -33.5450    9.1820   18.6650 N.3    12  ILE12      -0.1231
      2  CA       -32.6170    9.9200   19.5110 C.3    12  ILE12       0.1692
      3  C        -32.5000   11.3540   19.0130 C.2    12  ILE12       0.2593
      4  O        -32.5670   12.3140   19.7900 O.2    12  ILE12      -0.2718
      5  CB       -31.2240    9.2500   19.5240 C.3    12  ILE12       0.0266
      6  CG1      -31.2930    7.8990   20.2390 C.3    12  ILE12       0.0019
      7  CG2      -30.1920   10.1540   20.2000 C.3    12  ILE12       0.0020
      8  CD1      -30.0540    7.0280   20.0320 C.3    12  ILE12       0.0001
      9  N        -32.3210   11.5010   17.7090 N.am   13  GLY13      -0.1942
     10  CA       -32.2690   12.8140   17.1020 C.3    13  GLY13       0.2014
     11  C        -32.3220   12.7270   15.5950 C.2    13  GLY13       0.2640
     12  O        -32.1070   11.6640   15.0140 O.2    13  GLY13      -0.2714
     13  N        -32.6170   13.8490   14.9550 N.am   14  THR14      -0.1936
     14  CA       -32.5770   13.9130   13.5060 C.3    14  THR14       0.2028
     15  C        -31.2980   14.5980   13.0420 C.2    14  THR14       0.2643
     16  O        -31.0750   15.7760   13.3200 O.2    14  THR14      -0.2714
     17  CB       -33.8120   14.6300   12.9350 C.3    14  THR14       0.1808
     18  OG1      -34.9870   13.8820   13.2710 O.3    14  THR14      -0.2208
     19  CG2      -33.7050   14.7420   11.4210 C.3    14  THR14       0.0379
     20  N        -30.4510   13.8410   12.3510 N.am   15  GLY15      -0.1939
     21  CA       -29.2240   14.3690   11.7950 C.3    15  GLY15       0.2014
     22  C        -29.4670   15.0330   10.4560 C.2    15  GLY15       0.2640
     23  O        -30.6100   15.1660   10.0120 O.2    15  GLY15      -0.2714
     24  N        -28.3870   15.4470    9.8070 N.am   16  SER16      -0.1935
     25  CA       -28.4860   16.1590    8.5380 C.3    16  SER16       0.2055
     26  C        -29.0210   15.2730    7.4180 C.2    16  SER16       0.2643
     27  O        -29.5960   15.7710    6.4480 O.2    16  SER16      -0.2714
     28  CB       -27.1240   16.7370    8.1430 C.3    16  SER16       0.2130
     29  OG       -26.6550   17.6470    9.1230 O.3    16  SER16      -0.2179
     30  N        -28.8390   13.9620    7.5490 N.am   17  TYR17      -0.1959
     31  CA       -29.1880   13.0500    6.4590 C.3    17  TYR17       0.1771
     32  C        -30.2250   12.0050    6.8360 C.2    17  TYR17       0.2620
     33  O        -30.5870   11.1510    6.0220 O.2    17  TYR17      -0.2715
     34  CB       -27.9280   12.3870    5.9020 C.3    17  TYR17       0.0574
     35  CG       -26.8990   13.3980    5.4570 C.ar   17  TYR17      -0.0198
     36  CD1      -26.9580   13.9640    4.1880 C.ar   17  TYR17      -0.0009
     37  CD2      -25.8850   13.8090    6.3120 C.ar   17  TYR17      -0.0009
     38  CE1      -26.0250   14.8980    3.7790 C.ar   17  TYR17       0.0417
     39  CE2      -24.9470   14.7440    5.9100 C.ar   17  TYR17       0.0417
     40  CZ       -25.0250   15.2850    4.6430 C.ar   17  TYR17       0.1957
     41  OH       -24.0970   16.2150    4.2370 O.3    17  TYR17      -0.2866
     42  N        -30.7160   12.0790    8.0650 N.am   18  GLY18      -0.1954
     43  CA       -31.7500   11.1640    8.5010 C.3    18  GLY18       0.1869
     44  C        -31.7680   11.0010   10.0030 C.2    18  GLY18       0.2309
     45  O        -30.9390   11.5780   10.7130 O.2    18  GLY18      -0.2863
     46  N        -31.4360    9.2210   13.6870 N.3    20  CYS20      -0.1235
     47  CA       -30.7110    8.2380   14.4690 C.3    20  CYS20       0.1677
     48  C        -31.6980    7.7170   15.4980 C.2    20  CYS20       0.2270
     49  O        -32.2580    8.4940   16.2710 O.2    20  CYS20      -0.2867
     50  CB       -29.5180    8.8710   15.1780 C.3    20  CYS20       0.0956
     51  SG       -28.5900    7.6990   16.2010 S.3    20  CYS20      -0.0801
     52  N        -28.0240    1.5340   17.9640 N.3    33  VAL33      -0.1245
     53  CA       -28.7310    2.5550   17.2010 C.3    33  VAL33       0.1561
     54  C        -28.7030    2.1710   15.7370 C.2    33  VAL33       0.2260
     55  O        -27.9010    1.3360   15.3190 O.2    33  VAL33      -0.2867
     56  CB       -28.1170    3.9720   17.3610 C.3    33  VAL33       0.0252
     57  CG1      -27.9940    4.3310   18.8300 C.3    33  VAL33       0.0019
     58  CG2      -26.7680    4.0730   16.6470 C.3    33  VAL33       0.0019
     59  N        -28.9260    4.4040   11.8130 N.3    35  LYS35      -0.1245
     60  CA       -29.0320    5.6850   11.1370 C.3    35  LYS35       0.1561
     61  C        -29.6760    5.4880    9.7760 C.2    35  LYS35       0.2260
     62  O        -29.2880    4.6030    9.0200 O.2    35  LYS35      -0.2867
     63  CB       -27.6560    6.3380   11.0210 C.3    35  LYS35       0.0271
     64  CG       -27.0900    6.6740   12.3960 C.3    35  LYS35       0.0035
     65  CD       -25.7650    7.4140   12.3550 C.3    35  LYS35       0.0206
     66  CE       -25.3790    7.8330   13.7650 C.3    35  LYS35       0.1093
     67  NZ       -24.1170    8.6140   13.8180 N.3    35  LYS35      -0.1314
     68  N        -16.6580    4.3660   17.3430 N.3    66  VAL66      -0.1245
     69  CA       -18.0200    3.8320   17.4180 C.3    66  VAL66       0.1561
     70  C        -18.1210    2.6390   16.4730 C.2    66  VAL66       0.2260
     71  O        -17.7900    2.7390   15.2880 O.2    66  VAL66      -0.2867
     72  CB       -19.0870    4.8910   17.0900 C.3    66  VAL66       0.0252
     73  CG1      -20.4820    4.2720   17.1470 C.3    66  VAL66       0.0019
     74  CG2      -19.0000    6.0540   18.0660 C.3    66  VAL66       0.0019
     75  N        -25.2740    0.6560   14.5100 N.3    84  MET84      -0.1230
     76  CA       -24.0200    0.9140   15.2060 C.3    84  MET84       0.1702
     77  C        -24.1640    0.8550   16.7180 C.2    84  MET84       0.2592
     78  O        -25.2670    0.8100   17.2630 O.2    84  MET84      -0.2718
     79  CB       -23.4410    2.2730   14.7940 C.3    84  MET84       0.0401
     80  CG       -23.2320    2.4190   13.3020 C.3    84  MET84       0.0596
     81  SD       -22.4520    3.9740   12.8450 S.3    84  MET84      -0.1393
     82  CE       -20.7570    3.6750   13.3460 C.3    84  MET84       0.0692
     83  N        -23.0170    0.8630   17.3850 N.am   85  GLU85      -0.1966
     84  CA       -22.9540    0.8810   18.8340 C.3    85  GLU85       0.1733
     85  C        -23.7270    2.0780   19.3990 C.2    85  GLU85       0.2616
     86  O        -23.6310    3.1880   18.8670 O.2    85  GLU85      -0.2715
     87  CB       -21.4740    0.9630   19.2280 C.3    85  GLU85       0.0429
     88  CG       -21.1920    1.2740   20.6730 C.3    85  GLU85       0.1163
     89  CD       -19.7030    1.3710   20.9440 C.2    85  GLU85       0.3649
     90  OE1      -19.3240    1.4170   22.1290 O.co2  85  GLU85      -0.2457
     91  OE2      -18.9180    1.4030   19.9700 O.co2  85  GLU85      -0.2457
     92  N        -24.4920    1.8570   20.4680 N.am   86  TYR86      -0.1960
     93  CA       -25.1820    2.9470   21.1620 C.3    86  TYR86       0.1771
     94  C        -24.2830    3.5050   22.2640 C.2    86  TYR86       0.2619
     95  O        -23.7320    2.7500   23.0670 O.2    86  TYR86      -0.2715
     96  CB       -26.5040    2.4620   21.7700 C.3    86  TYR86       0.0574
     97  CG       -27.1410    3.4570   22.7220 C.ar   86  TYR86      -0.0198
     98  CD1      -27.5620    4.7050   22.2750 C.ar   86  TYR86      -0.0009
     99  CD2      -27.3210    3.1470   24.0660 C.ar   86  TYR86      -0.0009
    100  CE1      -28.1480    5.6210   23.1440 C.ar   86  TYR86       0.0417
    101  CE2      -27.9060    4.0530   24.9390 C.ar   86  TYR86       0.0417
    102  CZ       -28.3160    5.2850   24.4730 C.ar   86  TYR86       0.1957
    103  OH       -28.9000    6.1880   25.3360 O.3    86  TYR86      -0.2866
    104  N        -24.1380    4.8270   22.2890 N.am   87  CYS87      -0.1968
    105  CA       -23.2960    5.4990   23.2740 C.3    87  CYS87       0.1712
    106  C        -24.1660    6.2990   24.2370 C.2    87  CYS87       0.2296
    107  O        -24.5770    7.4260   23.9350 O.2    87  CYS87      -0.2864
    108  CB       -22.3030    6.4250   22.5730 C.3    87  CYS87       0.0983
    109  SG       -21.1470    5.5570   21.4720 S.3    87  CYS87      -0.0798
    110  N        -23.9370   10.1110   25.2190 N.3    90  GLY90      -0.1210
    111  CA       -24.1620   11.1240   24.2020 C.3    90  GLY90       0.1956
    112  C        -22.8840   11.7620   23.6830 C.2    90  GLY90       0.2611
    113  O        -21.7950   11.2190   23.8560 O.2    90  GLY90      -0.2717
    114  N        -23.0230   12.9300   23.0620 N.am   91  ASP91      -0.1973
    115  CA       -21.9100   13.5710   22.3690 C.3    91  ASP91       0.1709
    116  C        -21.2400   14.6400   23.2240 C.2    91  ASP91       0.2293
    117  O        -21.8170   15.1330   24.1960 O.2    91  ASP91      -0.2864
    118  CB       -22.4140   14.2120   21.0810 C.3    91  ASP91       0.1436
    119  CG       -23.3320   15.3810   21.3510 C.2    91  ASP91       0.3671
    120  OD1      -24.4970   15.1500   21.7450 O.co2  91  ASP91      -0.2456
    121  OD2      -22.8910   16.5330   21.1850 O.co2  91  ASP91      -0.2456
    122  N        -14.9970   17.2220   15.5140 N.3   135  LYS135     -0.1245
    123  CA       -15.8300   18.1930   16.2120 C.3   135  LYS135      0.1561
    124  C        -16.4960   17.5030   17.3980 C.2   135  LYS135      0.2260
    125  O        -16.7300   16.2920   17.3660 O.2   135  LYS135     -0.2867
    126  CB       -16.8700   18.8130   15.2790 C.3   135  LYS135      0.0271
    127  CG       -17.9690   17.8710   14.8410 C.3   135  LYS135      0.0035
    128  CD       -18.8630   18.5340   13.8010 C.3   135  LYS135      0.0206
    129  CE       -20.0060   17.6190   13.3970 C.3   135  LYS135      0.1093
    130  NZ       -20.8430   18.2250   12.3190 N.3   135  LYS135     -0.1314
    131  N        -19.4610   17.3450   18.4440 N.3   137  ALA137     -0.1231
    132  CA       -20.7180   16.6800   18.1530 C.3   137  ALA137      0.1694
    133  C        -20.5040   15.2900   17.5670 C.2   137  ALA137      0.2592
    134  O        -21.4440   14.5060   17.4590 O.2   137  ALA137     -0.2718
    135  CB       -21.5720   17.5320   17.2070 C.3   137  ALA137      0.0304
    136  N        -19.2700   14.9870   17.1740 N.am  138  ASN138     -0.1974
    137  CA       -18.9820   13.6770   16.6120 C.3   138  ASN138      0.1688
    138  C        -18.0890   12.8220   17.5040 C.2   138  ASN138      0.2292
    139  O        -17.4690   11.8760   17.0380 O.2   138  ASN138     -0.2864
    140  CB       -18.3530   13.7900   15.2340 C.3   138  ASN138      0.1181
    141  CG       -18.5080   12.5160   14.4340 C.2   138  ASN138      0.2629
    142  OD1      -19.5400   11.8450   14.5190 O.2   138  ASN138     -0.2716
    143  ND2      -17.4870   12.1650   13.6660 N.am  138  ASN138     -0.0877
    144  N        -18.2650   10.6700   21.1710 N.3   140  PHE140     -0.1241
    145  CA       -19.3010   10.0990   22.0230 C.3   140  PHE140      0.1605
    146  C        -18.7590    9.4370   23.2770 C.2   140  PHE140      0.2264
    147  O        -17.5910    9.0470   23.3430 O.2   140  PHE140     -0.2867
    148  CB       -20.1470    9.1060   21.2140 C.3   140  PHE140      0.0534
    149  CG       -20.9100    9.7570   20.1050 C.ar  140  PHE140     -0.0203
    150  CD1      -20.3270    9.9410   18.8620 C.ar  140  PHE140     -0.0042
    151  CD2      -22.1920   10.2350   20.3190 C.ar  140  PHE140     -0.0042
    152  CE1      -21.0130   10.5830   17.8420 C.ar  140  PHE140     -0.0003
    153  CE2      -22.8840   10.8730   19.3000 C.ar  140  PHE140     -0.0003
    154  CZ       -22.2920   11.0460   18.0660 C.ar  140  PHE140     -0.0000
    155  N        -18.8230    8.0370   13.5920 N.3   151  ASP151     -0.1239
    156  CA       -18.7220    7.8650   12.1520 C.3   151  ASP151      0.1674
    157  C        -18.7310    9.2230   11.4630 C.2   151  ASP151      0.2266
    158  O        -19.3690   10.1660   11.9360 O.2   151  ASP151     -0.2867
    159  CB       -19.8880    7.0180   11.6330 C.3   151  ASP151      0.1410
    160  CG       -21.2390    7.6360   11.9430 C.2   151  ASP151      0.3668
    161  OD1      -21.5850    7.7460   13.1400 O.co2 151  ASP151     -0.2456
    162  OD2      -21.9550    8.0080   10.9900 O.co2 151  ASP151     -0.2456
    163  N        -22.3370   11.9450    4.0060 N.3   156  ARG156     -0.1245
    164  CA       -21.4560   13.1030    4.0950 C.3   156  ARG156      0.1563
    165  C        -20.2200   12.9270    3.2130 C.2   156  ARG156      0.2260
    166  O        -19.7900   13.8660    2.5430 O.2   156  ARG156     -0.2867
    167  CB       -21.0650   13.3520    5.5530 C.3   156  ARG156      0.0307
    168  CG       -20.5360   14.7440    5.8470 C.3   156  ARG156      0.0489
    169  CD       -21.2130   15.3080    7.0850 C.3   156  ARG156      0.2205
    170  NE       -21.6320   14.2450    7.9920 N.pl3 156  ARG156     -0.0865
    171  CZ       -22.6440   14.3440    8.8480 C.cat 156  ARG156      0.5346
    172  NH1      -23.3570   15.4620    8.9190 N.pl3 156  ARG156      0.1354
    173  NH2      -22.9500   13.3190    9.6280 N.pl3 156  ARG156      0.1354
@<TRIPOS>BOND
     1   166   165    2
     2   165   164    1
     3    38    36   ar
     4    38    40   ar
     5   163   164    1
     6   164   167    1
     7    36    35   ar
     8    41    40    1
     9    40    39   ar
    10    35    34    1
    11    35    37   ar
    12   167   168    1
    13   168   169    1
    14    34    31    1
    15    39    37   ar
    16    33    32    2
    17    27    26    2
    18    31    32    1
    19    31    30    1
    20    32    42   am
    21   169   170    1
    22    26    30   am
    23    26    25    1
    24   170   171    2
    25    42    43    1
    26    28    25    1
    27    28    29    1
    28    43    44    1
    29    25    24    1
    30   171   172    1
    31   171   173    1
    32    62    61    2
    33    61    60    1
    34    24    22   am
    35    44    45    2
    36    23    22    2
    37    22    21    1
    38   162   160   ar
    39    63    60    1
    40    63    64    1
    41    60    59    1
    42    19    17    1
    43   157   158    2
    44   157   156    1
    45   159   160    1
    46   159   156    1
    47    21    20    1
    48   160   161   ar
    49   156   155    1
    50   130   129    1
    51    20    15   am
    52    65    64    1
    53    65    66    1
    54    81    80    1
    55    81    82    1
    56    17    18    1
    57    17    14    1
    58    15    16    2
    59    15    14    1
    60    80    79    1
    61   129   128    1
    62    14    13    1
    63   143   141   am
    64    46    47    1
    65    66    67    1
    66   128   127    1
    67   141   142    2
    68   141   140    1
    69    47    50    1
    70    47    48    1
    71    75    76    1
    72    79    76    1
    73   127   126    1
    74    13    11   am
    75    12    11    2
    76    50    51    1
    77    76    77    1
    78   140   137    1
    79   126   123    1
    80    71    70    2
    81    55    54    2
    82    48    49    2
    83   122   123    1
    84    11    10    1
    85    54    53    1
    86   123   124    1
    87    70    69    1
    88   137   136    1
    89   137   138    1
    90    58    56    1
    91    77    78    2
    92    77    83   am
    93   139   138    2
    94    72    73    1
    95    72    69    1
    96    72    74    1
    97    10     9    1
    98   136   133   am
    99    53    56    1
   100    53    52    1
   101   135   132    1
   102    68    69    1
   103    56    57    1
   104   125   124    2
   105    83    84    1
   106   134   133    2
   107   133   132    1
   108     9     3   am
   109   152   154   ar
   110   152   150   ar
   111   154   153   ar
   112   132   131    1
   113     1     2    1
   114    84    87    1
   115    84    85    1
   116   150   149   ar
   117    86    85    2
   118     3     2    1
   119     3     4    2
   120    87    88    1
   121   153   151   ar
   122    85    92   am
   123     2     5    1
   124     5     7    1
   125     5     6    1
   126    91    89   ar
   127     8     6    1
   128   149   151   ar
   129   149   148    1
   130    92    93    1
   131    88    89    1
   132    89    90   ar
   133   118   119    1
   134   118   115    1
   135    93    96    1
   136    93    94    1
   137   144   145    1
   138   121   119   ar
   139   148   145    1
   140   119   120   ar
   141   109   108    1
   142    96    97    1
   143   145   146    1
   144    94   104   am
   145    94    95    2
   146    98    97   ar
   147    98   100   ar
   148   104   105    1
   149   115   114    1
   150   115   116    1
   151   108   105    1
   152    97    99   ar
   153   114   112   am
   154   100   102   ar
   155   116   117    2
   156   105   106    1
   157   146   147    2
   158   112   113    2
   159   112   111    1
   160   107   106    2
   161    99   101   ar
   162   111   110    1
   163   102   101   ar
   164   102   103    1
