@<TRIPOS>MOLECULE
tmp/2w5bA00.pdb
 190 182 0 0 0
SMALL
GASTEIGER

@<TRIPOS>ATOM
      1  N         33.9700   10.5150  -18.5900 N.3    12  ILE12      -0.1231
      2  CA        33.0390   11.2650  -19.4170 C.3    12  ILE12       0.1692
      3  C         32.9140   12.6670  -18.8460 C.2    12  ILE12       0.2593
      4  O         32.9190   13.6520  -19.5790 O.2    12  ILE12      -0.2718
      5  CB        31.6520   10.6000  -19.5060 C.3    12  ILE12       0.0266
      6  CG1       31.7740    9.1920  -20.0710 C.3    12  ILE12       0.0019
      7  CG2       30.7310   11.4000  -20.4040 C.3    12  ILE12       0.0020
      8  CD1       30.5320    8.3690  -19.8850 C.3    12  ILE12       0.0001
      9  N         32.8280   12.7580  -17.5290 N.am   13  GLY13      -0.1942
     10  CA        32.6660   14.0460  -16.8980 C.3    13  GLY13       0.2014
     11  C         32.8260   13.9590  -15.4040 C.2    13  GLY13       0.2640
     12  O         32.6250   12.9100  -14.7960 O.2    13  GLY13      -0.2714
     13  N         33.2140   15.0750  -14.8140 N.am   14  THR14      -0.1936
     14  CA        33.2690   15.1880  -13.3770 C.3    14  THR14       0.2028
     15  C         32.0000   15.9110  -12.9940 C.2    14  THR14       0.2643
     16  O         31.7630   17.0290  -13.4300 O.2    14  THR14      -0.2714
     17  CB        34.4950   15.9930  -12.9430 C.3    14  THR14       0.1808
     18  OG1       35.6490   15.4770  -13.6190 O.3    14  THR14      -0.2208
     19  CG2       34.7110   15.8980  -11.4250 C.3    14  THR14       0.0379
     20  N         31.1540   15.2430  -12.2260 N.am   15  GLY15      -0.1939
     21  CA        29.9430   15.8570  -11.7250 C.3    15  GLY15       0.2014
     22  C         30.2160   16.6060  -10.4410 C.2    15  GLY15       0.2640
     23  O         31.3700   16.8090  -10.0640 O.2    15  GLY15      -0.2714
     24  N         29.1550   17.0170   -9.7580 N.am   16  SER16      -0.1935
     25  CA        29.3110   17.7660   -8.5220 C.3    16  SER16       0.2055
     26  C         29.6990   16.8190   -7.3980 C.2    16  SER16       0.2643
     27  O         30.2630   17.2300   -6.3860 O.2    16  SER16      -0.2714
     28  CB        28.0200   18.5120   -8.1740 C.3    16  SER16       0.2130
     29  OG        27.5960   19.3550   -9.2380 O.3    16  SER16      -0.2179
     30  N         29.4040   15.5400   -7.5990 N.am   17  TYR17      -0.1959
     31  CA        29.5870   14.5310   -6.5610 C.3    17  TYR17       0.1771
     32  C         30.5930   13.4450   -6.9310 C.2    17  TYR17       0.2620
     33  O         30.6940   12.4300   -6.2560 O.2    17  TYR17      -0.2715
     34  CB        28.2390   13.9170   -6.1870 C.3    17  TYR17       0.0574
     35  CG        27.2560   14.9560   -5.7180 C.ar   17  TYR17      -0.0198
     36  CD1       27.2150   15.3480   -4.3880 C.ar   17  TYR17      -0.0009
     37  CD2       26.3850   15.5710   -6.6120 C.ar   17  TYR17      -0.0009
     38  CE1       26.3230   16.3070   -3.9550 C.ar   17  TYR17       0.0417
     39  CE2       25.4920   16.5360   -6.1900 C.ar   17  TYR17       0.0417
     40  CZ        25.4670   16.9010   -4.8600 C.ar   17  TYR17       0.1957
     41  OH        24.5790   17.8580   -4.4320 O.3    17  TYR17      -0.2866
     42  N         31.3420   13.6690   -8.0010 N.am   18  GLY18      -0.1940
     43  CA        32.3610   12.7280   -8.4150 C.3    18  GLY18       0.2014
     44  C         32.4360   12.5680   -9.9160 C.2    18  GLY18       0.2639
     45  O         31.8540   13.3440  -10.6670 O.2    18  GLY18      -0.2714
     46  N         33.1630   11.5510  -10.3550 N.am   19  ARG19      -0.1963
     47  CA        33.3200   11.3080  -11.7760 C.3    19  ARG19       0.1729
     48  C         32.2680   10.3500  -12.3280 C.2    19  ARG19       0.2616
     49  O         31.8240    9.4050  -11.6810 O.2    19  ARG19      -0.2715
     50  CB        34.7250   10.7780  -12.0970 C.3    19  ARG19       0.0348
     51  CG        35.8260   11.8300  -12.0790 C.3    19  ARG19       0.0492
     52  CD        37.1820   11.2300  -12.4530 C.3    19  ARG19       0.2205
     53  NE        37.5050   10.0460  -11.6610 N.pl3  19  ARG19      -0.0865
     54  CZ        38.6710    9.4040  -11.7150 C.cat  19  ARG19       0.5346
     55  NH1       38.8720    8.3300  -10.9590 N.pl3  19  ARG19       0.1354
     56  NH2       39.6380    9.8330  -12.5160 N.pl3  19  ARG19       0.1354
     57  N         31.8730   10.6240  -13.5540 N.am   20  CYS20      -0.1968
     58  CA        31.1820    9.6390  -14.3560 C.3    20  CYS20       0.1712
     59  C         32.1600    9.1130  -15.3860 C.2    20  CYS20       0.2296
     60  O         32.7620    9.8800  -16.1410 O.2    20  CYS20      -0.2864
     61  CB        29.9800   10.2470  -15.0730 C.3    20  CYS20       0.0983
     62  SG        29.0970    9.0920  -16.1100 S.3    20  CYS20      -0.0798
     63  N         28.4460    2.9120  -17.9850 N.3    33  VAL33      -0.1245
     64  CA        29.1410    3.9360  -17.2180 C.3    33  VAL33       0.1561
     65  C         29.0910    3.5290  -15.7600 C.2    33  VAL33       0.2260
     66  O         28.3690    2.6220  -15.3970 O.2    33  VAL33      -0.2867
     67  CB        28.5390    5.3610  -17.4050 C.3    33  VAL33       0.0252
     68  CG1       28.4630    5.7190  -18.8850 C.3    33  VAL33       0.0019
     69  CG2       27.1580    5.4710  -16.7320 C.3    33  VAL33       0.0019
     70  N         29.2120    5.7210  -11.7540 N.3    35  LYS35      -0.1245
     71  CA        29.3080    6.9890  -11.0620 C.3    35  LYS35       0.1561
     72  C         30.0940    6.8160   -9.7780 C.2    35  LYS35       0.2260
     73  O         29.7200    6.0490   -8.8970 O.2    35  LYS35      -0.2867
     74  CB        27.9200    7.5990  -10.8410 C.3    35  LYS35       0.0271
     75  CG        27.5350    8.5560  -11.9540 C.3    35  LYS35       0.0035
     76  CD        26.0990    8.3750  -12.4070 C.3    35  LYS35       0.0206
     77  CE        25.6180    9.5560  -13.2330 C.3    35  LYS35       0.1093
     78  NZ        25.3300   10.7330  -12.3690 N.3    35  LYS35      -0.1314
     79  N         16.9850    5.7590  -17.4450 N.3    66  VAL66      -0.1245
     80  CA        18.3480    5.2240  -17.4490 C.3    66  VAL66       0.1561
     81  C         18.4520    4.0020  -16.5310 C.2    66  VAL66       0.2260
     82  O         18.1510    4.0800  -15.3370 O.2    66  VAL66      -0.2867
     83  CB        19.3990    6.2900  -17.0920 C.3    66  VAL66       0.0252
     84  CG1       20.7710    5.7490  -17.3520 C.3    66  VAL66       0.0019
     85  CG2       19.1800    7.5290  -17.9210 C.3    66  VAL66       0.0019
     86  N         25.7180    2.1960  -14.4400 N.3    84  MET84      -0.1230
     87  CA        24.5130    2.5670  -15.1710 C.3    84  MET84       0.1702
     88  C         24.6410    2.2950  -16.6670 C.2    84  MET84       0.2592
     89  O         25.7280    2.0710  -17.1860 O.2    84  MET84      -0.2718
     90  CB        24.1840    4.0560  -14.9630 C.3    84  MET84       0.0401
     91  CG        24.1490    4.5220  -13.5160 C.3    84  MET84       0.0596
     92  SD        22.7120    3.9160  -12.6540 S.3    84  MET84      -0.1393
     93  CE        21.4060    4.8440  -13.4590 C.3    84  MET84       0.0692
     94  N         23.5000    2.3430  -17.3430 N.am   85  GLU85      -0.1966
     95  CA        23.4090    2.2710  -18.7940 C.3    85  GLU85       0.1733
     96  C         24.1530    3.4350  -19.4680 C.2    85  GLU85       0.2616
     97  O         24.0700    4.5800  -19.0230 O.2    85  GLU85      -0.2715
     98  CB        21.9300    2.2790  -19.1820 C.3    85  GLU85       0.0429
     99  CG        21.6310    2.5630  -20.6390 C.3    85  GLU85       0.1163
    100  CD        20.1390    2.7350  -20.8860 C.2    85  GLU85       0.3649
    101  OE1       19.3580    2.7770  -19.9040 O.co2  85  GLU85      -0.2457
    102  OE2       19.7460    2.8370  -22.0650 O.co2  85  GLU85      -0.2457
    103  N         24.8930    3.1340  -20.5320 N.am   86  TYR86      -0.1960
    104  CA        25.6120    4.1680  -21.2570 C.3    86  TYR86       0.1771
    105  C         24.7120    4.7830  -22.2950 C.2    86  TYR86       0.2619
    106  O         24.1710    4.0970  -23.1620 O.2    86  TYR86      -0.2715
    107  CB        26.8900    3.6460  -21.9120 C.3    86  TYR86       0.0574
    108  CG        27.5130    4.6560  -22.8420 C.ar   86  TYR86      -0.0198
    109  CD1       28.0200    5.8510  -22.3550 C.ar   86  TYR86      -0.0009
    110  CD2       27.5840    4.4230  -24.2110 C.ar   86  TYR86      -0.0009
    111  CE1       28.5890    6.7780  -23.1970 C.ar   86  TYR86       0.0417
    112  CE2       28.1530    5.3480  -25.0590 C.ar   86  TYR86       0.0417
    113  CZ        28.6520    6.5190  -24.5450 C.ar   86  TYR86       0.1957
    114  OH        29.2140    7.4490  -25.3740 O.3    86  TYR86      -0.2866
    115  N         24.5540    6.0930  -22.1920 N.am   87  CYS87      -0.1968
    116  CA        23.7130    6.8210  -23.1200 C.3    87  CYS87       0.1712
    117  C         24.5590    7.6450  -24.0820 C.2    87  CYS87       0.2296
    118  O         25.0990    8.7210  -23.7650 O.2    87  CYS87      -0.2864
    119  CB        22.6570    7.6540  -22.3960 C.3    87  CYS87       0.0983
    120  SG        21.5370    6.6630  -21.4240 S.3    87  CYS87      -0.0798
    121  N         24.3060   11.4870  -25.2000 N.3    90  GLY90      -0.1210
    122  CA        24.5270   12.5100  -24.1970 C.3    90  GLY90       0.1956
    123  C         23.2420   13.0340  -23.5820 C.2    90  GLY90       0.2611
    124  O         22.1910   12.4060  -23.6920 O.2    90  GLY90      -0.2717
    125  N         23.3400   14.1980  -22.9410 N.am   91  ASP91      -0.1973
    126  CA        22.2270   14.8250  -22.2340 C.3    91  ASP91       0.1709
    127  C         21.6020   15.9510  -23.0610 C.2    91  ASP91       0.2293
    128  O         22.2050   16.4430  -24.0030 O.2    91  ASP91      -0.2864
    129  CB        22.7270   15.4040  -20.9130 C.3    91  ASP91       0.1436
    130  CG        23.7770   16.4900  -21.1170 C.2    91  ASP91       0.3671
    131  OD1       24.9190   16.1620  -21.5000 O.co2  91  ASP91      -0.2456
    132  OD2       23.4610   17.6740  -20.9000 O.co2  91  ASP91      -0.2456
    133  N         15.3780   18.8500  -15.3470 N.3   135  LYS135     -0.1245
    134  CA        16.3150   19.7080  -16.0760 C.3   135  LYS135      0.1561
    135  C         16.9800   18.9480  -17.2330 C.2   135  LYS135      0.2260
    136  O         17.1880   17.7410  -17.1460 O.2   135  LYS135     -0.2867
    137  CB        17.3740   20.2890  -15.1390 C.3   135  LYS135      0.0271
    138  CG        18.0730   19.2590  -14.2630 C.3   135  LYS135      0.0035
    139  CD        19.3080   19.8650  -13.6230 C.3   135  LYS135      0.0206
    140  CE        19.8840   18.9510  -12.5590 C.3   135  LYS135      0.1093
    141  NZ        21.3330   19.2250  -12.3420 N.3   135  LYS135     -0.1314
    142  N         19.8710   18.5690  -18.2910 N.3   137  ALA137     -0.1231
    143  CA        21.0640   17.8170  -17.9250 C.3   137  ALA137      0.1694
    144  C         20.7250   16.4140  -17.4200 C.2   137  ALA137      0.2592
    145  O         21.5450   15.5070  -17.5110 O.2   137  ALA137     -0.2718
    146  CB        21.8950   18.5950  -16.8730 C.3   137  ALA137      0.0304
    147  N         19.5170   16.2460  -16.8870 N.am  138  ASN138     -0.1974
    148  CA        19.0760   14.9600  -16.3480 C.3   138  ASN138      0.1688
    149  C         18.3800   14.0770  -17.3820 C.2   138  ASN138      0.2292
    150  O         17.7910   13.0600  -17.0300 O.2   138  ASN138     -0.2864
    151  CB        18.1260   15.1640  -15.1630 C.3   138  ASN138      0.1181
    152  CG        18.8550   15.4200  -13.8510 C.2   138  ASN138      0.2629
    153  OD1       20.0810   15.3390  -13.7760 O.2   138  ASN138     -0.2716
    154  ND2       18.0920   15.7320  -12.8080 N.am  138  ASN138     -0.0877
    155  N         18.7220   11.9780  -21.0620 N.3   140  PHE140     -0.1241
    156  CA        19.7340   11.4260  -21.9610 C.3   140  PHE140      0.1605
    157  C         19.1680   10.7970  -23.2270 C.2   140  PHE140      0.2264
    158  O         17.9720   10.4980  -23.3310 O.2   140  PHE140     -0.2867
    159  CB        20.6310   10.4230  -21.2250 C.3   140  PHE140      0.0534
    160  CG        21.3420   11.0090  -20.0480 C.ar  140  PHE140     -0.0203
    161  CD1       20.6920   11.1230  -18.8310 C.ar  140  PHE140     -0.0042
    162  CD2       22.6570   11.4490  -20.1510 C.ar  140  PHE140     -0.0042
    163  CE1       21.3360   11.6700  -17.7430 C.ar  140  PHE140     -0.0003
    164  CE2       23.3100   11.9970  -19.0600 C.ar  140  PHE140     -0.0003
    165  CZ        22.6480   12.1070  -17.8590 C.ar  140  PHE140     -0.0000
    166  N         19.8740   11.5180  -11.0320 N.3   152  PHE152     -0.1241
    167  CA        20.6420   10.8100  -10.0200 C.3   152  PHE152      0.1605
    168  C         20.6510   11.5650   -8.6900 C.2   152  PHE152      0.2264
    169  O         21.7170   11.7910   -8.1040 O.2   152  PHE152     -0.2867
    170  CB        22.0740   10.6210  -10.5180 C.3   152  PHE152      0.0534
    171  CG        22.7620    9.4220   -9.9460 C.ar  152  PHE152     -0.0203
    172  CD1       22.3990    8.1500  -10.3510 C.ar  152  PHE152     -0.0042
    173  CD2       23.7830    9.5660   -9.0140 C.ar  152  PHE152     -0.0042
    174  CE1       23.0330    7.0360   -9.8360 C.ar  152  PHE152     -0.0003
    175  CE2       24.4240    8.4540   -8.4900 C.ar  152  PHE152     -0.0003
    176  CZ        24.0450    7.1870   -8.9010 C.ar  152  PHE152     -0.0000
    177  N         22.9940   11.1950   -5.1650 N.3   155  ALA155     -0.1245
    178  CA        24.3230   11.6760   -4.7950 C.3   155  ALA155      0.1562
    179  C         24.3830   12.9240   -3.9010 C.2   155  ALA155      0.2260
    180  O         25.4250   13.2120   -3.3240 O.2   155  ALA155     -0.2867
    181  CB        25.1780   11.8720   -6.0570 C.3   155  ALA155      0.0290
    182  N         24.6240   24.0690   -4.5510 N.3   166  LYS166     -0.1245
    183  CA        23.8290   23.7890   -5.7450 C.3   166  LYS166      0.1561
    184  C         22.3910   24.2700   -5.5760 C.2   166  LYS166      0.2260
    185  O         21.7820   24.8030   -6.5070 O.2   166  LYS166     -0.2867
    186  CB        23.8630   22.2970   -6.0870 C.3   166  LYS166      0.0271
    187  CG        23.1810   22.0240   -7.4500 C.3   166  LYS166      0.0035
    188  CD        23.2450   20.5360   -7.7680 C.3   166  LYS166      0.0206
    189  CE        22.1490   19.8540   -6.9390 C.3   166  LYS166      0.1093
    190  NZ        22.1820   18.3890   -7.2620 N.3   166  LYS166     -0.1314
@<TRIPOS>BOND
     1   114   113    1
     2   121   122    1
     3   112   113   ar
     4   112   110   ar
     5   113   111   ar
     6   110   108   ar
     7   122   123    1
     8   117   118    2
     9   117   116    1
    10   128   127    2
    11   124   123    2
    12   123   125   am
    13   158   157    2
    14   157   156    1
    15   111   109   ar
    16   106   105    2
    17   116   119    1
    18   116   115    1
    19   127   126    1
    20   125   126    1
    21   108   109   ar
    22   108   107    1
    23   119   120    1
    24   105   115   am
    25   105   104    1
    26   126   129    1
    27   102   100   ar
    28   156   159    1
    29   156   155    1
    30   107   104    1
    31   131   130   ar
    32   104   103    1
    33   159   160    1
    34   130   129    1
    35   130   132   ar
    36   100    99    1
    37   100   101   ar
    38    99    98    1
    39   103    96   am
    40     7     5    1
    41   162   160   ar
    42   162   164   ar
    43     6     8    1
    44     6     5    1
    45   160   161   ar
    46     4     3    2
    47     5     2    1
    48    96    97    2
    49    96    95    1
    50     2     3    1
    51     2     1    1
    52    98    95    1
    53   164   165   ar
    54    68    67    1
    55     3     9   am
    56   161   163   ar
    57    95    94    1
    58   142   143    1
    59    63    64    1
    60   143   144    1
    61   143   146    1
    62    85    83    1
    63   165   163   ar
    64     9    10    1
    65   145   144    2
    66    80    79    1
    67    80    83    1
    68    80    81    1
    69   144   147   am
    70    67    64    1
    71    67    69    1
    72   149   150    2
    73   149   148    1
    74    84    83    1
    75    94    88   am
    76   135   136    2
    77   135   134    1
    78    64    65    1
    79    89    88    2
    80    10    11    1
    81   147   148    1
    82    88    87    1
    83    81    82    2
    84   148   151    1
    85    60    59    2
    86    62    61    1
    87   134   133    1
    88   134   137    1
    89    65    66    2
    90    11    13   am
    91    11    12    2
    92    59    58    1
    93    87    90    1
    94    87    86    1
    95   151   152    1
    96   137   138    1
    97    61    58    1
    98    90    91    1
    99    13    14    1
   100    58    57    1
   101   138   139    1
   102   152   153    2
   103   152   154   am
   104   139   140    1
   105    18    17    1
   106    57    48   am
   107    91    92    1
   108    93    92    1
   109    16    15    2
   110    14    15    1
   111    14    17    1
   112    77    76    1
   113    77    78    1
   114    15    20   am
   115    17    19    1
   116   140   141    1
   117    56    54    1
   118    52    51    1
   119    52    53    1
   120    76    75    1
   121    48    47    1
   122    48    49    2
   123    20    21    1
   124    50    51    1
   125    50    47    1
   126    75    74    1
   127    47    46    1
   128    70    71    1
   129    21    22    1
   130    54    53    2
   131    54    55    1
   132    71    74    1
   133    71    72    1
   134   166   167    1
   135    45    44    2
   136   170   167    1
   137   170   171    1
   138    22    23    2
   139    22    24   am
   140    46    44   am
   141   172   171   ar
   142   172   174   ar
   143   167   168    1
   144   171   173   ar
   145    44    43    1
   146   174   176   ar
   147    72    73    2
   148    24    25    1
   149    29    28    1
   150   173   175   ar
   151   176   175   ar
   152   168   169    2
   153    25    28    1
   154    25    26    1
   155    43    42    1
   156    42    32   am
   157   188   187    1
   158   188   189    1
   159    30    26   am
   160    30    31    1
   161   187   186    1
   162    26    27    2
   163   190   189    1
   164    32    31    1
   165    32    33    2
   166    37    39   ar
   167    37    35   ar
   168    31    34    1
   169   185   184    2
   170    39    40   ar
   171    34    35    1
   172   186   183    1
   173   181   178    1
   174   183   184    1
   175   183   182    1
   176    35    36   ar
   177   177   178    1
   178    40    41    1
   179    40    38   ar
   180   178   179    1
   181    36    38   ar
   182   179   180    2
