@<TRIPOS>MOLECULE
tmp/2w5fB00.pdb
 151 147 0 0 0
SMALL
GASTEIGER

@<TRIPOS>ATOM
      1  N        119.7170   24.5360   37.0300 N.3   195  GLU195     -0.1231
      2  CA       120.8670   25.4340   36.8780 C.3   195  GLU195      0.1699
      3  C        120.8490   26.5810   37.8990 C.2   195  GLU195      0.2592
      4  O        121.9110   26.9430   38.4590 O.2   195  GLU195     -0.2718
      5  CB       120.9800   25.9720   35.4500 C.3   195  GLU195      0.0402
      6  CG       122.3100   26.6640   35.2040 C.3   195  GLU195      0.1161
      7  CD       122.6320   26.8120   33.7630 C.2   195  GLU195      0.3649
      8  OE1      121.7590   26.4830   32.9050 O.co2 195  GLU195     -0.2457
      9  OE2      123.7670   27.2620   33.4690 O.co2 195  GLU195     -0.2457
     10  N        119.6550   27.1300   38.1470 N.am  196  ASN196     -0.1974
     11  CA       119.4790   28.2820   39.0410 C.3   196  ASN196      0.1688
     12  C        118.2460   28.2330   39.9300 C.2   196  ASN196      0.2292
     13  O        118.1780   28.9550   40.9280 O.2   196  ASN196     -0.2864
     14  CB       119.4480   29.5760   38.2200 C.3   196  ASN196      0.1181
     15  CG       120.7670   29.8570   37.5730 C.2   196  ASN196      0.2629
     16  OD1      121.7730   30.0640   38.2700 O.2   196  ASN196     -0.2716
     17  ND2      120.8030   29.8360   36.2290 N.am  196  ASN196     -0.0877
     18  N        118.3890   27.6280   43.8100 N.3   199  LYS199     -0.1245
     19  CA       119.3830   28.4030   44.5430 C.3   199  LYS199      0.1561
     20  C        118.6350   29.2580   45.5680 C.2   199  LYS199      0.2260
     21  O        117.4330   29.4630   45.4140 O.2   199  LYS199     -0.2867
     22  CB       120.2130   29.2510   43.5670 C.3   199  LYS199      0.0271
     23  CG       121.2760   28.4050   42.8300 C.3   199  LYS199      0.0035
     24  CD       121.9820   29.1610   41.6950 C.3   199  LYS199      0.0206
     25  CE       123.0390   28.2510   41.0750 C.3   199  LYS199      0.1093
     26  NZ       123.7410   28.8120   39.8440 N.3   199  LYS199     -0.1314
     27  N        109.8490   28.6020   40.7900 N.3   220  ARG220     -0.1245
     28  CA       110.8110   28.6930   39.6890 C.3   220  ARG220      0.1563
     29  C        111.2320   27.3050   39.2180 C.2   220  ARG220      0.2260
     30  O        111.5190   27.1110   38.0410 O.2   220  ARG220     -0.2867
     31  CB       112.0510   29.4980   40.0950 C.3   220  ARG220      0.0307
     32  CG       111.7630   30.9400   40.4910 C.3   220  ARG220      0.0489
     33  CD       111.9830   31.8720   39.3420 C.3   220  ARG220      0.2205
     34  NE       113.3200   31.6730   38.7610 N.pl3 220  ARG220     -0.0865
     35  CZ       114.4370   32.2710   39.1840 C.cat 220  ARG220      0.5346
     36  NH1      114.3950   33.1560   40.1810 N.pl3 220  ARG220      0.1354
     37  NH2      115.6010   31.9860   38.5970 N.pl3 220  ARG220      0.1354
     38  N        120.3140   21.7590   44.3560 N.3   238  HIS238     -0.1241
     39  CA       121.4290   22.6850   44.2690 C.3   238  HIS238      0.1621
     40  C        120.8580   24.0840   44.5070 C.2   238  HIS238      0.2264
     41  O        120.1650   24.5920   43.6320 O.2   238  HIS238     -0.2867
     42  CB       122.0430   22.5840   42.8620 C.3   238  HIS238      0.0745
     43  CG       123.2380   23.4570   42.6460 C.ar  238  HIS238      0.0817
     44  ND1      124.4840   23.1520   43.1490 N.ar  238  HIS238     -0.2268
     45  CD2      123.3820   24.6220   41.9720 C.ar  238  HIS238      0.1154
     46  CE1      125.3380   24.0980   42.8080 C.ar  238  HIS238      0.1986
     47  NE2      124.6970   24.9990   42.0860 N.ar  238  HIS238     -0.2212
     48  N        125.4510   28.9530   49.8910 N.3   242  TRP242     -0.1241
     49  CA       126.4270   29.4250   48.9180 C.3   242  TRP242      0.1605
     50  C        126.6520   30.9120   49.1680 C.2   242  TRP242      0.2264
     51  O        125.7390   31.6020   49.5960 O.2   242  TRP242     -0.2867
     52  CB       125.8790   29.1920   47.5130 C.3   242  TRP242      0.0550
     53  CG       126.8940   29.3600   46.3620 C.ar  242  TRP242      0.0003
     54  CD1      128.2580   29.2380   46.4310 C.ar  242  TRP242      0.0946
     55  CD2      126.5860   29.6390   44.9820 C.ar  242  TRP242      0.0152
     56  NE1      128.8220   29.4520   45.1790 N.ar  242  TRP242     -0.2442
     57  CE2      127.8100   29.6740   44.2750 C.ar  242  TRP242      0.0810
     58  CE3      125.3800   29.8410   44.2690 C.ar  242  TRP242      0.0012
     59  CZ2      127.8690   29.9300   42.8860 C.ar  242  TRP242      0.0191
     60  CZ3      125.4440   30.1130   42.9090 C.ar  242  TRP242      0.0001
     61  CH2      126.6700   30.1400   42.2280 C.ar  242  TRP242      0.0015
     62  N        124.3710   34.1330   44.6690 N.3   245  GLN245     -0.1245
     63  CA       122.9320   33.9490   44.3910 C.3   245  GLN245      0.1566
     64  C        122.0840   33.6820   45.6380 C.2   245  GLN245      0.2260
     65  O        121.2550   32.7720   45.6750 O.2   245  GLN245     -0.2867
     66  CB       122.7360   32.8930   43.2960 C.3   245  GLN245      0.0367
     67  CG       123.2190   33.4320   41.9560 C.3   245  GLN245      0.0905
     68  CD       123.1150   32.4280   40.8410 C.2   245  GLN245      0.2608
     69  OE1      124.0740   31.7180   40.5430 O.2   245  GLN245     -0.2717
     70  NE2      121.9430   32.3350   40.2330 N.am  245  GLN245     -0.0878
     71  N        128.0020   24.8580   49.1280 N.3   298  ASN298     -0.1225
     72  CA       128.6090   25.0700   47.8290 C.3   298  ASN298      0.1785
     73  C        129.7770   26.0480   47.9410 C.2   298  ASN298      0.2597
     74  O        129.6280   27.1570   48.4580 O.2   298  ASN298     -0.2718
     75  CB       127.5650   25.6540   46.8620 C.3   298  ASN298      0.1169
     76  CG       127.8870   25.3550   45.4120 C.2   298  ASN298      0.2627
     77  OD1      128.2720   24.2340   45.0800 O.2   298  ASN298     -0.2716
     78  ND2      127.7050   26.3400   44.5390 N.am  298  ASN298     -0.0877
     79  N        130.9390   25.6100   47.4730 N.am  299  ALA299     -0.1979
     80  CA       132.0770   26.4950   47.1600 C.3   299  ALA299      0.1597
     81  C        132.4760   27.4390   48.2970 C.2   299  ALA299      0.2287
     82  O        132.6400   28.6280   48.0940 O.2   299  ALA299     -0.2864
     83  CB       131.8130   27.2790   45.8730 C.3   299  ALA299      0.0319
     84  N        134.6980   23.7480   43.2220 N.3   358  TYR358     -0.1241
     85  CA       135.4570   23.8250   41.9580 C.3   358  TYR358      0.1605
     86  C        136.9540   24.0750   42.2830 C.2   358  TYR358      0.2264
     87  O        137.3060   24.3390   43.4500 O.2   358  TYR358     -0.2867
     88  CB       134.8860   24.9450   41.0280 C.3   358  TYR358      0.0534
     89  CG       135.1270   26.3250   41.6030 C.ar  358  TYR358     -0.0201
     90  CD1      136.2470   27.0740   41.2350 C.ar  358  TYR358     -0.0009
     91  CD2      134.2510   26.8670   42.5360 C.ar  358  TYR358     -0.0009
     92  CE1      136.4910   28.3310   41.7820 C.ar  358  TYR358      0.0417
     93  CE2      134.4920   28.1220   43.1040 C.ar  358  TYR358      0.0417
     94  CZ       135.6130   28.8460   42.7270 C.ar  358  TYR358      0.1957
     95  OH       135.8440   30.0710   43.3100 O.3   358  TYR358     -0.2866
     96  N        133.0340   19.6860   41.0890 N.3   388  GLN388     -0.1245
     97  CA       132.3420   20.4680   40.0380 C.3   388  GLN388      0.1566
     98  C        132.9110   20.2330   38.6430 C.2   388  GLN388      0.2260
     99  O        132.1650   20.1830   37.6800 O.2   388  GLN388     -0.2867
    100  CB       132.2970   21.9650   40.3620 C.3   388  GLN388      0.0367
    101  CG       131.3500   22.3300   41.5290 C.3   388  GLN388      0.0905
    102  CD       131.2810   23.8180   41.7560 C.2   388  GLN388      0.2608
    103  OE1      131.7720   24.5980   40.9370 O.2   388  GLN388     -0.2717
    104  NE2      130.7010   24.2310   42.8800 N.am  388  GLN388     -0.0878
    105  N        134.8340   21.9760   36.4860 N.3   390  HIS390     -0.1241
    106  CA       134.8660   23.0520   35.4870 C.3   390  HIS390      0.1621
    107  C        136.2950   23.1620   34.9280 C.2   390  HIS390      0.2264
    108  O        137.0910   23.9930   35.3560 O.2   390  HIS390     -0.2867
    109  CB       134.3320   24.3800   36.0850 C.3   390  HIS390      0.0745
    110  CG       132.8590   24.3450   36.3980 C.ar  390  HIS390      0.0817
    111  ND1      131.9030   24.0810   35.4380 N.ar  390  HIS390     -0.2268
    112  CD2      132.1840   24.5050   37.5630 C.ar  390  HIS390      0.1154
    113  CE1      130.7020   24.1060   35.9910 C.ar  390  HIS390      0.1986
    114  NE2      130.8460   24.3640   37.2770 N.ar  390  HIS390     -0.2212
    115  N        129.2710   19.0560   37.8930 N.3   422  GLU422     -0.1245
    116  CA       129.0650   20.1740   36.9480 C.3   422  GLU422      0.1567
    117  C        130.0780   20.1540   35.8190 C.2   422  GLU422      0.2260
    118  O        130.5600   21.2000   35.3850 O.2   422  GLU422     -0.2867
    119  CB       129.1410   21.5180   37.6920 C.3   422  GLU422      0.0388
    120  CG       128.3370   21.5860   39.0160 C.3   422  GLU422      0.1160
    121  CD       128.3570   22.9630   39.6410 C.2   422  GLU422      0.3649
    122  OE1      128.8580   23.9180   38.9790 O.co2 422  GLU422     -0.2457
    123  OE2      127.8800   23.0940   40.7960 O.co2 422  GLU422     -0.2457
    124  N        127.3110   20.0920   32.9960 N.3   466  TRP466     -0.1241
    125  CA       126.6400   21.3540   33.3360 C.3   466  TRP466      0.1605
    126  C        125.9580   22.0300   32.1290 C.2   466  TRP466      0.2264
    127  O        126.3450   23.1220   31.6940 O.2   466  TRP466     -0.2867
    128  CB       127.6170   22.2850   34.0740 C.3   466  TRP466      0.0550
    129  CG       126.9280   23.3230   34.9340 C.ar  466  TRP466      0.0003
    130  CD1      126.9520   24.6920   34.7630 C.ar  466  TRP466      0.0946
    131  CD2      126.1060   23.0780   36.0850 C.ar  466  TRP466      0.0152
    132  NE1      126.2020   25.3040   35.7480 N.ar  466  TRP466     -0.2442
    133  CE2      125.6750   24.3350   36.5710 C.ar  466  TRP466      0.0810
    134  CE3      125.6990   21.9150   36.7610 C.ar  466  TRP466      0.0012
    135  CZ2      124.8520   24.4640   37.7190 C.ar  466  TRP466      0.0191
    136  CZ3      124.8850   22.0390   37.8910 C.ar  466  TRP466      0.0001
    137  CH2      124.4610   23.3010   38.3490 C.ar  466  TRP466      0.0015
    138  N        126.8310   28.1020   30.5260 N.3   474  TRP474     -0.1241
    139  CA       127.1610   29.3210   31.2710 C.3   474  TRP474      0.1605
    140  C        128.5270   29.8800   30.8680 C.2   474  TRP474      0.2264
    141  O        128.8420   31.0340   31.1660 O.2   474  TRP474     -0.2867
    142  CB       127.1190   29.0360   32.7680 C.3   474  TRP474      0.0550
    143  CG       128.3170   28.2600   33.3210 C.ar  474  TRP474      0.0003
    144  CD1      128.7710   27.0330   32.9250 C.ar  474  TRP474      0.0946
    145  CD2      129.1580   28.6680   34.4020 C.ar  474  TRP474      0.0152
    146  NE1      129.8530   26.6580   33.6790 N.ar  474  TRP474     -0.2442
    147  CE2      130.1100   27.6410   34.6010 C.ar  474  TRP474      0.0810
    148  CE3      129.2140   29.8220   35.2090 C.ar  474  TRP474      0.0012
    149  CZ2      131.1270   27.7290   35.5790 C.ar  474  TRP474      0.0191
    150  CZ3      130.2100   29.9150   36.1830 C.ar  474  TRP474      0.0001
    151  CH2      131.1560   28.8580   36.3710 C.ar  474  TRP474      0.0015
@<TRIPOS>BOND
     1   138   139    1
     2   140   141    2
     3   140   139    1
     4   139   142    1
     5   127   126    2
     6   126   125    1
     7   142   143    1
     8     8     7   ar
     9   144   143   ar
    10   144   146   ar
    11   124   125    1
    12   143   145   ar
    13   125   128    1
    14     9     7   ar
    15   146   147   ar
    16     7     6    1
    17   128   129    1
    18   145   147   ar
    19   145   148   ar
    20   147   149   ar
    21   130   129   ar
    22   130   132   ar
    23   107   108    2
    24   107   106    1
    25   129   131   ar
    26     6     5    1
    27   148   150   ar
    28   118   117    2
    29   111   113   ar
    30   111   110   ar
    31     5     2    1
    32   106   109    1
    33   106   105    1
    34   149   151   ar
    35   132   133   ar
    36   117   116    1
    37   113   114   ar
    38   109   110    1
    39   131   133   ar
    40   131   134   ar
    41   150   151   ar
    42    17    15   am
    43   110   112   ar
    44   133   135   ar
    45   134   136   ar
    46     2     1    1
    47     2     3    1
    48   116   119    1
    49   116   115    1
    50   114   112   ar
    51    15    14    1
    52    15    16    2
    53    99    98    2
    54   119   120    1
    55   135   137   ar
    56   136   137   ar
    57     3    10   am
    58     3     4    2
    59    30    29    2
    60    10    11    1
    61    14    11    1
    62    37    35    1
    63    98    97    1
    64    34    35    2
    65    34    33    1
    66   122   121   ar
    67   120   121    1
    68    11    12    1
    69    35    36    1
    70    29    28    1
    71    33    32    1
    72   121   123   ar
    73    28    31    1
    74    28    27    1
    75    26    25    1
    76    12    13    2
    77    97   100    1
    78    97    96    1
    79    31    32    1
    80    70    68   am
    81   100   101    1
    82    69    68    2
    83    68    67    1
    84   103   102    2
    85    88    89    1
    86    88    85    1
    87    25    24    1
    88    90    89   ar
    89    90    92   ar
    90   101   102    1
    91    89    91   ar
    92    24    23    1
    93   102   104   am
    94    92    94   ar
    95    67    66    1
    96    85    86    1
    97    85    84    1
    98    45    47   ar
    99    45    43   ar
   100    47    46   ar
   101    61    59   ar
   102    61    60   ar
   103    86    87    2
   104    91    93   ar
   105    43    42    1
   106    43    44   ar
   107    94    93   ar
   108    94    95    1
   109    46    44   ar
   110    23    22    1
   111    42    39    1
   112    59    57   ar
   113    60    58   ar
   114    66    63    1
   115    22    19    1
   116    41    40    2
   117    18    19    1
   118    58    55   ar
   119    39    38    1
   120    39    40    1
   121    57    55   ar
   122    57    56   ar
   123    63    62    1
   124    63    64    1
   125    78    76   am
   126    19    20    1
   127    55    53   ar
   128    77    76    2
   129    56    54   ar
   130    76    75    1
   131    21    20    2
   132    64    65    2
   133    83    80    1
   134    53    54   ar
   135    53    52    1
   136    75    72    1
   137    80    79    1
   138    80    81    1
   139    79    73   am
   140    52    49    1
   141    72    73    1
   142    72    71    1
   143    73    74    2
   144    82    81    2
   145    49    50    1
   146    49    48    1
   147    50    51    2
