@<TRIPOS>MOLECULE
tmp/2w5iB00.pdb
 149 141 0 0 0
SMALL
GASTEIGER

@<TRIPOS>ATOM
      1  N         18.4640   10.9870    1.8680 N.3     4  ALA4       -0.1245
      2  CA        17.3110   10.1210    1.5880 C.3     4  ALA4        0.1562
      3  C         17.6680    8.6260    1.6010 C.2     4  ALA4        0.2260
      4  O         16.8820    7.8010    2.0830 O.2     4  ALA4       -0.2867
      5  CB        16.6480   10.5240    0.2420 C.3     4  ALA4        0.0290
      6  N         17.9150    7.7240    5.3700 N.3     7  LYS7       -0.1231
      7  CA        16.5990    7.7380    5.9640 C.3     7  LYS7        0.1693
      8  C         15.8020    6.4610    5.6020 C.2     7  LYS7        0.2592
      9  O         15.0830    5.9050    6.4470 O.2     7  LYS7       -0.2718
     10  CB        15.8780    9.0330    5.5560 C.3     7  LYS7        0.0285
     11  CG        14.3990    9.0860    5.8280 C.3     7  LYS7        0.0035
     12  CD        13.8380   10.4600    5.4340 C.3     7  LYS7        0.0206
     13  CE        12.3580   10.4620    5.8010 C.3     7  LYS7        0.1093
     14  NZ        11.8050   11.7730    6.3230 N.3     7  LYS7       -0.1314
     15  N         15.9350    6.0100    4.3510 N.am    8  PHE8       -0.1976
     16  CA        15.3260    4.7700    3.9180 C.3     8  PHE8        0.1639
     17  C         15.8340    3.6250    4.7370 C.2     8  PHE8        0.2290
     18  O         15.0590    2.7020    5.0540 O.2     8  PHE8       -0.2864
     19  CB        15.5930    4.4700    2.4520 C.3     8  PHE8        0.0560
     20  CG        15.0120    3.1320    1.9890 C.ar    8  PHE8       -0.0200
     21  CD1       13.7070    3.0490    1.4870 C.ar    8  PHE8       -0.0042
     22  CD2       15.7860    1.9520    2.0490 C.ar    8  PHE8       -0.0042
     23  CE1       13.1710    1.8260    1.0630 C.ar    8  PHE8       -0.0003
     24  CE2       15.2740    0.7350    1.6220 C.ar    8  PHE8       -0.0003
     25  CZ        13.9680    0.6610    1.1270 C.ar    8  PHE8       -0.0000
     26  N         14.3730    3.8690    8.3350 N.3    11  GLN11      -0.1231
     27  CA        12.9310    3.5750    8.4850 C.3    11  GLN11       0.1698
     28  C         12.4570    2.2380    7.9850 C.2    11  GLN11       0.2592
     29  O         11.3580    1.8140    8.3440 O.2    11  GLN11      -0.2718
     30  CB        12.0860    4.6070    7.7470 C.3    11  GLN11       0.0381
     31  CG        12.3970    6.0110    8.0480 C.3    11  GLN11       0.0905
     32  CD        11.3450    6.9000    7.4480 C.2    11  GLN11       0.2608
     33  OE1       10.4560    7.3850    8.1500 O.2    11  GLN11      -0.2717
     34  NE2       11.3850    7.0520    6.1350 N.am   11  GLN11      -0.0878
     35  N         13.2250    1.5920    7.1140 N.am   12  HIS12      -0.1976
     36  CA        12.7240    0.3750    6.4820 C.3    12  HIS12       0.1656
     37  C         13.6250   -0.8340    6.5480 C.2    12  HIS12       0.2291
     38  O         13.1670   -1.9260    6.2230 O.2    12  HIS12      -0.2864
     39  CB        12.3440    0.6520    5.0360 C.3    12  HIS12       0.0771
     40  CG        11.3530    1.7460    4.9100 C.ar   12  HIS12       0.0820
     41  ND1       10.0880    1.6420    5.4390 N.ar   12  HIS12      -0.2267
     42  CD2       11.4540    3.0010    4.4010 C.ar   12  HIS12       0.1154
     43  CE1        9.4290    2.7680    5.2010 C.ar   12  HIS12       0.1986
     44  NE2       10.2340    3.6070    4.5760 N.ar   12  HIS12      -0.2212
     45  N          4.0810    7.5760   13.7640 N.3    41  LYS41      -0.1245
     46  CA         3.9460    7.3070   12.3400 C.3    41  LYS41       0.1561
     47  C          2.8990    6.2100   12.2840 C.2    41  LYS41       0.2260
     48  O          3.0250    5.2400   13.0230 O.2    41  LYS41      -0.2867
     49  CB         5.2620    6.8420   11.7320 C.3    41  LYS41       0.0271
     50  CG         5.2430    6.7120   10.2020 C.3    41  LYS41       0.0035
     51  CD         6.5800    7.2080    9.5830 C.3    41  LYS41       0.0206
     52  CE         6.7050    6.9460    8.0520 C.3    41  LYS41       0.1093
     53  NZ         6.7960    5.4600    7.8170 N.3    41  LYS41      -0.1314
     54  N          1.7140    4.1560    9.6790 N.3    43  VAL43      -0.1231
     55  CA         2.0510    2.9470    8.9480 C.3    43  VAL43       0.1692
     56  C          3.5470    2.9210    8.6210 C.2    43  VAL43       0.2592
     57  O          4.1460    3.9310    8.2010 O.2    43  VAL43      -0.2718
     58  CB         1.2080    2.8730    7.6270 C.3    43  VAL43       0.0266
     59  CG1        1.4450    1.5670    6.8960 C.3    43  VAL43       0.0020
     60  CG2       -0.2490    2.9880    7.9450 C.3    43  VAL43       0.0020
     61  N          4.1700    1.7650    8.8010 N.am   44  ASN44      -0.1974
     62  CA         5.5440    1.5960    8.3360 C.3    44  ASN44       0.1688
     63  C          5.9060    0.1420    8.0630 C.2    44  ASN44       0.2292
     64  O          5.5510   -0.7120    8.8400 O.2    44  ASN44      -0.2864
     65  CB         6.5360    2.2170    9.3320 C.3    44  ASN44       0.1181
     66  CG         7.9390    2.4180    8.7280 C.2    44  ASN44       0.2629
     67  OD1        8.1270    3.2170    7.8260 O.2    44  ASN44      -0.2716
     68  ND2        8.9160    1.6980    9.2530 N.am   44  ASN44      -0.0877
     69  N          5.6660    4.8250   -9.9330 N.3    65  CYS65      -0.1235
     70  CA         5.3790    5.1350   -8.5210 C.3    65  CYS65       0.1677
     71  C          3.9260    5.6680   -8.3170 C.2    65  CYS65       0.2270
     72  O          3.2800    6.1270   -9.2770 O.2    65  CYS65      -0.2867
     73  CB         6.4150    6.1440   -7.9860 C.3    65  CYS65       0.0956
     74  SG         8.1140    5.6940   -8.4090 S.3    65  CYS65      -0.0801
     75  N          3.0720    8.4030   -6.9950 N.3    67  ASN67      -0.1240
     76  CA         3.0790    9.8220   -7.3850 C.3    67  ASN67       0.1653
     77  C          3.2270   10.0650   -8.8950 C.2    67  ASN67       0.2266
     78  O          3.2710   11.1840   -9.3480 O.2    67  ASN67      -0.2867
     79  CB         4.1590   10.6100   -6.5870 C.3    67  ASN67       0.1155
     80  CG         5.6230   10.3250   -7.0750 C.2    67  ASN67       0.2627
     81  OD1        5.8570    9.4690   -7.9480 O.2    67  ASN67      -0.2716
     82  ND2        6.5950   11.0440   -6.5020 N.am   67  ASN67      -0.0877
     83  N          5.7990    9.3000  -10.8930 N.3    69  GLN69      -0.1245
     84  CA         7.1730    9.1370  -11.3080 C.3    69  GLN69       0.1566
     85  C          7.4740    7.7060  -11.7260 C.2    69  GLN69       0.2260
     86  O          6.7810    6.7630  -11.3130 O.2    69  GLN69      -0.2867
     87  CB         8.1160    9.5890  -10.2110 C.3    69  GLN69       0.0367
     88  CG         8.4690   11.0540  -10.4130 C.3    69  GLN69       0.0905
     89  CD         8.7180   11.7810   -9.1310 C.2    69  GLN69       0.2608
     90  OE1        8.1530   12.8460   -8.9160 O.2    69  GLN69      -0.2717
     91  NE2        9.5520   11.2070   -8.2540 N.am   69  GLN69      -0.0878
     92  N         10.7040    6.1580  -11.5980 N.3    71  ASN71      -0.1240
     93  CA        11.9270    5.6020  -10.9990 C.3    71  ASN71       0.1653
     94  C         11.5990    4.5990   -9.8940 C.2    71  ASN71       0.2266
     95  O         12.2740    4.5630   -8.8730 O.2    71  ASN71      -0.2867
     96  CB        12.8380    6.7100  -10.4470 C.3    71  ASN71       0.1155
     97  CG        12.1860    7.4870   -9.2970 C.2    71  ASN71       0.2627
     98  OD1       10.9750    7.6740   -9.2840 O.2    71  ASN71      -0.2716
     99  ND2       12.9890    7.9050   -8.3060 N.am   71  ASN71      -0.0877
    100  N         11.4570    3.3860   -4.7050 N.3   109  ALA109     -0.1245
    101  CA        12.0330    4.3610   -5.6320 C.3   109  ALA109      0.1562
    102  C         13.5290    4.4080   -5.4210 C.2   109  ALA109      0.2260
    103  O         14.0260    4.4440   -4.2550 O.2   109  ALA109     -0.2867
    104  CB        11.4310    5.7910   -5.4200 C.3   109  ALA109      0.0290
    105  N         17.1000    6.5390   -6.5050 N.3   111  GLU111     -0.1245
    106  CA        17.6780    7.7860   -6.9940 C.3   111  GLU111      0.1567
    107  C         19.1510    7.8210   -6.5980 C.2   111  GLU111      0.2260
    108  O         19.5340    7.1970   -5.6040 O.2   111  GLU111     -0.2867
    109  CB        16.9820    8.9440   -6.2980 C.3   111  GLU111      0.0388
    110  CG        17.0070   10.2740   -7.0300 C.3   111  GLU111      0.1160
    111  CD        15.8770   11.2060   -6.5570 C.2   111  GLU111      0.3649
    112  OE1       15.5310   11.2150   -5.3530 O.co2 111  GLU111     -0.2457
    113  OE2       15.3030   11.9070   -7.3970 O.co2 111  GLU111     -0.2457
    114  N         15.3670    5.0700   -2.1580 N.3   118  VAL118     -0.1231
    115  CA        15.1290    6.2780   -1.3430 C.3   118  VAL118      0.1692
    116  C         13.6810    6.4110   -0.8040 C.2   118  VAL118      0.2592
    117  O         13.4340    7.1300    0.1490 O.2   118  VAL118     -0.2718
    118  CB        15.6240    7.6180   -2.0440 C.3   118  VAL118      0.0266
    119  CG1       17.1520    7.6220   -2.1920 C.3   118  VAL118      0.0020
    120  CG2       14.9510    7.8180   -3.3750 C.3   118  VAL118      0.0020
    121  N         12.7390    5.6750   -1.3700 N.am  119  HIS119     -0.1962
    122  CA        11.3700    5.7360   -0.9070 C.3   119  HIS119      0.1787
    123  C         10.7930    4.3400   -0.9650 C.2   119  HIS119      0.2620
    124  O         11.0840    3.5510   -1.8470 O.2   119  HIS119     -0.2715
    125  CB        10.5790    6.7730   -1.7350 C.3   119  HIS119      0.0785
    126  CG         9.0800    6.5650   -1.7730 C.ar  119  HIS119      0.0821
    127  ND1        8.2130    7.1660   -0.8780 N.ar  119  HIS119     -0.2267
    128  CD2        8.2960    5.9200   -2.6750 C.ar  119  HIS119      0.1154
    129  CE1        6.9720    6.8420   -1.1820 C.ar  119  HIS119      0.1986
    130  NE2        6.9930    6.0940   -2.2740 N.ar  119  HIS119     -0.2212
    131  N          9.9980    4.0180    0.0240 N.am  120  PHE120     -0.1960
    132  CA         9.3040    2.7560    0.0150 C.3   120  PHE120      0.1771
    133  C          7.9110    2.9930   -0.5630 C.2   120  PHE120      0.2619
    134  O          7.1280    3.7080    0.0190 O.2   120  PHE120     -0.2715
    135  CB         9.2000    2.2110    1.4370 C.3   120  PHE120      0.0574
    136  CG         8.5560    0.9200    1.4680 C.ar  120  PHE120     -0.0200
    137  CD1        9.3070   -0.2350    1.3110 C.ar  120  PHE120     -0.0042
    138  CD2        7.1830    0.8410    1.5070 C.ar  120  PHE120     -0.0042
    139  CE1        8.6930   -1.4380    1.2610 C.ar  120  PHE120     -0.0003
    140  CE2        6.5650   -0.3640    1.4730 C.ar  120  PHE120     -0.0003
    141  CZ         7.3150   -1.5090    1.3430 C.ar  120  PHE120     -0.0000
    142  N          7.6040    2.4420   -1.7200 N.am  121  ASP121     -0.1971
    143  CA         6.3150    2.7430   -2.3330 C.3   121  ASP121      0.1709
    144  C          5.1340    1.8520   -1.8680 C.2   121  ASP121      0.2293
    145  O          4.0630    2.3420   -1.5410 O.2   121  ASP121     -0.2864
    146  CB         6.4440    2.6990   -3.8390 C.3   121  ASP121      0.1436
    147  CG         5.5280    3.6560   -4.5160 C.2   121  ASP121      0.3671
    148  OD1        5.5370    4.8560   -4.1780 O.co2 121  ASP121     -0.2456
    149  OD2        4.8040    3.2130   -5.4160 O.co2 121  ASP121     -0.2456
@<TRIPOS>BOND
     1    85    86    2
     2    85    84    1
     3    92    93    1
     4    84    83    1
     5    84    87    1
     6    93    96    1
     7    93    94    1
     8    96    97    1
     9    88    87    1
    10    88    89    1
    11    69    70    1
    12    94    95    2
    13    78    77    2
    14    97    98    2
    15    97    99   am
    16    72    71    2
    17    89    90    2
    18    89    91   am
    19    77    76    1
    20    70    71    1
    21    70    73    1
    22    74    73    1
    23    81    80    2
    24   113   111   ar
    25    76    75    1
    26    76    79    1
    27    80    79    1
    28    80    82   am
    29   110   111    1
    30   110   109    1
    31   106   107    1
    32   106   105    1
    33   106   109    1
    34   107   108    2
    35   111   112   ar
    36   101   102    1
    37   101   104    1
    38   101   100    1
    39   102   103    2
    40   149   147   ar
    41   147   148   ar
    42   147   146    1
    43   146   143    1
    44   120   118    1
    45   128   130   ar
    46   128   126   ar
    47   143   144    1
    48   143   142    1
    49   130   129   ar
    50   119   118    1
    51   114   115    1
    52   118   115    1
    53   144   145    2
    54   124   123    2
    55   126   125    1
    56   126   127   ar
    57   125   122    1
    58   142   133   am
    59   121   122    1
    60   121   116   am
    61   115   116    1
    62   129   127   ar
    63   123   122    1
    64   123   131   am
    65   116   117    2
    66   133   132    1
    67   133   134    2
    68   132   131    1
    69   132   135    1
    70     5     2    1
    71    23    25   ar
    72    23    21   ar
    73    25    24   ar
    74   139   137   ar
    75   139   141   ar
    76   137   136   ar
    77   141   140   ar
    78   135   136    1
    79   136   138   ar
    80   140   138   ar
    81    21    20   ar
    82     2     3    1
    83     2     1    1
    84     3     4    2
    85    24    22   ar
    86    20    22   ar
    87    20    19    1
    88    19    16    1
    89    16    15    1
    90    16    17    1
    91    15     8   am
    92    42    44   ar
    93    42    40   ar
    94    44    43   ar
    95    17    18    2
    96    40    39    1
    97    40    41   ar
    98    39    36    1
    99    43    41   ar
   100     6     7    1
   101    12    13    1
   102    12    11    1
   103    10    11    1
   104    10     7    1
   105     8     7    1
   106     8     9    2
   107    13    14    1
   108    34    32   am
   109    38    37    2
   110    36    37    1
   111    36    35    1
   112    59    58    1
   113    35    28   am
   114    32    31    1
   115    32    33    2
   116    58    60    1
   117    58    55    1
   118    30    31    1
   119    30    27    1
   120    53    52    1
   121    67    66    2
   122    28    29    2
   123    28    27    1
   124    52    51    1
   125    63    62    1
   126    63    64    2
   127    57    56    2
   128    26    27    1
   129    62    61    1
   130    62    65    1
   131    56    61   am
   132    56    55    1
   133    66    68   am
   134    66    65    1
   135    55    54    1
   136    51    50    1
   137    50    49    1
   138    49    46    1
   139    47    46    1
   140    47    48    2
   141    46    45    1
