@<TRIPOS>MOLECULE
tmp/2w5kB00.pdb
 135 130 0 0 0
SMALL
GASTEIGER

@<TRIPOS>ATOM
      1  N         18.2310    8.2260    5.2210 N.3     7  LYS7       -0.1231
      2  CA        16.8780    8.2650    5.7970 C.3     7  LYS7        0.1693
      3  C         16.1550    6.9690    5.4670 C.2     7  LYS7        0.2592
      4  O         15.4640    6.3930    6.3300 O.2     7  LYS7       -0.2718
      5  CB        16.1090    9.5050    5.3040 C.3     7  LYS7        0.0285
      6  CG        14.7630    9.6850    5.9820 C.3     7  LYS7        0.0035
      7  CD        14.1550   11.0260    5.6310 C.3     7  LYS7        0.0206
      8  CE        12.6840   11.0460    6.0270 C.3     7  LYS7        0.1093
      9  NZ        12.1770   12.4390    6.1910 N.3     7  LYS7       -0.1314
     10  N         16.3470    6.4690    4.2340 N.am    8  PHE8       -0.1976
     11  CA        15.7190    5.1680    3.8670 C.3     8  PHE8        0.1639
     12  C         16.2100    4.0320    4.7810 C.2     8  PHE8        0.2290
     13  O         15.4340    3.2030    5.2430 O.2     8  PHE8       -0.2864
     14  CB        15.9950    4.8200    2.3860 C.3     8  PHE8        0.0560
     15  CG        15.4040    3.5040    1.9610 C.ar    8  PHE8       -0.0200
     16  CD1       14.1140    3.4470    1.4180 C.ar    8  PHE8       -0.0042
     17  CD2       16.1310    2.3180    2.1120 C.ar    8  PHE8       -0.0042
     18  CE1       13.5540    2.2200    1.0390 C.ar    8  PHE8       -0.0003
     19  CE2       15.5750    1.0780    1.7420 C.ar    8  PHE8       -0.0003
     20  CZ        14.2810    1.0410    1.1830 C.ar    8  PHE8       -0.0000
     21  N         14.6390    4.4850    8.3500 N.3    11  GLN11      -0.1231
     22  CA        13.1850    4.2420    8.4390 C.3    11  GLN11       0.1698
     23  C         12.7970    2.8230    8.0430 C.2    11  GLN11       0.2592
     24  O         11.7660    2.3240    8.5200 O.2    11  GLN11      -0.2718
     25  CB        12.4150    5.1940    7.4980 C.3    11  GLN11       0.0381
     26  CG        12.5220    6.6610    7.7970 C.3    11  GLN11       0.0905
     27  CD        11.3630    7.4010    7.1520 C.2    11  GLN11       0.2608
     28  OE1       10.4600    7.8710    7.8350 O.2    11  GLN11      -0.2717
     29  NE2       11.3640    7.4610    5.8310 N.am   11  GLN11      -0.0878
     30  N         13.5740    2.1530    7.1850 N.am   12  HIS12      -0.1976
     31  CA        13.0880    0.9070    6.5600 C.3    12  HIS12       0.1656
     32  C         13.9560   -0.3630    6.6280 C.2    12  HIS12       0.2291
     33  O         13.4720   -1.4230    6.2360 O.2    12  HIS12      -0.2864
     34  CB        12.6840    1.1400    5.0800 C.3    12  HIS12       0.0771
     35  CG        11.6590    2.2220    4.8860 C.ar   12  HIS12       0.0820
     36  ND1       10.3690    2.1420    5.3890 N.ar   12  HIS12      -0.2267
     37  CD2       11.7400    3.4120    4.2480 C.ar   12  HIS12       0.1154
     38  CE1        9.6960    3.2290    5.0410 C.ar   12  HIS12       0.1986
     39  NE2       10.5110    4.0240    4.3570 N.ar   12  HIS12      -0.2212
     40  N          4.0420    8.2020   13.7610 N.3    41  LYS41      -0.1245
     41  CA         3.9410    7.9620   12.3180 C.3    41  LYS41       0.1561
     42  C          2.9260    6.8230   12.1570 C.2    41  LYS41       0.2260
     43  O          3.0920    5.7980   12.7950 O.2    41  LYS41      -0.2867
     44  CB         5.3010    7.5450   11.7490 C.3    41  LYS41       0.0271
     45  CG         5.2670    7.3010   10.2240 C.3    41  LYS41       0.0035
     46  CD         6.6360    6.9600    9.6670 C.3    41  LYS41       0.0206
     47  CE         6.5630    6.8110    8.1420 C.3    41  LYS41       0.1093
     48  NZ         7.8740    6.4950    7.5210 N.3    41  LYS41      -0.1314
     49  N          5.8050    5.2030   -9.9230 N.3    65  CYS65      -0.1235
     50  CA         5.5950    5.4480   -8.4960 C.3    65  CYS65       0.1677
     51  C          4.1680    5.9610   -8.2210 C.2    65  CYS65       0.2270
     52  O          3.4870    6.4600   -9.1390 O.2    65  CYS65      -0.2867
     53  CB         6.5700    6.5180   -7.9670 C.3    65  CYS65       0.0956
     54  SG         8.3350    6.1830   -8.2430 S.3    65  CYS65      -0.0801
     55  N          3.2620    8.6460   -6.8730 N.3    67  ASN67      -0.1240
     56  CA         3.1760   10.0790   -7.1930 C.3    67  ASN67       0.1653
     57  C          3.3160   10.4020   -8.6870 C.2    67  ASN67       0.2266
     58  O          3.3810   11.5780   -9.0700 O.2    67  ASN67      -0.2867
     59  CB         4.2040   10.8600   -6.3640 C.3    67  ASN67       0.1155
     60  CG         5.6440   10.5760   -6.7850 C.2    67  ASN67       0.2627
     61  OD1        5.9000    9.7960   -7.7060 O.2    67  ASN67      -0.2716
     62  ND2        6.5930   11.2270   -6.1060 N.am   67  ASN67      -0.0877
     63  N          5.9220    9.7780  -10.7110 N.3    69  GLN69      -0.1245
     64  CA         7.3120    9.6640  -11.1750 C.3    69  GLN69       0.1566
     65  C          7.5940    8.2570  -11.7390 C.2    69  GLN69       0.2260
     66  O          6.8860    7.2700  -11.3980 O.2    69  GLN69      -0.2867
     67  CB         8.3070    9.9960  -10.0450 C.3    69  GLN69       0.0367
     68  CG         8.2440   11.4520   -9.5290 C.3    69  GLN69       0.0905
     69  CD         9.2220   11.7110   -8.3820 C.2    69  GLN69       0.2608
     70  OE1       10.2390   11.0210   -8.2370 O.2    69  GLN69      -0.2717
     71  NE2        8.9170   12.6990   -7.5650 N.am   69  GLN69      -0.0878
     72  N         10.7580    6.6070  -11.5970 N.3    71  ASN71      -0.1225
     73  CA        11.9830    6.0190  -11.0370 C.3    71  ASN71       0.1785
     74  C         11.7020    4.9710   -9.9450 C.2    71  ASN71       0.2597
     75  O         12.5330    4.8120   -9.0400 O.2    71  ASN71      -0.2718
     76  CB        12.9620    7.0960  -10.4800 C.3    71  ASN71       0.1169
     77  CG        12.3660    7.9230   -9.3460 C.2    71  ASN71       0.2627
     78  OD1       11.2200    8.3490   -9.4100 O.2    71  ASN71      -0.2716
     79  ND2       13.1430    8.1340   -8.2840 N.am   71  ASN71      -0.0877
     80  N         10.5870    4.2370  -10.0640 N.am   72  CYS72      -0.1970
     81  CA        10.3000    3.1320   -9.1170 C.3    72  CYS72       0.1712
     82  C         10.6130    1.7490   -9.6850 C.2    72  CYS72       0.2296
     83  O         10.5990    1.5410  -10.9180 O.2    72  CYS72      -0.2864
     84  CB         8.8640    3.1980   -8.5800 C.3    72  CYS72       0.0983
     85  SG         8.6830    4.4320   -7.2470 S.3    72  CYS72      -0.0798
     86  N         11.5730    3.6860   -4.6930 N.3   109  ALA109     -0.1245
     87  CA        12.0730    4.7210   -5.6380 C.3   109  ALA109      0.1562
     88  C         13.5970    4.7790   -5.5040 C.2   109  ALA109      0.2260
     89  O         14.0970    4.7180   -4.3750 O.2   109  ALA109     -0.2867
     90  CB        11.4660    6.1060   -5.2910 C.3   109  ALA109      0.0290
     91  N         17.4660    6.7000   -6.6190 N.3   111  GLU111     -0.1245
     92  CA        18.0360    7.9760   -7.1040 C.3   111  GLU111      0.1567
     93  C         19.4950    8.0900   -6.6810 C.2   111  GLU111      0.2260
     94  O         19.9130    7.4490   -5.6900 O.2   111  GLU111     -0.2867
     95  CB        17.1840    9.1520   -6.5420 C.3   111  GLU111      0.0388
     96  CG        17.5250   10.5530   -7.0780 C.3   111  GLU111      0.1160
     97  CD        16.5560   11.6350   -6.6040 C.2   111  GLU111      0.3649
     98  OE1       15.5210   11.3160   -5.9860 O.co2 111  GLU111     -0.2457
     99  OE2       16.8230   12.8210   -6.8770 O.co2 111  GLU111     -0.2457
    100  N         15.6450    5.3320   -2.1200 N.3   118  VAL118     -0.1231
    101  CA        15.4430    6.5230   -1.2950 C.3   118  VAL118      0.1692
    102  C         14.0310    6.6850   -0.7300 C.2   118  VAL118      0.2592
    103  O         13.8410    7.5270    0.1610 O.2   118  VAL118     -0.2718
    104  CB        15.8680    7.8510   -2.0260 C.3   118  VAL118      0.0266
    105  CG1       17.3440    7.8430   -2.2530 C.3   118  VAL118      0.0020
    106  CG2       15.1390    8.0090   -3.3490 C.3   118  VAL118      0.0020
    107  N         13.0480    5.9320   -1.2540 N.am  119  HIS119     -0.1962
    108  CA        11.6760    5.9290   -0.6940 C.3   119  HIS119      0.1787
    109  C         11.0470    4.5610   -0.8080 C.2   119  HIS119      0.2620
    110  O         11.3200    3.8380   -1.7650 O.2   119  HIS119     -0.2715
    111  CB        10.7610    6.9560   -1.4060 C.3   119  HIS119      0.0785
    112  CG        11.2820    8.3480   -1.3520 C.ar  119  HIS119      0.0821
    113  ND1       11.2290    9.1070   -0.2010 N.ar  119  HIS119     -0.2267
    114  CD2       11.9200    9.1050   -2.2800 C.ar  119  HIS119      0.1154
    115  CE1       11.8000   10.2810   -0.4260 C.ar  119  HIS119      0.1986
    116  NE2       12.2130   10.3110   -1.6830 N.ar  119  HIS119     -0.2212
    117  N         10.2070    4.2160    0.1780 N.am  120  PHE120     -0.1960
    118  CA         9.4390    2.9710    0.1340 C.3   120  PHE120      0.1771
    119  C          8.0410    3.2810   -0.4190 C.2   120  PHE120      0.2619
    120  O          7.2910    4.0560    0.2190 O.2   120  PHE120     -0.2715
    121  CB         9.3390    2.3480    1.5440 C.3   120  PHE120      0.0574
    122  CG         8.8110    0.9360    1.5260 C.ar  120  PHE120     -0.0200
    123  CD1        9.6950   -0.1330    1.3650 C.ar  120  PHE120     -0.0042
    124  CD2        7.4330    0.6830    1.5820 C.ar  120  PHE120     -0.0042
    125  CE1        9.2050   -1.4700    1.2940 C.ar  120  PHE120     -0.0003
    126  CE2        6.9430   -0.6670    1.5020 C.ar  120  PHE120     -0.0003
    127  CZ         7.8520   -1.7170    1.3530 C.ar  120  PHE120     -0.0000
    128  N          7.7010    2.7260   -1.5790 N.am  121  ASP121     -0.1971
    129  CA         6.4020    3.0280   -2.2330 C.3   121  ASP121      0.1709
    130  C          5.2710    2.1130   -1.7190 C.2   121  ASP121      0.2293
    131  O          4.2540    2.6040   -1.2160 O.2   121  ASP121     -0.2864
    132  CB         6.5710    2.9860   -3.7580 C.3   121  ASP121      0.1436
    133  CG         5.3230    3.4550   -4.5250 C.2   121  ASP121      0.3671
    134  OD1        5.3480    4.5900   -5.0080 O.co2 121  ASP121     -0.2456
    135  OD2        4.3450    2.6900   -4.6260 O.co2 121  ASP121     -0.2456
@<TRIPOS>BOND
     1    65    66    2
     2    65    64    1
     3    72    73    1
     4    64    63    1
     5    64    67    1
     6    73    76    1
     7    73    74    1
     8    83    82    2
     9    76    77    1
    10    80    74   am
    11    80    81    1
    12    67    68    1
    13    74    75    2
    14    49    50    1
    15    82    81    1
    16    68    69    1
    17    78    77    2
    18    77    79   am
    19    52    51    2
    20    81    84    1
    21    58    57    2
    22    57    56    1
    23    84    85    1
    24    50    51    1
    25    50    53    1
    26    69    70    2
    27    69    71   am
    28    54    53    1
    29    54    85    1
    30    61    60    2
    31    56    55    1
    32    56    59    1
    33    92    93    1
    34    92    91    1
    35    92    95    1
    36    96    97    1
    37    96    95    1
    38    99    97   ar
    39    60    59    1
    40    60    62   am
    41    93    94    2
    42    97    98   ar
    43    87    88    1
    44    87    90    1
    45    87    86    1
    46    88    89    2
    47   134   133   ar
    48   135   133   ar
    49   133   132    1
    50   132   129    1
    51   106   104    1
    52   114   116   ar
    53   114   112   ar
    54   105   104    1
    55   129   130    1
    56   129   128    1
    57   100   101    1
    58   104   101    1
    59   110   109    2
    60   130   131    2
    61   116   115   ar
    62   128   119   am
    63   111   112    1
    64   111   108    1
    65   112   113   ar
    66   101   102    1
    67   107   102   am
    68   107   108    1
    69   109   108    1
    70   109   117   am
    71   102   103    2
    72   115   113   ar
    73   119   118    1
    74   119   120    2
    75   118   117    1
    76   118   121    1
    77    18    20   ar
    78    18    16   ar
    79    20    19   ar
    80   125   127   ar
    81   125   123   ar
    82   127   126   ar
    83   123   122   ar
    84    16    15   ar
    85   126   124   ar
    86   122   121    1
    87   122   124   ar
    88    19    17   ar
    89    15    17   ar
    90    15    14    1
    91    14    11    1
    92    11    10    1
    93    11    12    1
    94    10     3   am
    95    37    39   ar
    96    37    35   ar
    97    39    38   ar
    98    12    13    2
    99    35    34    1
   100    35    36   ar
   101    38    36   ar
   102    34    31    1
   103     1     2    1
   104     5     2    1
   105     5     6    1
   106     3     2    1
   107     3     4    2
   108     7     6    1
   109     7     8    1
   110    29    27   am
   111     8     9    1
   112    33    32    2
   113    31    32    1
   114    31    30    1
   115    27    26    1
   116    27    28    2
   117    30    23   am
   118    25    26    1
   119    25    22    1
   120    48    47    1
   121    23    22    1
   122    23    24    2
   123    47    46    1
   124    21    22    1
   125    46    45    1
   126    45    44    1
   127    44    41    1
   128    42    41    1
   129    42    43    2
   130    41    40    1
