@<TRIPOS>MOLECULE
tmp/2w5mA00.pdb
 88 86 0 0 0
SMALL
GASTEIGER

@<TRIPOS>ATOM
      1  N         33.1330  -10.9520   25.5770 N.3     7  LYS7       -0.1245
      2  CA        34.0690   -9.9250   26.0440 C.3     7  LYS7        0.1561
      3  C         33.4310   -8.5370   25.9680 C.2     7  LYS7        0.2260
      4  O         33.6070   -7.7370   26.8770 O.2     7  LYS7       -0.2867
      5  CB        35.3570   -9.9580   25.2330 C.3     7  LYS7        0.0271
      6  CG        36.4630   -9.0720   25.8050 C.3     7  LYS7        0.0035
      7  CD        37.7080   -9.0940   24.9170 C.3     7  LYS7        0.0206
      8  CE        38.7060   -7.9470   25.2570 C.3     7  LYS7        0.1093
      9  NZ        39.3380   -8.0070   26.6280 N.3     7  LYS7       -0.1314
     10  N         32.9720   -6.1340   29.2510 N.3    11  GLN11      -0.1231
     11  CA        33.6040   -4.8210   29.2830 C.3    11  GLN11       0.1698
     12  C         32.6310   -3.6490   29.2520 C.2    11  GLN11       0.2592
     13  O         32.9080   -2.5900   29.8090 O.2    11  GLN11      -0.2718
     14  CB        34.5450   -4.6560   28.0900 C.3    11  GLN11       0.0381
     15  CG        35.7470   -5.5510   28.1050 C.3    11  GLN11       0.0905
     16  CD        36.8330   -5.0060   27.2460 C.2    11  GLN11       0.2608
     17  OE1       37.8480   -4.5270   27.7480 O.2    11  GLN11      -0.2717
     18  NE2       36.6210   -5.0310   25.9410 N.am   11  GLN11      -0.0878
     19  N         31.4870   -3.8200   28.6010 N.am   12  HIS12      -0.1976
     20  CA        30.7090   -2.6510   28.2090 C.3    12  HIS12       0.1656
     21  C         29.2340   -2.6130   28.5410 C.2    12  HIS12       0.2291
     22  O         28.6220   -1.5880   28.3130 O.2    12  HIS12      -0.2864
     23  CB        30.8300   -2.4280   26.6930 C.3    12  HIS12       0.0771
     24  CG        32.2330   -2.2150   26.2230 C.ar   12  HIS12       0.0820
     25  ND1       33.0000   -1.1540   26.6390 N.ar   12  HIS12      -0.2267
     26  CD2       32.9950   -2.9070   25.3420 C.ar   12  HIS12       0.1154
     27  CE1       34.1800   -1.2100   26.0550 C.ar   12  HIS12       0.1986
     28  NE2       34.2000   -2.2590   25.2570 N.ar   12  HIS12      -0.2212
     29  N         43.1530   -0.4160   32.7940 N.3    41  LYS41      -0.1245
     30  CA        42.6190    0.0460   31.5120 C.3    41  LYS41       0.1561
     31  C         42.3210    1.5390   31.6650 C.2    41  LYS41       0.2260
     32  O         41.5940    1.9270   32.5770 O.2    41  LYS41      -0.2867
     33  CB        41.3520   -0.7330   31.1200 C.3    41  LYS41       0.0271
     34  CG        40.8890   -0.4250   29.6950 C.3    41  LYS41       0.0035
     35  CD        39.6330   -1.2280   29.3140 C.3    41  LYS41       0.0206
     36  CE        39.2850   -0.9490   27.8480 C.3    41  LYS41       0.1093
     37  NZ        37.9650   -1.5000   27.4360 N.3    41  LYS41      -0.1314
     38  N         40.6730    3.9340   29.8130 N.3    43  VAL43      -0.1231
     39  CA        39.3350    4.4580   29.5380 C.3    43  VAL43       0.1692
     40  C         38.4120    3.2950   29.1600 C.2    43  VAL43       0.2592
     41  O         38.8260    2.3700   28.4580 O.2    43  VAL43      -0.2718
     42  CB        39.2970    5.5310   28.3790 C.3    43  VAL43       0.0266
     43  CG1       39.4570    4.8840   27.0230 C.3    43  VAL43       0.0020
     44  CG2       37.9850    6.3230   28.4160 C.3    43  VAL43       0.0020
     45  N         37.1780    3.3580   29.6400 N.am   44  ASN44      -0.1974
     46  CA        36.1810    2.3350   29.3330 C.3    44  ASN44       0.1688
     47  C         34.7770    2.8830   29.4370 C.2    44  ASN44       0.2292
     48  O         34.4730    3.6140   30.3760 O.2    44  ASN44      -0.2864
     49  CB        36.3030    1.1350   30.2740 C.3    44  ASN44       0.1181
     50  CG        35.4690   -0.0430   29.8100 C.2    44  ASN44       0.2629
     51  OD1       35.7670   -0.6240   28.7760 O.2    44  ASN44      -0.2716
     52  ND2       34.4290   -0.3990   30.5640 N.am   44  ASN44      -0.0877
     53  N         31.1170   -6.4190   18.9570 N.3   118  VAL118     -0.1231
     54  CA        32.3980   -6.9490   19.4540 C.3   118  VAL118      0.1692
     55  C         33.4120   -5.9020   19.9430 C.2   118  VAL118      0.2592
     56  O         34.4740   -6.2550   20.5010 O.2   118  VAL118     -0.2718
     57  CB        33.0790   -7.9070   18.4180 C.3   118  VAL118      0.0266
     58  CG1       32.1750   -9.1280   18.1560 C.3   118  VAL118      0.0020
     59  CG2       33.4270   -7.1850   17.0770 C.3   118  VAL118      0.0020
     60  N         33.1250   -4.6310   19.7290 N.am  119  HIS119     -0.1962
     61  CA        34.0980   -3.5610   20.0260 C.3   119  HIS119      0.1787
     62  C         33.3060   -2.2860   20.2070 C.2   119  HIS119      0.2620
     63  O         32.3410   -2.0500   19.4560 O.2   119  HIS119     -0.2715
     64  CB        35.1050   -3.4420   18.8650 C.3   119  HIS119      0.0785
     65  CG        35.8290   -2.1300   18.7810 C.ar  119  HIS119      0.0821
     66  ND1       36.8630   -1.7880   19.6300 N.ar  119  HIS119     -0.2267
     67  CD2       35.7200   -1.1020   17.8900 C.ar  119  HIS119      0.1154
     68  CE1       37.3170   -0.5840   19.3090 C.ar  119  HIS119      0.1986
     69  NE2       36.6470   -0.1540   18.2490 N.ar  119  HIS119     -0.2212
     70  N         33.6400   -1.5150   21.2390 N.am  120  PHE120     -0.1960
     71  CA        33.0220   -0.2210   21.4410 C.3   120  PHE120      0.1771
     72  C         33.9460    0.7930   20.7740 C.2   120  PHE120      0.2619
     73  O         35.0940    0.9360   21.1780 O.2   120  PHE120     -0.2715
     74  CB        32.8980    0.0910   22.9400 C.3   120  PHE120      0.0574
     75  CG        32.0550    1.2810   23.2040 C.ar  120  PHE120     -0.0200
     76  CD1       32.6190    2.5720   23.1930 C.ar  120  PHE120     -0.0042
     77  CD2       30.6830    1.1320   23.3960 C.ar  120  PHE120     -0.0042
     78  CE1       31.8060    3.6900   23.3820 C.ar  120  PHE120     -0.0003
     79  CE2       29.8770    2.2540   23.5950 C.ar  120  PHE120     -0.0003
     80  CZ        30.4480    3.5150   23.5850 C.ar  120  PHE120     -0.0000
     81  N         33.4650    1.5260   19.7680 N.am  121  ASP121     -0.1971
     82  CA        34.3770    2.4140   19.0530 C.3   121  ASP121      0.1709
     83  C         34.4140    3.8510   19.5910 C.2   121  ASP121      0.2293
     84  O         35.5030    4.4370   19.7650 O.2   121  ASP121     -0.2864
     85  CB        34.0380    2.4150   17.5520 C.3   121  ASP121      0.1436
     86  CG        35.2430    2.7380   16.6850 C.2   121  ASP121      0.3671
     87  OD1       36.3210    2.1440   16.9090 O.co2 121  ASP121     -0.2456
     88  OD2       35.1120    3.5810   15.7900 O.co2 121  ASP121     -0.2456
@<TRIPOS>BOND
     1    88    86   ar
     2    86    87   ar
     3    86    85    1
     4    59    57    1
     5    85    82    1
     6    67    69   ar
     7    67    65   ar
     8    58    57    1
     9    69    68   ar
    10    57    54    1
    11    65    64    1
    12    65    66   ar
    13    64    61    1
    14    53    54    1
    15    82    83    1
    16    82    81    1
    17    68    66   ar
    18    54    55    1
    19    63    62    2
    20    83    84    2
    21    60    55   am
    22    60    61    1
    23    81    72   am
    24    55    56    2
    25    61    62    1
    26    62    70   am
    27    72    73    2
    28    72    71    1
    29    70    71    1
    30    71    74    1
    31    74    75    1
    32    76    75   ar
    33    76    78   ar
    34    75    77   ar
    35    78    80   ar
    36    77    79   ar
    37    80    79   ar
    38     7     8    1
    39     7     6    1
    40     5     6    1
    41     5     2    1
    42     8     9    1
    43    28    26   ar
    44    28    27   ar
    45    26    24   ar
    46     1     2    1
    47    18    16   am
    48     3     2    1
    49     3     4    2
    50    27    25   ar
    51    24    25   ar
    52    24    23    1
    53    23    20    1
    54    43    42    1
    55    16    17    2
    56    16    15    1
    57    37    36    1
    58    36    35    1
    59    14    15    1
    60    14    11    1
    61    20    21    1
    62    20    19    1
    63    22    21    2
    64    42    44    1
    65    42    39    1
    66    41    40    2
    67    19    12   am
    68    51    50    2
    69    40    39    1
    70    40    45   am
    71    10    11    1
    72    12    11    1
    73    12    13    2
    74    35    34    1
    75    46    47    1
    76    46    45    1
    77    46    49    1
    78    47    48    2
    79    39    38    1
    80    34    33    1
    81    50    49    1
    82    50    52   am
    83    33    30    1
    84    30    31    1
    85    30    29    1
    86    31    32    2
