@<TRIPOS>MOLECULE
tmp/2w5oA00.pdb
 182 177 0 0 0
SMALL
GASTEIGER

@<TRIPOS>ATOM
      1  N         21.2440   15.4930   17.6540 N.3    22  LEU22      -0.1231
      2  CA        20.1310   15.8420   18.5320 C.3    22  LEU22       0.1693
      3  C         18.9000   15.0340   18.1100 C.2    22  LEU22       0.2592
      4  O         18.8430   14.5530   16.9760 O.2    22  LEU22      -0.2718
      5  CB        19.8010   17.3470   18.4490 C.3    22  LEU22       0.0284
      6  CG        18.9800   18.0370   19.5620 C.3    22  LEU22       0.0019
      7  CD1       19.7490   18.2880   20.8740 C.3    22  LEU22       0.0001
      8  CD2       18.3640   19.3190   19.0610 C.3    22  LEU22       0.0001
      9  N         17.9210   14.9330   19.0330 N.am   23  TYR23      -0.1976
     10  CA        16.5790   14.4570   18.7060 C.3    23  TYR23       0.1639
     11  C         16.6390   12.9880   18.2330 C.2    23  TYR23       0.2290
     12  O         16.3830   12.6780   17.0720 O.2    23  TYR23      -0.2864
     13  CB        15.9430   15.3680   17.6190 C.3    23  TYR23       0.0560
     14  CG        14.4220   15.5290   17.6650 C.ar   23  TYR23      -0.0198
     15  CD1       13.8520   16.7640   17.9560 C.ar   23  TYR23      -0.0009
     16  CD2       13.5890   14.4760   17.3780 C.ar   23  TYR23      -0.0009
     17  CE1       12.4950   16.9310   17.9550 C.ar   23  TYR23       0.0417
     18  CE2       12.2000   14.6290   17.3880 C.ar   23  TYR23       0.0417
     19  CZ        11.6810   15.8780   17.6660 C.ar   23  TYR23       0.1957
     20  OH        10.3290   16.0750   17.7160 O.3    23  TYR23      -0.2866
     21  N         18.6390   13.9520   14.3340 N.3    39  GLU39      -0.1245
     22  CA        19.0400   15.1230   13.5540 C.3    39  GLU39       0.1567
     23  C         20.5630   15.0680   13.3500 C.2    39  GLU39       0.2260
     24  O         21.3200   14.9680   14.3230 O.2    39  GLU39      -0.2867
     25  CB        18.6380   16.3870   14.3000 C.3    39  GLU39       0.0388
     26  CG        17.1410   16.5770   14.4090 C.3    39  GLU39       0.1160
     27  CD        16.7760   17.8300   15.2140 C.2    39  GLU39       0.3649
     28  OE1       17.7260   18.4880   15.7510 O.co2  39  GLU39      -0.2457
     29  OE2       15.5590   18.1420   15.3360 O.co2  39  GLU39      -0.2457
     30  N         23.7340   16.8940   11.8930 N.3    41  TYR41      -0.1241
     31  CA        24.1410   18.2550   11.5460 C.3    41  TYR41       0.1605
     32  C         25.4650   18.2770   10.7720 C.2    41  TYR41       0.2264
     33  O         26.4280   18.9020   11.2160 O.2    41  TYR41      -0.2867
     34  CB        24.2980   19.1080   12.8060 C.3    41  TYR41       0.0534
     35  CG        22.9960   19.4580   13.5050 C.ar   41  TYR41      -0.0201
     36  CD1       22.4070   20.7060   13.3100 C.ar   41  TYR41      -0.0009
     37  CD2       22.3470   18.5280   14.3330 C.ar   41  TYR41      -0.0009
     38  CE1       21.1990   21.0260   13.9210 C.ar   41  TYR41       0.0417
     39  CE2       21.1250   18.8420   14.9620 C.ar   41  TYR41       0.0417
     40  CZ        20.5690   20.1010   14.7500 C.ar   41  TYR41       0.1957
     41  OH        19.3830   20.4370   15.3610 O.3    41  TYR41      -0.2866
     42  N         15.2860   18.5520   10.6300 N.3    79  TYR79      -0.1227
     43  CA        14.8170   18.5500   12.0210 C.3    79  TYR79       0.1736
     44  C         13.7790   17.4940   12.3430 C.2    79  TYR79       0.2595
     45  O         12.9650   17.1250   11.4840 O.2    79  TYR79      -0.2718
     46  CB        14.1820   19.9030   12.4360 C.3    79  TYR79       0.0548
     47  CG        15.1400   21.0730   12.6850 C.ar   79  TYR79      -0.0200
     48  CD1       16.5310   20.8830   12.7700 C.ar   79  TYR79      -0.0009
     49  CD2       14.6310   22.3610   12.8780 C.ar   79  TYR79      -0.0009
     50  CE1       17.3900   21.9660   13.0320 C.ar   79  TYR79       0.0417
     51  CE2       15.4710   23.4540   13.1300 C.ar   79  TYR79       0.0417
     52  CZ        16.8490   23.2460   13.2000 C.ar   79  TYR79       0.1957
     53  OH        17.6470   24.3300   13.4430 O.3    79  TYR79      -0.2866
     54  N         13.7930   17.0670   13.6070 N.am   80  GLN80      -0.1979
     55  CA        12.6650   16.4200   14.2680 C.3    80  GLN80       0.1601
     56  C         12.1520   15.1680   13.5130 C.2    80  GLN80       0.2287
     57  O         10.9530   15.0560   13.2260 O.2    80  GLN80      -0.2864
     58  CB        11.5440   17.4600   14.5390 C.3    80  GLN80       0.0394
     59  CG        12.0130   18.6450   15.4460 C.3    80  GLN80       0.0908
     60  CD        11.6550   20.0490   14.9030 C.2    80  GLN80       0.2608
     61  OE1       10.7710   20.2020   14.0530 O.2    80  GLN80      -0.2717
     62  NE2       12.3950   21.0650   15.3590 N.am   80  GLN80      -0.0878
     63  N         12.3940   28.7290   10.4090 N.3   138  ALA138     -0.1231
     64  CA        12.6080   27.7620   11.4620 C.3   138  ALA138      0.1694
     65  C         13.3390   28.3280   12.6840 C.2   138  ALA138      0.2592
     66  O         14.4040   27.8100   13.0390 O.2   138  ALA138     -0.2718
     67  CB        13.3350   26.5430   10.9040 C.3   138  ALA138      0.0304
     68  N         12.7680   29.3390   13.3520 N.am  139  LEU139     -0.1966
     69  CA        13.2660   29.7980   14.6520 C.3   139  LEU139      0.1713
     70  C         12.0470   29.8710   15.5810 C.2   139  LEU139      0.2458
     71  O         10.9870   30.3310   15.1520 O.2   139  LEU139     -0.2730
     72  CB        13.8830   31.1990   14.5040 C.3   139  LEU139      0.0310
     73  CG        15.1610   31.2560   13.6550 C.3   139  LEU139      0.0022
     74  CD1       15.5630   32.7110   13.3540 C.3   139  LEU139      0.0001
     75  CD2       16.2850   30.5220   14.4010 C.3   139  LEU139      0.0001
     76  N         12.1780   29.3970   16.8310 N.am  140  PRO140     -0.2727
     77  CA        11.0020   29.3430   17.6840 C.3   140  PRO140      0.1402
     78  C         10.7390   30.7170   18.2970 C.2   140  PRO140      0.2269
     79  O         10.8050   30.8840   19.5120 O.2   140  PRO140     -0.2865
     80  CB        11.4020   28.3330   18.7620 C.3   140  PRO140      0.0296
     81  CG        12.9040   28.6000   18.9500 C.3   140  PRO140      0.0237
     82  CD        13.3990   28.9200   17.5260 C.3   140  PRO140      0.0939
     83  N          6.6880   22.3010   13.3060 N.3   148  TRP148     -0.1227
     84  CA         7.7160   21.4150   13.8570 C.3   148  TRP148      0.1737
     85  C          7.2100   20.0590   14.3980 C.2   148  TRP148      0.2595
     86  O          6.0420   19.9040   14.7430 O.2   148  TRP148     -0.2718
     87  CB         8.3710   22.0590   15.0820 C.3   148  TRP148      0.0564
     88  CG         8.5490   23.5850   15.2030 C.ar  148  TRP148      0.0003
     89  CD1        7.6570   24.4870   15.6880 C.ar  148  TRP148      0.0946
     90  CD2        9.7460   24.3150   14.9310 C.ar  148  TRP148      0.0152
     91  NE1        8.2230   25.7510   15.7080 N.ar  148  TRP148     -0.2442
     92  CE2        9.5140   25.6500   15.2770 C.ar  148  TRP148      0.0810
     93  CE3       10.9850   23.9620   14.4180 C.ar  148  TRP148      0.0012
     94  CZ2       10.4700   26.6370   15.1170 C.ar  148  TRP148      0.0191
     95  CZ3       11.9330   24.9500   14.2660 C.ar  148  TRP148      0.0001
     96  CH2       11.6760   26.2600   14.6280 C.ar  148  TRP148      0.0015
     97  N          8.1290   19.1040   14.5560 N.am  149  GLU149     -0.1979
     98  CA         7.9310   18.0200   15.5170 C.3   149  GLU149      0.1602
     99  C          6.7980   17.0350   15.2360 C.2   149  GLU149      0.2287
    100  O          5.9100   16.8360   16.0720 O.2   149  GLU149     -0.2864
    101  CB         7.7930   18.6630   16.9240 C.3   149  GLU149      0.0415
    102  CG         9.0890   19.3480   17.3690 C.3   149  GLU149      0.1163
    103  CD         8.8880   20.5350   18.3190 C.2   149  GLU149      0.3649
    104  OE1        7.7280   20.9200   18.5920 O.co2 149  GLU149     -0.2457
    105  OE2        9.9120   21.0910   18.7690 O.co2 149  GLU149     -0.2457
    106  N          2.6120   29.6160   19.5950 N.3   173  GLN173     -0.1245
    107  CA         2.5880   28.2490   19.0430 C.3   173  GLN173      0.1566
    108  C          1.3500   27.4990   19.5510 C.2   173  GLN173      0.2260
    109  O          0.8510   27.7770   20.6480 O.2   173  GLN173     -0.2867
    110  CB         3.8810   27.4750   19.3950 C.3   173  GLN173      0.0367
    111  CG         3.9940   26.1030   18.7540 C.3   173  GLN173      0.0905
    112  CD         5.3880   25.5620   19.0120 C.2   173  GLN173      0.2608
    113  OE1        6.3380   25.8980   18.2950 O.2   173  GLN173     -0.2717
    114  NE2        5.5370   24.7580   20.0660 N.am  173  GLN173     -0.0878
    115  N          3.2070   28.6890   24.5350 N.3   201  ARG201     -0.1245
    116  CA         3.7600   27.7930   23.5190 C.3   201  ARG201      0.1563
    117  C          3.7330   26.3150   23.9890 C.2   201  ARG201      0.2260
    118  O          4.7530   25.7150   24.3330 O.2   201  ARG201     -0.2867
    119  CB         5.1870   28.2240   23.1650 C.3   201  ARG201      0.0307
    120  CG         5.2660   29.6490   22.6150 C.3   201  ARG201      0.0489
    121  CD         6.7270   30.0920   22.3900 C.3   201  ARG201      0.2205
    122  NE         7.4730   29.1710   21.5430 N.pl3 201  ARG201     -0.0865
    123  CZ         7.4560   29.2180   20.2140 C.cat 201  ARG201      0.5346
    124  NH1        6.7110   30.1320   19.6060 N.pl3 201  ARG201      0.1354
    125  NH2        8.1600   28.3500   19.4850 N.pl3 201  ARG201      0.1354
    126  N          3.9180   22.6700   23.0490 N.3   203  GLY203     -0.1225
    127  CA         4.7380   22.0160   22.0250 C.3   203  GLY203      0.1811
    128  C          5.0600   20.5670   22.3100 C.2   203  GLY203      0.2280
    129  O          4.9530   20.0870   23.4480 O.2   203  GLY203     -0.2866
    130  N          4.8480   19.7600   26.1990 N.3   219  GLU219     -0.1245
    131  CA         5.4020   20.7320   27.1420 C.3   219  GLU219      0.1567
    132  C          4.5040   21.9580   27.0420 C.2   219  GLU219      0.2260
    133  O          4.1230   22.3460   25.9540 O.2   219  GLU219     -0.2867
    134  CB         6.8600   21.0900   26.8000 C.3   219  GLU219      0.0388
    135  CG         7.0340   21.7870   25.4670 C.3   219  GLU219      0.1160
    136  CD         8.5140   22.1180   25.1110 C.2   219  GLU219      0.3649
    137  OE1        9.4540   21.6920   25.8230 O.co2 219  GLU219     -0.2457
    138  OE2        8.7240   22.8120   24.0840 O.co2 219  GLU219     -0.2457
    139  N          8.5340   25.3750   30.7970 N.3   234  PHE234     -0.1241
    140  CA         7.9500   24.3820   29.8680 C.3   234  PHE234      0.1605
    141  C          7.5170   23.0980   30.6240 C.2   234  PHE234      0.2264
    142  O          7.9430   21.9660   30.3100 O.2   234  PHE234     -0.2867
    143  CB         8.9710   24.0470   28.7450 C.3   234  PHE234      0.0534
    144  CG         9.3050   25.2220   27.8550 C.ar  234  PHE234     -0.0203
    145  CD1        8.6960   25.3650   26.6110 C.ar  234  PHE234     -0.0042
    146  CD2       10.2190   26.1700   28.2600 C.ar  234  PHE234     -0.0042
    147  CE1        8.9960   26.4540   25.7950 C.ar  234  PHE234     -0.0003
    148  CE2       10.5340   27.2710   27.4380 C.ar  234  PHE234     -0.0003
    149  CZ         9.9140   27.4000   26.2120 C.ar  234  PHE234     -0.0000
    150  N         10.4770   19.2320   26.4950 N.3   266  SER266     -0.1217
    151  CA        10.5340   18.1460   25.5220 C.3   266  SER266      0.1889
    152  C         10.2330   16.7120   26.0370 C.2   266  SER266      0.2288
    153  O         11.0930   15.8290   26.0680 O.2   266  SER266     -0.2866
    154  CB        11.8800   18.2260   24.8140 C.3   266  SER266      0.2089
    155  OG        12.9220   17.9880   25.7600 O.3   266  SER266     -0.2183
    156  N         17.8230   16.3950   25.4480 N.3   314  TYR314     -0.1241
    157  CA        16.6770   17.0320   24.7330 C.3   314  TYR314      0.1605
    158  C         15.8250   15.9970   24.0090 C.2   314  TYR314      0.2264
    159  O         16.3380   15.1650   23.2150 O.2   314  TYR314     -0.2867
    160  CB        17.1870   18.0440   23.7090 C.3   314  TYR314      0.0534
    161  CG        16.0910   18.8350   23.0420 C.ar  314  TYR314     -0.0201
    162  CD1       15.3250   19.7220   23.7830 C.ar  314  TYR314     -0.0009
    163  CD2       15.8550   18.7280   21.6720 C.ar  314  TYR314     -0.0009
    164  CE1       14.3250   20.4880   23.2070 C.ar  314  TYR314      0.0417
    165  CE2       14.8470   19.5110   21.0630 C.ar  314  TYR314      0.0417
    166  CZ        14.0970   20.3810   21.8420 C.ar  314  TYR314      0.1957
    167  OH        13.1060   21.1510   21.2710 O.3   314  TYR314     -0.2866
    168  N         20.6310   20.6720   23.6760 N.3   334  LEU334     -0.1231
    169  CA        20.4900   21.8020   22.7470 C.3   334  LEU334      0.1678
    170  C         21.8130   22.5540   22.6800 C.2   334  LEU334      0.2434
    171  O         22.5500   22.5870   23.6770 O.2   334  LEU334     -0.2733
    172  CB        19.3970   22.7590   23.2660 C.3   334  LEU334      0.0284
    173  CG        17.9480   22.2630   23.1080 C.3   334  LEU334      0.0019
    174  CD1       16.9850   23.0260   24.0520 C.3   334  LEU334      0.0001
    175  CD2       17.4700   22.3700   21.6720 C.3   334  LEU334      0.0001
    176  N         22.1240   23.1670   21.5210 N.am  335  PRO335     -0.2729
    177  CA        23.3490   23.9770   21.4040 C.3   335  PRO335      0.1401
    178  C         23.1430   25.1930   22.2860 C.2   335  PRO335      0.2269
    179  O         21.9920   25.6070   22.4760 O.2   335  PRO335     -0.2865
    180  CB        23.3330   24.4030   19.9490 C.3   335  PRO335      0.0296
    181  CG        21.8070   24.4380   19.6040 C.3   335  PRO335      0.0237
    182  CD        21.2620   23.2420   20.3240 C.3   335  PRO335      0.0939
@<TRIPOS>BOND
     1    63    64    1
     2    42    43    1
     3    32    33    2
     4    32    31    1
     5    67    64    1
     6    64    65    1
     7    45    44    2
     8    31    30    1
     9    31    34    1
    10    43    44    1
    11    43    46    1
    12    44    54   am
    13    46    47    1
    14    65    66    2
    15    65    68   am
    16    47    48   ar
    17    47    49   ar
    18    48    50   ar
    19    34    35    1
    20    49    51   ar
    21    50    52   ar
    22    51    52   ar
    23    52    53    1
    24    57    56    2
    25    83    84    1
    26    36    35   ar
    27    36    38   ar
    28    23    22    1
    29    23    24    2
    30    68    69    1
    31    74    73    1
    32    35    37   ar
    33    56    55    1
    34    22    25    1
    35    22    21    1
    36    54    55    1
    37    73    75    1
    38    73    72    1
    39    84    85    1
    40    84    87    1
    41    38    40   ar
    42    61    60    2
    43    95    93   ar
    44    95    96   ar
    45    55    58    1
    46    25    26    1
    47    37    39   ar
    48    85    97   am
    49    85    86    2
    50    26    27    1
    51    93    90   ar
    52    72    69    1
    53    58    59    1
    54    97    98    1
    55    96    94   ar
    56    69    70    1
    57    40    39   ar
    58    40    41    1
    59    60    62   am
    60    60    59    1
    61    90    88   ar
    62    90    92   ar
    63    87    88    1
    64    94    92   ar
    65    71    70    2
    66    88    89   ar
    67    27    29   ar
    68    27    28   ar
    69    99    98    1
    70    99   100    2
    71    92    91   ar
    72    98   101    1
    73    70    76   am
    74    89    91   ar
    75    76    82    1
    76    76    77    1
    77   101   102    1
    78     4     3    2
    79    12    11    2
    80   102   103    1
    81    16    18   ar
    82    16    14   ar
    83    18    19   ar
    84    82    81    1
    85    13    14    1
    86    13    10    1
    87     1     2    1
    88    14    15   ar
    89    19    20    1
    90    19    17   ar
    91    77    78    1
    92    77    80    1
    93    17    15   ar
    94     3     2    1
    95     3     9   am
    96    11    10    1
    97   113   112    2
    98    78    79    2
    99   103   104   ar
   100   103   105   ar
   101     5     2    1
   102     5     6    1
   103    10     9    1
   104   111   112    1
   105   111   110    1
   106    80    81    1
   107   112   114   am
   108   107   110    1
   109   107   108    1
   110   107   106    1
   111     8     6    1
   112   125   123    1
   113   108   109    2
   114     6     7    1
   115   181   180    1
   116   181   182    1
   117   124   123    1
   118   180   177    1
   119   123   122    2
   120   182   176    1
   121   165   163   ar
   122   165   166   ar
   123   167   166    1
   124   177   176    1
   125   177   178    1
   126   176   170   am
   127   122   121    1
   128   175   173    1
   129   163   161   ar
   130   166   164   ar
   131   127   128    1
   132   127   126    1
   133   178   179    2
   134   128   129    2
   135   121   120    1
   136   120   119    1
   137   170   169    1
   138   170   171    2
   139   169   172    1
   140   169   168    1
   141   161   160    1
   142   161   162   ar
   143   173   172    1
   144   173   174    1
   145   119   116    1
   146   164   162   ar
   147   159   158    2
   148   116   117    1
   149   116   115    1
   150   160   157    1
   151   117   118    2
   152   158   157    1
   153   138   136   ar
   154   157   156    1
   155   154   151    1
   156   154   155    1
   157   136   135    1
   158   136   137   ar
   159   135   134    1
   160   151   152    1
   161   151   150    1
   162   147   149   ar
   163   147   145   ar
   164   133   132    2
   165   152   153    2
   166   130   131    1
   167   149   148   ar
   168   145   144   ar
   169   134   131    1
   170   132   131    1
   171   148   146   ar
   172   144   146   ar
   173   144   143    1
   174   143   140    1
   175   140   141    1
   176   140   139    1
   177   142   141    2
