@<TRIPOS>MOLECULE
tmp/2w5sA00.pdb
 130 126 0 0 0
SMALL
GASTEIGER

@<TRIPOS>ATOM
      1  N          9.5610   53.8760   30.5470 N.3    38  GLU38      -0.1245
      2  CA         8.2880   54.0800   31.2430 C.3    38  GLU38       0.1567
      3  C          7.9200   55.5820   31.2410 C.2    38  GLU38       0.2260
      4  O          8.7470   56.4200   31.6330 O.2    38  GLU38      -0.2867
      5  CB         8.3940   53.5980   32.7040 C.3    38  GLU38       0.0388
      6  CG         7.1330   53.8380   33.5230 C.3    38  GLU38       0.1160
      7  CD         5.8730   53.3060   32.8010 C.2    38  GLU38       0.3649
      8  OE1        5.8030   52.1030   32.5160 O.co2  38  GLU38      -0.2457
      9  OE2        4.9820   54.0990   32.4990 O.co2  38  GLU38      -0.2457
     10  N         -2.2960   51.1250   29.3440 N.3    82  LYS82      -0.1231
     11  CA        -0.9890   51.7840   29.6040 C.3    82  LYS82       0.1693
     12  C          0.2100   50.9900   29.0460 C.2    82  LYS82       0.2592
     13  O          0.2620   50.8030   27.8430 O.2    82  LYS82      -0.2718
     14  CB        -0.8300   52.1550   31.0940 C.3    82  LYS82       0.0285
     15  CG        -1.9570   53.0390   31.6070 C.3    82  LYS82       0.0035
     16  CD        -1.7370   54.4460   31.1080 C.3    82  LYS82       0.0206
     17  CE        -2.9990   55.2160   31.1480 C.3    82  LYS82       0.1093
     18  NZ        -2.6750   56.5210   30.4960 N.3    82  LYS82      -0.1314
     19  N          1.1700   50.5590   29.8830 N.am   83  THR83      -0.1953
     20  CA         2.3050   49.7080   29.4040 C.3    83  THR83       0.1897
     21  C          1.8690   48.4780   28.5720 C.2    83  THR83       0.2313
     22  O          2.4570   48.1810   27.5480 O.2    83  THR83      -0.2863
     23  CB         3.2020   49.1770   30.5680 C.3    83  THR83       0.1794
     24  OG1        3.6110   50.2730   31.3460 O.3    83  THR83      -0.2208
     25  CG2        4.5150   48.4410   30.0350 C.3    83  THR83       0.0378
     26  N         11.7530   42.3650   33.4630 N.3   130  HIS130     -0.1241
     27  CA        10.9740   43.4030   34.1290 C.3   130  HIS130      0.1621
     28  C         11.0650   43.2390   35.6360 C.2   130  HIS130      0.2264
     29  O         10.9660   42.1070   36.1480 O.2   130  HIS130     -0.2867
     30  CB         9.5020   43.3330   33.6890 C.3   130  HIS130      0.0745
     31  CG         8.6660   44.4800   34.1840 C.ar  130  HIS130      0.0817
     32  ND1        9.0790   45.7950   34.1040 N.ar  130  HIS130     -0.2268
     33  CD2        7.4220   44.5090   34.7240 C.ar  130  HIS130      0.1154
     34  CE1        8.1460   46.5820   34.6130 C.ar  130  HIS130      0.1986
     35  NE2        7.1250   45.8260   34.9860 N.ar  130  HIS130     -0.2212
     36  N          8.9830   43.7210   38.0310 N.3   132  ASP132     -0.1239
     37  CA         7.7400   43.5100   38.7770 C.3   132  ASP132      0.1674
     38  C          7.4010   42.0400   38.5930 C.2   132  ASP132      0.2266
     39  O          8.0200   41.3650   37.7650 O.2   132  ASP132     -0.2867
     40  CB         6.6510   44.4160   38.2000 C.3   132  ASP132      0.1410
     41  CG         5.4100   44.5870   39.1150 C.2   132  ASP132      0.3668
     42  OD1        5.3200   44.0170   40.2390 O.co2 132  ASP132     -0.2456
     43  OD2        4.4970   45.3250   38.6530 O.co2 132  ASP132     -0.2456
     44  N          1.3230   40.6050   37.0230 N.3   136  PHE136     -0.1227
     45  CA         0.8300   41.9800   36.7720 C.3   136  PHE136      0.1736
     46  C          0.5270   42.2280   35.2630 C.2   136  PHE136      0.2595
     47  O          1.3040   41.8250   34.3920 O.2   136  PHE136     -0.2718
     48  CB         1.7320   43.0750   37.3420 C.3   136  PHE136      0.0547
     49  CG         0.9830   44.3520   37.5100 C.ar  136  PHE136     -0.0202
     50  CD1        0.1100   44.5010   38.5760 C.ar  136  PHE136     -0.0042
     51  CD2        1.0070   45.3190   36.5200 C.ar  136  PHE136     -0.0042
     52  CE1       -0.6620   45.6340   38.7000 C.ar  136  PHE136     -0.0003
     53  CE2        0.2400   46.4500   36.6310 C.ar  136  PHE136     -0.0003
     54  CZ        -0.5940   46.6100   37.7220 C.ar  136  PHE136     -0.0000
     55  N         -0.6110   42.8810   34.9790 N.am  137  TRP137     -0.1976
     56  CA        -1.1520   43.0430   33.6140 C.3   137  TRP137      0.1640
     57  C         -1.3020   41.6860   32.9210 C.2   137  TRP137      0.2290
     58  O         -1.2170   41.6410   31.6940 O.2   137  TRP137     -0.2864
     59  CB        -0.2540   43.9600   32.7150 C.3   137  TRP137      0.0576
     60  CG        -0.4470   45.4460   32.8530 C.ar  137  TRP137      0.0006
     61  CD1        0.5430   46.4120   32.9290 C.ar  137  TRP137      0.0946
     62  CD2       -1.6960   46.1550   32.8950 C.ar  137  TRP137      0.0152
     63  NE1       -0.0270   47.6710   33.0140 N.ar  137  TRP137     -0.2442
     64  CE2       -1.3910   47.5430   33.0160 C.ar  137  TRP137      0.0810
     65  CE3       -3.0470   45.7560   32.8640 C.ar  137  TRP137      0.0012
     66  CZ2       -2.3980   48.5390   33.1020 C.ar  137  TRP137      0.0191
     67  CZ3       -4.0570   46.7580   32.9570 C.ar  137  TRP137      0.0001
     68  CH2       -3.7180   48.1250   33.0650 C.ar  137  TRP137      0.0015
     69  N          0.6700   39.3240   32.3570 N.3   139  ARG139     -0.1245
     70  CA         1.7410   39.0920   31.3650 C.3   139  ARG139      0.1563
     71  C          2.0750   37.5940   31.2940 C.2   139  ARG139      0.2260
     72  O          2.3700   37.0630   30.2390 O.2   139  ARG139     -0.2867
     73  CB         3.0060   39.8770   31.7040 C.3   139  ARG139      0.0307
     74  CG         2.8760   41.4040   31.3870 C.3   139  ARG139      0.0489
     75  CD         4.1130   42.1250   31.8840 C.3   139  ARG139      0.2205
     76  NE         4.1160   43.5550   31.5320 N.pl3 139  ARG139     -0.0865
     77  CZ         4.1510   44.5530   32.4030 C.cat 139  ARG139      0.5346
     78  NH1        4.1680   44.3160   33.7030 N.pl3 139  ARG139      0.1354
     79  NH2        4.1390   45.8080   31.9670 N.pl3 139  ARG139      0.1354
     80  N          6.9780   51.1440   42.6110 N.3   167  LEU167     -0.1245
     81  CA         6.3460   49.8730   42.2330 C.3   167  LEU167      0.1561
     82  C          7.2360   48.6550   42.3830 C.2   167  LEU167      0.2260
     83  O          6.7430   47.5280   42.3470 O.2   167  LEU167     -0.2867
     84  CB         5.8520   49.9030   40.7640 C.3   167  LEU167      0.0270
     85  CG         4.7530   50.8910   40.3310 C.3   167  LEU167      0.0019
     86  CD1        4.3080   50.6410   38.8690 C.3   167  LEU167      0.0001
     87  CD2        3.5870   50.7810   41.2900 C.3   167  LEU167      0.0001
     88  N         11.7250   46.1600   30.1790 N.3   194  ILE194     -0.1231
     89  CA        10.6500   47.0600   30.5640 C.3   194  ILE194      0.1692
     90  C         11.0760   47.7130   31.8780 C.2   194  ILE194      0.2593
     91  O         11.2780   47.0170   32.8800 O.2   194  ILE194     -0.2718
     92  CB         9.3280   46.3010   30.7170 C.3   194  ILE194      0.0266
     93  CG1        8.9540   45.6190   29.3730 C.3   194  ILE194      0.0019
     94  CG2        8.1820   47.2450   31.1460 C.3   194  ILE194      0.0020
     95  CD1        7.7040   44.6810   29.4930 C.3   194  ILE194      0.0001
     96  N         11.1970   49.0350   31.8750 N.am  195  THR195     -0.1939
     97  CA        11.6300   49.7740   33.0970 C.3   195  THR195      0.2028
     98  C         10.3990   50.1100   33.9780 C.2   195  THR195      0.2642
     99  O          9.2420   49.7770   33.5850 O.2   195  THR195     -0.2714
    100  CB        12.4310   51.0570   32.7330 C.3   195  THR195      0.1808
    101  OG1       11.6090   51.8750   31.8890 O.3   195  THR195     -0.2208
    102  CG2       13.7550   50.6990   31.9620 C.3   195  THR195      0.0379
    103  N         10.6430   50.7900   35.1100 N.am  196  LEU196     -0.1977
    104  CA         9.6760   50.9110   36.1950 C.3   196  LEU196      0.1596
    105  C          9.7540   52.1990   37.0290 C.2   196  LEU196      0.2287
    106  O          8.7420   52.6330   37.5720 O.2   196  LEU196     -0.2864
    107  CB         9.8720   49.7170   37.1480 C.3   196  LEU196      0.0297
    108  CG         8.7440   49.1800   38.0210 C.3   196  LEU196      0.0022
    109  CD1        7.4760   48.8940   37.2060 C.3   196  LEU196      0.0001
    110  CD2        9.2170   47.9130   38.7960 C.3   196  LEU196      0.0001
    111  N          7.6720   56.2860   36.8900 N.3   199  HIS199     -0.1241
    112  CA         6.2540   55.9020   36.9310 C.3   199  HIS199      0.1621
    113  C          5.5860   56.7640   37.9920 C.2   199  HIS199      0.2264
    114  O          6.1710   56.9900   39.0510 O.2   199  HIS199     -0.2867
    115  CB         6.1060   54.4210   37.3050 C.3   199  HIS199      0.0745
    116  CG         4.7120   53.8880   37.1640 C.ar  199  HIS199      0.0817
    117  ND1        3.6890   54.2240   38.0280 N.ar  199  HIS199     -0.2268
    118  CD2        4.1800   53.0060   36.2800 C.ar  199  HIS199      0.1154
    119  CE1        2.5760   53.6080   37.6600 C.ar  199  HIS199      0.1986
    120  NE2        2.8460   52.8620   36.6010 N.ar  199  HIS199     -0.2212
    121  N          4.0670   55.5710   26.6920 N.3   259  HIS259     -0.1241
    122  CA         2.8870   56.4500   26.6490 C.3   259  HIS259      0.1621
    123  C          3.2190   57.6950   27.4800 C.2   259  HIS259      0.2264
    124  O          4.2670   57.7680   28.1210 O.2   259  HIS259     -0.2867
    125  CB         1.6400   55.7290   27.2180 C.3   259  HIS259      0.0745
    126  CG         1.8710   55.1490   28.5840 C.ar  259  HIS259      0.0817
    127  ND1        1.9410   55.9280   29.7230 N.ar  259  HIS259     -0.2268
    128  CD2        2.1260   53.8780   28.9810 C.ar  259  HIS259      0.1154
    129  CE1        2.2120   55.1600   30.7680 C.ar  259  HIS259      0.1986
    130  NE2        2.3420   53.9150   30.3430 N.ar  259  HIS259     -0.2212
@<TRIPOS>BOND
     1   122   121    1
     2   122   125    1
     3   122   123    1
     4   125   126    1
     5   123   124    2
     6    22    21    2
     7    13    12    2
     8    21    20    1
     9   126   128   ar
    10   126   127   ar
    11   128   130   ar
    12    12    11    1
    13    12    19   am
    14    10    11    1
    15    93    95    1
    16    93    92    1
    17    20    19    1
    18    20    23    1
    19    11    14    1
    20   127   129   ar
    21    25    23    1
    22    88    89    1
    23    72    71    2
    24   130   129   ar
    25    18    17    1
    26     1     2    1
    27    89    92    1
    28    89    90    1
    29    23    24    1
    30    92    94    1
    31    14    15    1
    32    16    17    1
    33    16    15    1
    34     3     2    1
    35     3     4    2
    36     2     5    1
    37    71    70    1
    38    70    73    1
    39    70    69    1
    40    74    73    1
    41    74    75    1
    42    76    75    1
    43    76    77    2
    44    58    57    2
    45    96    90   am
    46    96    97    1
    47    90    91    2
    48   101   100    1
    49   102   100    1
    50    79    77    1
    51    77    78    1
    52     9     7   ar
    53     8     7   ar
    54     5     6    1
    55    59    60    1
    56    59    56    1
    57   100    97    1
    58     7     6    1
    59    60    62   ar
    60    60    61   ar
    61    65    62   ar
    62    65    67   ar
    63    62    64   ar
    64    57    56    1
    65    61    63   ar
    66    67    68   ar
    67    63    64   ar
    68    64    66   ar
    69    68    66   ar
    70    97    98    1
    71    26    27    1
    72    99    98    2
    73    56    55    1
    74    30    27    1
    75    30    31    1
    76    98   103   am
    77    32    31   ar
    78    32    34   ar
    79    27    28    1
    80    31    33   ar
    81    47    46    2
    82    34    35   ar
    83    33    35   ar
    84    55    46   am
    85   103   104    1
    86    46    45    1
    87    28    29    2
    88   104   105    1
    89   104   107    1
    90   118   120   ar
    91   118   116   ar
    92    51    53   ar
    93    51    49   ar
    94   120   119   ar
    95    53    54   ar
    96    45    44    1
    97    45    48    1
    98   111   112    1
    99   112   115    1
   100   112   113    1
   101   105   106    2
   102   107   108    1
   103   116   115    1
   104   116   117   ar
   105   109   108    1
   106    48    49    1
   107    49    50   ar
   108   119   117   ar
   109    54    52   ar
   110    39    38    2
   111   113   114    2
   112   108   110    1
   113    36    37    1
   114    40    37    1
   115    40    41    1
   116    50    52   ar
   117    38    37    1
   118    43    41   ar
   119    86    85    1
   120    41    42   ar
   121    85    84    1
   122    85    87    1
   123    84    81    1
   124    81    82    1
   125    81    80    1
   126    83    82    2
