@<TRIPOS>MOLECULE
tmp/2w5uA01.pdb
 80 77 0 0 0
SMALL
GASTEIGER

@<TRIPOS>ATOM
      1  N         17.4710    6.1470   37.9100 N.3    10  ASP10      -0.1239
      2  CA        18.8160    6.4780   38.2990 C.3    10  ASP10       0.1674
      3  C         19.1890    7.8800   37.8460 C.2    10  ASP10       0.2266
      4  O         20.1300    8.4540   38.3560 O.2    10  ASP10      -0.2867
      5  CB        19.7870    5.4500   37.7130 C.3    10  ASP10       0.1410
      6  CG        19.7890    4.1330   38.4810 C.2    10  ASP10       0.3668
      7  OD1       19.2090    4.0510   39.5940 O.co2  10  ASP10      -0.2456
      8  OD2       20.3690    3.1270   38.0200 O.co2  10  ASP10      -0.2456
      9  N         16.2720    0.2400   31.7830 N.3    53  THR53      -0.1203
     10  CA        17.0480   -0.9750   31.6050 C.3    53  THR53       0.1994
     11  C         18.4710   -0.8210   32.1530 C.2    53  THR53       0.2618
     12  O         19.0990    0.2160   31.9430 O.2    53  THR53      -0.2717
     13  CB        17.0980   -1.3650   30.1280 C.3    53  THR53       0.1784
     14  OG1       15.7590   -1.5080   29.6260 O.3    53  THR53      -0.2211
     15  CG2       17.7160   -2.7490   29.9890 C.3    53  THR53       0.0376
     16  N         18.9580   -1.8430   32.8660 N.am   54  ALA54      -0.1965
     17  CA        20.3440   -1.8690   33.3570 C.3    54  ALA54       0.1728
     18  C         21.2300   -2.9400   32.6720 C.2    54  ALA54       0.2617
     19  O         20.8370   -3.5500   31.6570 O.2    54  ALA54      -0.2715
     20  CB        20.3580   -2.0600   34.8510 C.3    54  ALA54       0.0334
     21  N         22.4240   -3.1570   33.2350 N.am   55  GLY55      -0.1940
     22  CA        23.3600   -4.1790   32.7670 C.3    55  GLY55       0.2014
     23  C         22.7110   -5.4690   32.2850 C.2    55  GLY55       0.2639
     24  O         21.7860   -5.9890   32.9240 O.2    55  GLY55      -0.2714
     25  N         23.1790   -5.9730   31.1440 N.am   56  ALA56      -0.1963
     26  CA        22.6510   -7.2120   30.5470 C.3    56  ALA56       0.1728
     27  C         21.1260   -7.2120   30.3120 C.2    56  ALA56       0.2616
     28  O         20.4690   -8.2440   30.4620 O.2    56  ALA56      -0.2715
     29  CB        23.0580   -8.4280   31.3930 C.3    56  ALA56       0.0334
     30  N         20.5670   -6.0600   29.9430 N.am   57  GLY57      -0.1955
     31  CA        19.1310   -5.9510   29.7510 C.3    57  GLY57       0.1869
     32  C         18.3310   -6.1700   31.0280 C.2    57  GLY57       0.2309
     33  O         17.1040   -6.3680   30.9840 O.2    57  GLY57      -0.2863
     34  N         15.0600    3.1100   27.4700 N.3    86  GLY86      -0.1210
     35  CA        16.2280    2.4270   26.9490 C.3    86  GLY86       0.1956
     36  C         17.0570    3.1800   25.9200 C.2    86  GLY86       0.2611
     37  O         16.6520    4.2310   25.4210 O.2    86  GLY86      -0.2717
     38  N         18.2250    2.6210   25.5970 N.am   87  ASP87      -0.1973
     39  CA        19.1460    3.1960   24.6140 C.3    87  ASP87       0.1709
     40  C         19.4160    2.2190   23.4630 C.2    87  ASP87       0.2293
     41  O         20.2220    1.2890   23.6180 O.2    87  ASP87      -0.2864
     42  CB        20.4720    3.5340   25.2870 C.3    87  ASP87       0.1436
     43  CG        21.3760    4.3710   24.4070 C.2    87  ASP87       0.3671
     44  OD1       21.3500    4.1940   23.1630 O.co2  87  ASP87      -0.2456
     45  OD2       22.1490    5.2210   24.9070 O.co2  87  ASP87      -0.2456
     46  N         23.2700    0.1060   23.1350 N.3    91  TYR91      -0.1241
     47  CA        23.0010   -1.2870   23.5000 C.3    91  TYR91       0.1605
     48  C         22.0920   -1.9620   22.4750 C.2    91  TYR91       0.2264
     49  O         20.9110   -2.1830   22.7280 O.2    91  TYR91      -0.2867
     50  CB        22.3700   -1.3770   24.8990 C.3    91  TYR91       0.0534
     51  CG        23.0690   -0.5620   25.9660 C.ar   91  TYR91      -0.0201
     52  CD1       24.1390   -1.0920   26.6930 C.ar   91  TYR91      -0.0009
     53  CD2       22.6720    0.7410   26.2350 C.ar   91  TYR91      -0.0009
     54  CE1       24.7860   -0.3460   27.6740 C.ar   91  TYR91       0.0417
     55  CE2       23.3110    1.4920   27.2030 C.ar   91  TYR91       0.0417
     56  CZ        24.3600    0.9450   27.9230 C.ar   91  TYR91       0.1957
     57  OH        24.9660    1.7090   28.8880 O.3    91  TYR91      -0.2866
     58  N         20.5730   -5.5220   23.3810 N.3    94  THR94      -0.1203
     59  CA        19.7010   -5.5060   24.5600 C.3    94  THR94       0.1994
     60  C         19.0440   -4.1400   24.6420 C.2    94  THR94       0.2618
     61  O         19.6410   -3.2180   25.1750 O.2    94  THR94      -0.2717
     62  CB        20.5170   -5.7600   25.8830 C.3    94  THR94       0.1784
     63  OG1       21.5510   -4.7710   26.0270 O.3    94  THR94      -0.2211
     64  CG2       21.2470   -7.1060   25.8530 C.3    94  THR94       0.0376
     65  N         17.8410   -3.9840   24.1090 N.am   95  PHE95      -0.1961
     66  CA        17.2320   -2.6570   24.0740 C.3    95  PHE95       0.1771
     67  C         15.9020   -2.6410   24.7930 C.2    95  PHE95       0.2619
     68  O         14.9790   -3.3610   24.4100 O.2    95  PHE95      -0.2715
     69  CB        17.0940   -2.1670   22.6250 C.3    95  PHE95       0.0574
     70  CG        16.3190   -0.8900   22.4800 C.ar   95  PHE95      -0.0200
     71  CD1       16.6540    0.2380   23.2240 C.ar   95  PHE95      -0.0042
     72  CD2       15.2440   -0.8130   21.6050 C.ar   95  PHE95      -0.0042
     73  CE1       15.9320    1.4310   23.0980 C.ar   95  PHE95      -0.0003
     74  CE2       14.5180    0.3790   21.4700 C.ar   95  PHE95      -0.0003
     75  CZ        14.8700    1.4950   22.2230 C.ar   95  PHE95      -0.0000
     76  N         15.8190   -1.8090   25.8340 N.am   96  ALA96      -0.1977
     77  CA        14.6340   -1.6780   26.6860 C.3    96  ALA96       0.1597
     78  C         14.1490   -3.0460   27.1690 C.2    96  ALA96       0.2287
     79  O         12.9320   -3.2930   27.2520 O.2    96  ALA96      -0.2864
     80  CB        13.5160   -0.9450   25.9480 C.3    96  ALA96       0.0319
@<TRIPOS>BOND
     1    74    72   ar
     2    74    75   ar
     3    72    70   ar
     4    75    73   ar
     5    48    49    2
     6    48    47    1
     7    70    69    1
     8    70    71   ar
     9    69    66    1
    10    73    71   ar
    11    46    47    1
    12    44    43   ar
    13    58    59    1
    14    40    41    2
    15    40    39    1
    16    47    50    1
    17    66    65    1
    18    66    67    1
    19    65    60   am
    20    43    45   ar
    21    43    42    1
    22    68    67    2
    23    59    60    1
    24    59    62    1
    25    39    42    1
    26    39    38    1
    27    60    61    2
    28    67    76   am
    29    50    51    1
    30    37    36    2
    31    38    36   am
    32    76    77    1
    33    64    62    1
    34    62    63    1
    35    36    35    1
    36    80    77    1
    37    51    53   ar
    38    51    52   ar
    39    53    55   ar
    40    77    78    1
    41    52    54   ar
    42    35    34    1
    43    78    79    2
    44    55    56   ar
    45    54    56   ar
    46    56    57    1
    47    14    13    1
    48    31    30    1
    49    31    32    1
    50    30    27   am
    51    15    13    1
    52    13    10    1
    53    27    28    2
    54    27    26    1
    55    26    25    1
    56    26    29    1
    57    33    32    2
    58    25    23   am
    59    10     9    1
    60    10    11    1
    61    19    18    2
    62    12    11    2
    63    11    16   am
    64    23    22    1
    65    23    24    2
    66    18    21   am
    67    18    17    1
    68    22    21    1
    69    16    17    1
    70    17    20    1
    71     5     2    1
    72     5     6    1
    73     3     2    1
    74     3     4    2
    75     1     2    1
    76     8     6   ar
    77     6     7   ar
