@<TRIPOS>MOLECULE
tmp/2w5uA00.pdb
 138 134 0 0 0
SMALL
GASTEIGER

@<TRIPOS>ATOM
      1  N         14.3460    4.7540   39.0540 N.3     9  THR9       -0.1203
      2  CA        15.1600    5.6220   38.2070 C.3     9  THR9        0.1994
      3  C         16.5180    5.9130   38.7980 C.2     9  THR9        0.2618
      4  O         16.6980    5.9360   40.0160 O.2     9  THR9       -0.2717
      5  CB        14.4270    6.9630   37.8800 C.3     9  THR9        0.1784
      6  OG1       15.1950    7.7130   36.9390 O.3     9  THR9       -0.2211
      7  CG2       14.3150    7.8690   39.1210 C.3     9  THR9        0.0376
      8  N         17.4710    6.1470   37.9100 N.am   10  ASP10      -0.1959
      9  CA        18.8160    6.4780   38.2990 C.3    10  ASP10       0.1840
     10  C         19.1890    7.8800   37.8460 C.2    10  ASP10       0.2622
     11  O         20.1300    8.4540   38.3560 O.2    10  ASP10      -0.2715
     12  CB        19.7870    5.4500   37.7130 C.3    10  ASP10       0.1450
     13  CG        19.7890    4.1330   38.4810 C.2    10  ASP10       0.3671
     14  OD1       19.2090    4.0510   39.5940 O.co2  10  ASP10      -0.2456
     15  OD2       20.3690    3.1270   38.0200 O.co2  10  ASP10      -0.2456
     16  N         18.4470    8.4270   36.8900 N.am   11  SER11      -0.1950
     17  CA        18.7070    9.7710   36.3770 C.3    11  SER11       0.1924
     18  C         17.4110   10.5480   36.2020 C.2    11  SER11       0.2314
     19  O         17.4190   11.7140   35.7740 O.2    11  SER11      -0.2863
     20  CB        19.4380    9.7170   35.0340 C.3    11  SER11       0.2116
     21  OG        20.5630    8.8640   35.0810 O.3    11  SER11      -0.2180
     22  N         14.8680    9.8380   34.1840 N.3    13  ASN13      -0.1225
     23  CA        14.1720    9.6500   32.9190 C.3    13  ASN13       0.1785
     24  C         12.8410    8.9970   33.1730 C.2    13  ASN13       0.2597
     25  O         11.8120    9.5480   32.8050 O.2    13  ASN13      -0.2718
     26  CB        14.9920    8.8110   31.9550 C.3    13  ASN13       0.1169
     27  CG        16.1220    9.5850   31.3610 C.2    13  ASN13       0.2627
     28  OD1       17.1780    9.0320   31.0660 O.2    13  ASN13      -0.2716
     29  ND2       15.9220   10.8830   31.1930 N.am   13  ASN13      -0.0877
     30  N         12.8740    7.8470   33.8480 N.am   14  ALA14      -0.1979
     31  CA        11.6690    7.0690   34.1400 C.3    14  ALA14       0.1597
     32  C         10.6620    7.9140   34.9100 C.2    14  ALA14       0.2287
     33  O          9.4790    7.9680   34.5550 O.2    14  ALA14      -0.2864
     34  CB        12.0200    5.7880   34.9150 C.3    14  ALA14       0.0319
     35  N         13.4250    1.5900   33.6370 N.3    52  PRO52      -0.2102
     36  CA        14.6310    1.6950   32.8320 C.3    52  PRO52       0.1504
     37  C         15.3990    0.3670   32.7830 C.2    52  PRO52       0.2576
     38  O         15.1790   -0.5300   33.6280 O.2    52  PRO52      -0.2718
     39  CB        15.4120    2.8040   33.5350 C.3    52  PRO52       0.0282
     40  CG        14.9900    2.7180   34.9090 C.3    52  PRO52       0.0208
     41  CD        13.5830    2.2750   34.9240 C.3    52  PRO52       0.0893
     42  N         16.2720    0.2400   31.7830 N.am   53  THR53      -0.1939
     43  CA        17.0480   -0.9750   31.6050 C.3    53  THR53       0.2028
     44  C         18.4710   -0.8210   32.1530 C.2    53  THR53       0.2642
     45  O         19.0990    0.2160   31.9430 O.2    53  THR53      -0.2714
     46  CB        17.0980   -1.3650   30.1280 C.3    53  THR53       0.1808
     47  OG1       15.7590   -1.5080   29.6260 O.3    53  THR53      -0.2208
     48  CG2       17.7160   -2.7490   29.9890 C.3    53  THR53       0.0379
     49  N         18.9580   -1.8430   32.8660 N.am   54  ALA54      -0.1963
     50  CA        20.3440   -1.8690   33.3570 C.3    54  ALA54       0.1728
     51  C         21.2300   -2.9400   32.6720 C.2    54  ALA54       0.2617
     52  O         20.8370   -3.5500   31.6570 O.2    54  ALA54      -0.2715
     53  CB        20.3580   -2.0600   34.8510 C.3    54  ALA54       0.0334
     54  N         22.4240   -3.1570   33.2350 N.am   55  GLY55      -0.1940
     55  CA        23.3600   -4.1790   32.7670 C.3    55  GLY55       0.2014
     56  C         22.7110   -5.4690   32.2850 C.2    55  GLY55       0.2639
     57  O         21.7860   -5.9890   32.9240 O.2    55  GLY55      -0.2714
     58  N         23.1790   -5.9730   31.1440 N.am   56  ALA56      -0.1963
     59  CA        22.6510   -7.2120   30.5470 C.3    56  ALA56       0.1728
     60  C         21.1260   -7.2120   30.3120 C.2    56  ALA56       0.2616
     61  O         20.4690   -8.2440   30.4620 O.2    56  ALA56      -0.2715
     62  CB        23.0580   -8.4280   31.3930 C.3    56  ALA56       0.0334
     63  N         20.5670   -6.0600   29.9430 N.am   57  GLY57      -0.1955
     64  CA        19.1310   -5.9510   29.7510 C.3    57  GLY57       0.1869
     65  C         18.3310   -6.1700   31.0280 C.2    57  GLY57       0.2309
     66  O         17.1040   -6.3680   30.9840 O.2    57  GLY57      -0.2863
     67  N         12.0910    2.3960   29.4560 N.3    85  LEU85      -0.1231
     68  CA        13.0870    3.3100   28.9080 C.3    85  LEU85       0.1696
     69  C         14.2290    2.4890   28.3090 C.2    85  LEU85       0.2632
     70  O         14.3480    1.3040   28.6100 O.2    85  LEU85      -0.2714
     71  CB        13.6210    4.2110   30.0240 C.3    85  LEU85       0.0284
     72  CG        12.6340    5.1760   30.6780 C.3    85  LEU85       0.0019
     73  CD1       12.4590    6.4060   29.8130 C.3    85  LEU85       0.0001
     74  CD2       11.2870    4.5030   30.9570 C.3    85  LEU85       0.0001
     75  N         15.0600    3.1100   27.4700 N.am   86  GLY86      -0.1718
     76  CA        16.2280    2.4270   26.9490 C.2    86  GLY86       0.1480
     77  C         17.0570    3.1800   25.9200 C.2    86  GLY86       0.2820
     78  O         16.6520    4.2310   25.4210 O.2    86  GLY86      -0.2669
     79  N         18.2250    2.6210   25.5970 N.am   87  ASP87      -0.1937
     80  CA        19.1460    3.1960   24.6140 C.3    87  ASP87       0.1712
     81  C         19.4160    2.2190   23.4630 C.2    87  ASP87       0.2293
     82  O         20.2220    1.2890   23.6180 O.2    87  ASP87      -0.2864
     83  CB        20.4720    3.5340   25.2870 C.3    87  ASP87       0.1436
     84  CG        21.3760    4.3710   24.4070 C.2    87  ASP87       0.3671
     85  OD1       21.3500    4.1940   23.1630 O.co2  87  ASP87      -0.2456
     86  OD2       22.1490    5.2210   24.9070 O.co2  87  ASP87      -0.2456
     87  N         23.2700    0.1060   23.1350 N.3    91  TYR91      -0.1241
     88  CA        23.0010   -1.2870   23.5000 C.3    91  TYR91       0.1605
     89  C         22.0920   -1.9620   22.4750 C.2    91  TYR91       0.2264
     90  O         20.9110   -2.1830   22.7280 O.2    91  TYR91      -0.2867
     91  CB        22.3700   -1.3770   24.8990 C.3    91  TYR91       0.0534
     92  CG        23.0690   -0.5620   25.9660 C.ar   91  TYR91      -0.0201
     93  CD1       24.1390   -1.0920   26.6930 C.ar   91  TYR91      -0.0009
     94  CD2       22.6720    0.7410   26.2350 C.ar   91  TYR91      -0.0009
     95  CE1       24.7860   -0.3460   27.6740 C.ar   91  TYR91       0.0417
     96  CE2       23.3110    1.4920   27.2030 C.ar   91  TYR91       0.0417
     97  CZ        24.3600    0.9450   27.9230 C.ar   91  TYR91       0.1957
     98  OH        24.9660    1.7090   28.8880 O.3    91  TYR91      -0.2866
     99  N         20.5730   -5.5220   23.3810 N.3    94  THR94      -0.1203
    100  CA        19.7010   -5.5060   24.5600 C.3    94  THR94       0.1994
    101  C         19.0440   -4.1400   24.6420 C.2    94  THR94       0.2618
    102  O         19.6410   -3.2180   25.1750 O.2    94  THR94      -0.2717
    103  CB        20.5170   -5.7600   25.8830 C.3    94  THR94       0.1784
    104  OG1       21.5510   -4.7710   26.0270 O.3    94  THR94      -0.2211
    105  CG2       21.2470   -7.1060   25.8530 C.3    94  THR94       0.0376
    106  N         17.8410   -3.9840   24.1090 N.am   95  PHE95      -0.1961
    107  CA        17.2320   -2.6570   24.0740 C.3    95  PHE95       0.1771
    108  C         15.9020   -2.6410   24.7930 C.2    95  PHE95       0.2619
    109  O         14.9790   -3.3610   24.4100 O.2    95  PHE95      -0.2715
    110  CB        17.0940   -2.1670   22.6250 C.3    95  PHE95       0.0574
    111  CG        16.3190   -0.8900   22.4800 C.ar   95  PHE95      -0.0200
    112  CD1       16.6540    0.2380   23.2240 C.ar   95  PHE95      -0.0042
    113  CD2       15.2440   -0.8130   21.6050 C.ar   95  PHE95      -0.0042
    114  CE1       15.9320    1.4310   23.0980 C.ar   95  PHE95      -0.0003
    115  CE2       14.5180    0.3790   21.4700 C.ar   95  PHE95      -0.0003
    116  CZ        14.8700    1.4950   22.2230 C.ar   95  PHE95      -0.0000
    117  N         15.8190   -1.8090   25.8340 N.am   96  ALA96      -0.1977
    118  CA        14.6340   -1.6780   26.6860 C.3    96  ALA96       0.1597
    119  C         14.1490   -3.0460   27.1690 C.2    96  ALA96       0.2287
    120  O         12.9320   -3.2930   27.2520 O.2    96  ALA96      -0.2864
    121  CB        13.5160   -0.9450   25.9480 C.3    96  ALA96       0.0319
    122  N         15.0710    8.0610   25.5740 N.3   140  GLU140     -0.1231
    123  CA        15.4240    9.4390   25.9060 C.3   140  GLU140      0.1699
    124  C         16.8300    9.8000   25.4420 C.2   140  GLU140      0.2592
    125  O         17.1320   10.9580   25.1540 O.2   140  GLU140     -0.2718
    126  CB        15.3010    9.6350   27.4130 C.3   140  GLU140      0.0402
    127  CG        13.8710    9.9190   27.8450 C.3   140  GLU140      0.1161
    128  CD        13.3790   11.2560   27.3400 C.2   140  GLU140      0.3649
    129  OE1       12.2830   11.2930   26.7580 O.co2 140  GLU140     -0.2457
    130  OE2       14.0950   12.2670   27.5130 O.co2 140  GLU140     -0.2457
    131  N         17.6850    8.7970   25.3600 N.am  141  ASP141     -0.1974
    132  CA        19.0520    9.0240   24.9350 C.3   141  ASP141      0.1709
    133  C         19.1580    9.5500   23.5090 C.2   141  ASP141      0.2293
    134  O         19.7580   10.6030   23.2890 O.2   141  ASP141     -0.2864
    135  CB        19.8750    7.7560   25.1400 C.3   141  ASP141      0.1436
    136  CG        20.0130    7.4200   26.6000 C.2   141  ASP141      0.3671
    137  OD1       20.8920    8.0280   27.2480 O.co2 141  ASP141     -0.2456
    138  OD2       19.2470    6.6030   27.1690 O.co2 141  ASP141     -0.2456
@<TRIPOS>BOND
     1   115   113   ar
     2   115   116   ar
     3   113   111   ar
     4   116   114   ar
     5    89    90    2
     6    89    88    1
     7   111   110    1
     8   111   112   ar
     9   110   107    1
    10   114   112   ar
    11    87    88    1
    12    85    84   ar
    13   134   133    2
    14    99   100    1
    15    81    82    2
    16    81    80    1
    17    88    91    1
    18   133   132    1
    19   107   106    1
    20   107   108    1
    21   106   101   am
    22    84    86   ar
    23    84    83    1
    24   109   108    2
    25   100   101    1
    26   100   103    1
    27    80    83    1
    28    80    79    1
    29   101   102    2
    30   108   117   am
    31    91    92    1
    32   132   135    1
    33   132   131    1
    34   135   136    1
    35   125   124    2
    36   131   124   am
    37    78    77    2
    38   124   123    1
    39   122   123    1
    40    79    77   am
    41   117   118    1
    42   105   103    1
    43   103   104    1
    44   123   126    1
    45    77    76    1
    46   121   118    1
    47    92    94   ar
    48    92    93   ar
    49    94    96   ar
    50   136   138   ar
    51   136   137   ar
    52   118   119    1
    53    93    95   ar
    54   129   128   ar
    55    76    75    2
    56   119   120    2
    57    96    97   ar
    58   128   130   ar
    59   128   127    1
    60   126   127    1
    61    75    69    1
    62    95    97   ar
    63    97    98    1
    64    69    70    2
    65    69    68    1
    66    68    67    1
    67    68    71    1
    68    47    46    1
    69    64    63    1
    70    64    65    1
    71    73    72    1
    72    63    60   am
    73    48    46    1
    74    71    72    1
    75    46    43    1
    76    60    61    2
    77    60    59    1
    78    59    58    1
    79    59    62    1
    80    72    74    1
    81    66    65    2
    82    28    27    2
    83    58    56   am
    84    29    27   am
    85    27    26    1
    86    43    42    1
    87    43    44    1
    88    52    51    2
    89    42    37   am
    90    45    44    2
    91    26    23    1
    92    44    49   am
    93    56    55    1
    94    56    57    2
    95    51    54   am
    96    51    50    1
    97    55    54    1
    98    37    36    1
    99    37    38    2
   100    25    24    2
   101    36    39    1
   102    36    35    1
   103    49    50    1
   104    23    24    1
   105    23    22    1
   106    24    30   am
   107    50    53    1
   108    39    40    1
   109    35    41    1
   110    30    31    1
   111    31    32    1
   112    31    34    1
   113    33    32    2
   114    40    41    1
   115    20    21    1
   116    20    17    1
   117    19    18    2
   118    18    17    1
   119    17    16    1
   120    16    10   am
   121     6     5    1
   122    12     9    1
   123    12    13    1
   124    10     9    1
   125    10    11    2
   126     5     2    1
   127     5     7    1
   128     8     9    1
   129     8     3   am
   130    15    13   ar
   131     2     3    1
   132     2     1    1
   133    13    14   ar
   134     3     4    2
