@<TRIPOS>MOLECULE
tmp/2w5zA01.pdb
 159 159 0 0 0
SMALL
GASTEIGER

@<TRIPOS>ATOM
      1  N        -12.7910   27.2250  -22.3030 N.3    49  ILE49      -0.1231
      2  CA       -13.4130   26.1570  -23.0810 C.3    49  ILE49       0.1692
      3  C        -14.8100   25.8810  -22.5460 C.2    49  ILE49       0.2592
      4  O        -15.8020   26.0240  -23.2680 O.2    49  ILE49      -0.2718
      5  CB       -12.5570   24.8640  -23.0700 C.3    49  ILE49       0.0266
      6  CG1      -11.2260   25.1120  -23.7890 C.3    49  ILE49       0.0019
      7  CG2      -13.3030   23.7250  -23.7380 C.3    49  ILE49       0.0020
      8  CD1      -10.1990   23.9820  -23.6590 C.3    49  ILE49       0.0001
      9  N        -14.8910   25.5120  -21.2700 N.am   50  HIS50      -0.1962
     10  CA       -16.1760   25.2550  -20.6290 C.3    50  HIS50       0.1787
     11  C        -16.1000   25.2500  -19.1020 C.2    50  HIS50       0.2621
     12  O        -15.2150   24.6280  -18.5150 O.2    50  HIS50      -0.2715
     13  CB       -16.7610   23.9240  -21.1040 C.3    50  HIS50       0.0785
     14  CG       -18.0660   23.5820  -20.4530 C.ar   50  HIS50       0.0821
     15  ND1      -18.1510   23.1250  -19.1550 N.ar   50  HIS50      -0.2267
     16  CD2      -19.3380   23.6420  -20.9160 C.ar   50  HIS50       0.1154
     17  CE1      -19.4190   22.9080  -18.8490 C.ar   50  HIS50       0.1986
     18  NE2      -20.1600   23.2170  -19.8980 N.ar   50  HIS50      -0.2212
     19  N        -17.0520   25.9220  -18.4620 N.am   51  GLY51      -0.1940
     20  CA       -17.1320   25.9370  -17.0100 C.3    51  GLY51       0.2014
     21  C        -15.7790   25.9660  -16.3130 C.2    51  GLY51       0.2638
     22  O        -15.0220   26.9320  -16.4350 O.2    51  GLY51      -0.2714
     23  N        -15.4790   24.9070  -15.5700 N.am   52  ARG52      -0.1977
     24  CA       -14.2080   24.8160  -14.8560 C.3    52  ARG52       0.1597
     25  C        -13.2710   23.8170  -15.5100 C.2    52  ARG52       0.2287
     26  O        -13.7140   22.8050  -16.0630 O.2    52  ARG52      -0.2864
     27  CB       -14.4290   24.4580  -13.3870 C.3    52  ARG52       0.0334
     28  CG       -14.8390   25.6600  -12.5370 C.3    52  ARG52       0.0492
     29  CD       -15.0880   25.2570  -11.0990 C.3    52  ARG52       0.2205
     30  NE       -16.1670   24.2860  -11.0050 N.pl3  52  ARG52      -0.0865
     31  CZ       -16.4770   23.6160   -9.9020 C.cat  52  ARG52       0.5346
     32  NH1      -15.7870   23.8100   -8.7850 N.pl3  52  ARG52       0.1354
     33  NH2      -17.4800   22.7490   -9.9200 N.pl3  52  ARG52       0.1354
     34  N        -19.8610   11.5920  -12.4920 N.3    94  TYR94      -0.1241
     35  CA       -18.5630   11.5790  -13.1770 C.3    94  TYR94       0.1605
     36  C        -18.0020   10.1760  -13.2210 C.2    94  TYR94       0.2264
     37  O        -17.7180    9.5860  -12.1800 O.2    94  TYR94      -0.2867
     38  CB       -17.5520   12.5050  -12.4870 C.3    94  TYR94       0.0534
     39  CG       -17.8610   13.9810  -12.6340 C.ar   94  TYR94      -0.0201
     40  CD1      -17.3150   14.7240  -13.6700 C.ar   94  TYR94      -0.0009
     41  CD2      -18.6970   14.6260  -11.7370 C.ar   94  TYR94      -0.0009
     42  CE1      -17.5970   16.0700  -13.8080 C.ar   94  TYR94       0.0417
     43  CE2      -18.9840   15.9730  -11.8650 C.ar   94  TYR94       0.0417
     44  CZ       -18.4320   16.6870  -12.9020 C.ar   94  TYR94       0.1957
     45  OH       -18.7130   18.0260  -13.0390 O.3    94  TYR94      -0.2866
     46  N        -11.6700   15.2070  -12.7100 N.3   114  ARG114     -0.1231
     47  CA       -13.0220   15.3510  -13.2470 C.3   114  ARG114      0.1694
     48  C        -13.1890   16.6110  -14.0750 C.2   114  ARG114      0.2592
     49  O        -14.1460   16.7330  -14.8260 O.2   114  ARG114     -0.2718
     50  CB       -14.0450   15.3700  -12.1090 C.3   114  ARG114      0.0321
     51  CG       -14.1240   14.0640  -11.3230 C.3   114  ARG114      0.0489
     52  CD       -15.0720   14.2040  -10.1590 C.3   114  ARG114      0.2205
     53  NE       -14.5400   15.1000   -9.1380 N.pl3 114  ARG114     -0.0865
     54  CZ       -15.2620   15.6110   -8.1460 C.cat 114  ARG114      0.5346
     55  NH1      -16.5550   15.3240   -8.0370 N.pl3 114  ARG114      0.1354
     56  NH2      -14.6920   16.4150   -7.2620 N.pl3 114  ARG114      0.1354
     57  N        -12.2630   17.5540  -13.9420 N.am  115  PHE115     -0.1962
     58  CA       -12.4610   18.8630  -14.5540 C.3   115  PHE115      0.1771
     59  C        -11.6650   19.0630  -15.8300 C.2   115  PHE115      0.2619
     60  O        -11.6280   20.1610  -16.3860 O.2   115  PHE115     -0.2715
     61  CB       -12.1950   19.9680  -13.5320 C.3   115  PHE115      0.0574
     62  CG       -13.0770   19.8670  -12.3280 C.ar  115  PHE115     -0.0200
     63  CD1      -14.4270   20.1670  -12.4220 C.ar  115  PHE115     -0.0042
     64  CD2      -12.5790   19.4210  -11.1200 C.ar  115  PHE115     -0.0042
     65  CE1      -15.2580   20.0480  -11.3260 C.ar  115  PHE115     -0.0003
     66  CE2      -13.4070   19.3030  -10.0140 C.ar  115  PHE115     -0.0003
     67  CZ       -14.7500   19.6190  -10.1200 C.ar  115  PHE115     -0.0000
     68  N        -11.0430   17.9890  -16.2970 N.am  116  ILE116     -0.1963
     69  CA       -10.2920   18.0210  -17.5400 C.3   116  ILE116      0.1727
     70  C        -11.2480   18.1100  -18.7290 C.2   116  ILE116      0.2616
     71  O        -12.0660   17.2160  -18.9480 O.2   116  ILE116     -0.2715
     72  CB        -9.3850   16.7800  -17.6680 C.3   116  ILE116      0.0290
     73  CG1       -8.4640   16.6820  -16.4550 C.3   116  ILE116      0.0022
     74  CG2       -8.5550   16.8530  -18.9280 C.3   116  ILE116      0.0023
     75  CD1       -7.5110   15.4940  -16.4930 C.3   116  ILE116      0.0001
     76  N        -11.1510   19.1990  -19.4870 N.am  117  ASN117     -0.1958
     77  CA       -12.0190   19.4110  -20.6430 C.3   117  ASN117      0.1819
     78  C        -11.5270   18.7010  -21.9030 C.2   117  ASN117      0.2621
     79  O        -10.3700   18.2930  -21.9900 O.2   117  ASN117     -0.2715
     80  CB       -12.1980   20.9140  -20.9130 C.3   117  ASN117      0.1195
     81  CG       -13.1640   21.5630  -19.9490 C.2   117  ASN117      0.2630
     82  OD1      -14.2480   21.0320  -19.6910 O.2   117  ASN117     -0.2716
     83  ND2      -12.7860   22.7220  -19.4170 N.am  117  ASN117     -0.0877
     84  N        -12.4130   18.5630  -22.8820 N.am  118  HIS118     -0.1973
     85  CA       -12.0390   17.9760  -24.1600 C.3   118  HIS118      0.1656
     86  C        -11.3690   18.9950  -25.0670 C.2   118  HIS118      0.2291
     87  O        -11.6770   20.1800  -25.0160 O.2   118  HIS118     -0.2864
     88  CB       -13.2630   17.4100  -24.8840 C.3   118  HIS118      0.0771
     89  CG       -13.0180   17.1310  -26.3340 C.ar  118  HIS118      0.0820
     90  ND1      -12.6040   15.9000  -26.7960 N.ar  118  HIS118     -0.2267
     91  CD2      -13.0930   17.9360  -27.4200 C.ar  118  HIS118      0.1154
     92  CE1      -12.4410   15.9560  -28.1060 C.ar  118  HIS118      0.1986
     93  NE2      -12.7350   17.1790  -28.5100 N.ar  118  HIS118     -0.2212
     94  N        -11.8040   13.4120  -25.8340 N.3   155  TYR155     -0.1241
     95  CA       -12.8580   12.5110  -25.3680 C.3   155  TYR155      0.1605
     96  C        -13.1300   11.4390  -26.4090 C.2   155  TYR155      0.2264
     97  O        -13.5290   10.3250  -26.0780 O.2   155  TYR155     -0.2867
     98  CB       -14.1560   13.2700  -25.1000 C.3   155  TYR155      0.0534
     99  CG       -14.1440   14.1660  -23.8820 C.ar  155  TYR155     -0.0201
    100  CD1      -15.3240   14.6930  -23.3830 C.ar  155  TYR155     -0.0009
    101  CD2      -12.9590   14.4870  -23.2340 C.ar  155  TYR155     -0.0009
    102  CE1      -15.3280   15.5230  -22.2820 C.ar  155  TYR155      0.0417
    103  CE2      -12.9550   15.3160  -22.1240 C.ar  155  TYR155      0.0417
    104  CZ       -14.1420   15.8340  -21.6580 C.ar  155  TYR155      0.1957
    105  OH       -14.1570   16.6570  -20.5570 O.3   155  TYR155     -0.2866
    106  N        -15.6190   10.9920  -28.5910 N.3   157  PHE157     -0.1241
    107  CA       -16.9820   10.4680  -28.5860 C.3   157  PHE157      0.1605
    108  C        -17.3050    9.8140  -29.9200 C.2   157  PHE157      0.2264
    109  O        -16.9510   10.3480  -30.9710 O.2   157  PHE157     -0.2867
    110  CB       -18.0010   11.5890  -28.3470 C.3   157  PHE157      0.0534
    111  CG       -18.1200   12.0250  -26.9130 C.ar  157  PHE157     -0.0203
    112  CD1      -18.7700   13.2070  -26.5920 C.ar  157  PHE157     -0.0042
    113  CD2      -17.5830   11.2630  -25.8890 C.ar  157  PHE157     -0.0042
    114  CE1      -18.8900   13.6150  -25.2760 C.ar  157  PHE157     -0.0003
    115  CE2      -17.6960   11.6680  -24.5690 C.ar  157  PHE157     -0.0003
    116  CZ       -18.3490   12.8440  -24.2630 C.ar  157  PHE157     -0.0000
    117  N        -23.1380   17.6890  -30.1290 N.3   166  LEU166     -0.1231
    118  CA       -22.7720   18.6780  -29.1250 C.3   166  LEU166      0.1678
    119  C        -21.6060   19.5030  -29.6510 C.2   166  LEU166      0.2434
    120  O        -20.5900   18.9500  -30.0720 O.2   166  LEU166     -0.2733
    121  CB       -22.3880   17.9950  -27.8160 C.3   166  LEU166      0.0284
    122  CG       -23.4230   17.0070  -27.2830 C.3   166  LEU166      0.0019
    123  CD1      -22.9940   16.4560  -25.9300 C.3   166  LEU166      0.0001
    124  CD2      -24.7870   17.6750  -27.1910 C.3   166  LEU166      0.0001
    125  N        -21.7500   20.8310  -29.6410 N.am  167  PRO167     -0.2718
    126  CA       -20.7110   21.6950  -30.2020 C.3   167  PRO167      0.1535
    127  C        -19.4500   21.6160  -29.3570 C.2   167  PRO167      0.2599
    128  O        -19.5520   21.3790  -28.1540 O.2   167  PRO167     -0.2715
    129  CB       -21.3230   23.1010  -30.0980 C.3   167  PRO167      0.0310
    130  CG       -22.7790   22.8910  -29.8060 C.3   167  PRO167      0.0237
    131  CD       -22.8480   21.6060  -29.0470 C.3   167  PRO167      0.0939
    132  N        -18.2880   21.8030  -29.9770 N.am  168  CYS168     -0.1954
    133  CA       -17.0220   21.8300  -29.2500 C.3   168  CYS168      0.1843
    134  C        -16.4670   23.2550  -29.2160 C.2   168  CYS168      0.2625
    135  O        -16.4170   23.9340  -30.2440 O.2   168  CYS168     -0.2714
    136  CB       -16.0130   20.8720  -29.8950 C.3   168  CYS168      0.0997
    137  SG       -14.3350   20.8960  -29.1790 S.3   168  CYS168     -0.0797
    138  N        -16.0570   23.7080  -28.0340 N.am  169  ASN169     -0.1958
    139  CA       -15.4870   25.0480  -27.8830 C.3   169  ASN169      0.1819
    140  C        -13.9670   25.0600  -27.6740 C.2   169  ASN169      0.2621
    141  O        -13.4440   26.0110  -27.1050 O.2   169  ASN169     -0.2715
    142  CB       -16.1460   25.7890  -26.7080 C.3   169  ASN169      0.1195
    143  CG       -17.6600   25.6000  -26.6530 C.2   169  ASN169      0.2630
    144  OD1      -18.2420   25.4820  -25.5710 O.2   169  ASN169     -0.2716
    145  ND2      -18.3020   25.5810  -27.8140 N.am  169  ASN169     -0.0877
    146  N        -13.2510   24.0260  -28.1220 N.am  170  CYS170     -0.1968
    147  CA       -11.8180   23.9300  -27.7990 C.3   170  CYS170      0.1712
    148  C        -10.9540   25.0130  -28.4450 C.2   170  CYS170      0.2296
    149  O         -9.8580   25.3140  -27.9650 O.2   170  CYS170     -0.2864
    150  CB       -11.2460   22.5290  -28.0770 C.3   170  CYS170      0.0983
    151  SG       -10.8590   22.1470  -29.8060 S.3   170  CYS170     -0.0798
    152  N        -18.2330   17.7400  -30.4490 N.3   179  LEU179     -0.1245
    153  CA       -17.6510   16.7640  -29.5360 C.3   179  LEU179      0.1561
    154  C        -17.9430   15.3680  -30.0550 C.2   179  LEU179      0.2260
    155  O        -17.3400   14.3910  -29.6150 O.2   179  LEU179     -0.2867
    156  CB       -18.2380   16.9180  -28.1320 C.3   179  LEU179      0.0270
    157  CG       -17.8490   18.1490  -27.3130 C.3   179  LEU179      0.0019
    158  CD1      -18.7810   18.3150  -26.1180 C.3   179  LEU179      0.0001
    159  CD2      -16.4000   18.0530  -26.8640 C.3   179  LEU179      0.0001
@<TRIPOS>BOND
     1   109   108    2
     2   152   153    1
     3   135   134    2
     4   126   129    1
     5   126   125    1
     6   126   127    1
     7   117   118    1
     8   129   130    1
     9   120   119    2
    10   154   155    2
    11   154   153    1
    12   132   127   am
    13   132   133    1
    14   108   107    1
    15   136   133    1
    16   136   137    1
    17   151   150    1
    18   130   131    1
    19   119   125   am
    20   119   118    1
    21   125   131    1
    22   153   156    1
    23   127   128    2
    24   133   134    1
    25   134   138   am
    26   118   121    1
    27   106   107    1
    28   107   110    1
    29    93    92   ar
    30    93    91   ar
    31   148   149    2
    32   148   147    1
    33   110   111    1
    34   156   157    1
    35   146   147    1
    36   146   140   am
    37    92    90   ar
    38   150   147    1
    39   138   139    1
    40   139   140    1
    41   139   142    1
    42   121   122    1
    43   145   143   am
    44   140   141    2
    45    91    89   ar
    46   157   159    1
    47   157   158    1
    48   122   124    1
    49   122   123    1
    50   111   112   ar
    51   111   113   ar
    52    90    89   ar
    53   142   143    1
    54   143   144    2
    55   112   114   ar
    56    96    97    2
    57    96    95    1
    58    89    88    1
    59   113   115   ar
    60    94    95    1
    61    95    98    1
    62   114   116   ar
    63    98    99    1
    64    86    87    2
    65    86    85    1
    66    88    85    1
    67   115   116   ar
    68    85    84    1
    69    99   100   ar
    70    99   101   ar
    71     6     8    1
    72     6     5    1
    73     7     5    1
    74   100   102   ar
    75     4     3    2
    76   101   103   ar
    77     2     5    1
    78     2     3    1
    79     2     1    1
    80    84    78   am
    81     3     9   am
    82   102   104   ar
    83   103   104   ar
    84    79    78    2
    85    78    77    1
    86   104   105    1
    87     9    10    1
    88    13    10    1
    89    13    14    1
    90    16    14   ar
    91    16    18   ar
    92    80    77    1
    93    80    81    1
    94    77    76    1
    95    10    11    1
    96    14    15   ar
    97    81    82    2
    98    81    83   am
    99    18    17   ar
   100    76    70   am
   101    15    17   ar
   102    11    12    2
   103    11    19   am
   104    71    70    2
   105    74    72    1
   106    70    69    1
   107    19    20    1
   108    72    69    1
   109    72    73    1
   110    69    68    1
   111    20    21    1
   112    75    73    1
   113    22    21    2
   114    60    59    2
   115    21    23   am
   116    68    59   am
   117    26    25    2
   118    59    58    1
   119    23    24    1
   120    25    24    1
   121    24    27    1
   122    49    48    2
   123    58    57    1
   124    58    61    1
   125    48    57   am
   126    48    47    1
   127    42    40   ar
   128    42    44   ar
   129    40    39   ar
   130    61    62    1
   131    27    28    1
   132    47    46    1
   133    47    50    1
   134    36    35    1
   135    36    37    2
   136    35    34    1
   137    35    38    1
   138    45    44    1
   139    44    43   ar
   140    39    38    1
   141    39    41   ar
   142    28    29    1
   143    63    62   ar
   144    63    65   ar
   145    62    64   ar
   146    50    51    1
   147    43    41   ar
   148    65    67   ar
   149    51    52    1
   150    64    66   ar
   151    29    30    1
   152    30    31    2
   153    52    53    1
   154    67    66   ar
   155    33    31    1
   156    31    32    1
   157    53    54    2
   158    54    55    1
   159    54    56    1
