@<TRIPOS>MOLECULE
tmp/2w62A00.pdb
 206 198 0 0 0
SMALL
GASTEIGER

@<TRIPOS>ATOM
      1  N         13.9230   29.7310   30.3150 N.3    32  GLN32      -0.1245
      2  CA        13.4470   28.3500   30.3950 C.3    32  GLN32       0.1566
      3  C         14.5510   27.4590   30.9270 C.2    32  GLN32       0.2260
      4  O         15.6400   27.3610   30.3430 O.2    32  GLN32      -0.2867
      5  CB        12.9740   27.8410   29.0170 C.3    32  GLN32       0.0367
      6  CG        12.3140   26.4550   29.0710 C.3    32  GLN32       0.0905
      7  CD        10.8840   26.5390   29.5180 C.2    32  GLN32       0.2608
      8  OE1       10.1560   27.4310   29.1020 O.2    32  GLN32      -0.2717
      9  NE2       10.4640   25.6060   30.3780 N.am   32  GLN32      -0.0878
     10  N         15.9200   23.6290   32.0330 N.3    34  GLN34      -0.1245
     11  CA        15.7710   22.2750   31.5310 C.3    34  GLN34       0.1566
     12  C         16.3580   21.3140   32.5520 C.2    34  GLN34       0.2260
     13  O         17.2440   21.6760   33.3420 O.2    34  GLN34      -0.2867
     14  CB        16.4360   22.1220   30.1600 C.3    34  GLN34       0.0367
     15  CG        17.9330   22.4400   30.1770 C.3    34  GLN34       0.0905
     16  CD        18.5280   22.6070   28.7940 C.2    34  GLN34       0.2608
     17  OE1       18.0760   23.4440   27.9980 O.2    34  GLN34      -0.2717
     18  NE2       19.5540   21.8230   28.5010 N.am   34  GLN34      -0.0878
     19  N          8.9400   28.5820   26.9040 N.3    71  TYR71      -0.1227
     20  CA         8.6730   27.5500   25.8930 C.3    71  TYR71       0.1736
     21  C          7.7330   26.4690   26.4170 C.2    71  TYR71       0.2595
     22  O          7.0970   25.7600   25.6410 O.2    71  TYR71      -0.2718
     23  CB         9.9890   26.8930   25.4320 C.3    71  TYR71       0.0548
     24  CG        10.9440   27.8240   24.6930 C.ar   71  TYR71      -0.0200
     25  CD1       11.7910   28.6980   25.4060 C.ar   71  TYR71      -0.0009
     26  CD2       10.9930   27.8440   23.2960 C.ar   71  TYR71      -0.0009
     27  CE1       12.6880   29.5480   24.7430 C.ar   71  TYR71       0.0417
     28  CE2       11.8980   28.6880   22.6090 C.ar   71  TYR71       0.0417
     29  CZ        12.7300   29.5470   23.3400 C.ar   71  TYR71       0.1957
     30  OH        13.6200   30.3860   22.6860 O.3    71  TYR71      -0.2866
     31  N          7.6880   26.3060   27.7330 N.am   72  ALA72      -0.1980
     32  CA         6.8420   25.2660   28.3190 C.3    72  ALA72       0.1597
     33  C          6.3420   25.6510   29.7090 C.2    72  ALA72       0.2287
     34  O          7.1610   25.9790   30.6050 O.2    72  ALA72      -0.2864
     35  CB         7.5960   23.9510   28.3930 C.3    72  ALA72       0.0319
     36  N          5.0010   29.6060   24.2400 N.3    96  ASP96      -0.1239
     37  CA         4.6560   28.4700   23.3600 C.3    96  ASP96       0.1674
     38  C          3.5190   27.6440   23.9540 C.2    96  ASP96       0.2266
     39  O          3.4300   27.4710   25.1860 O.2    96  ASP96      -0.2867
     40  CB         5.8710   27.5870   23.0930 C.3    96  ASP96       0.1410
     41  CG         6.9880   28.3310   22.3720 C.2    96  ASP96       0.3668
     42  OD1        7.6880   29.1320   23.0310 O.co2  96  ASP96      -0.2456
     43  OD2        7.1710   28.1220   21.1470 O.co2  96  ASP96      -0.2456
     44  N          2.9300   24.4430   22.8920 N.3    98  SER98      -0.1202
     45  CA         3.3980   23.0620   22.8560 C.3    98  SER98       0.2020
     46  C          4.4500   22.7980   23.9560 C.2    98  SER98       0.2619
     47  O          4.8720   23.7200   24.7030 O.2    98  SER98      -0.2717
     48  CB         3.9710   22.7800   21.4520 C.3    98  SER98       0.2103
     49  OG         5.1110   23.6140   21.2330 O.3    98  SER98      -0.2182
     50  N          4.8440   21.5340   24.0860 N.am   99  GLU99      -0.1965
     51  CA         5.9860   21.1690   24.9240 C.3    99  GLU99       0.1718
     52  C          6.6550   19.9650   24.2480 C.2    99  GLU99       0.2458
     53  O          6.0580   19.3750   23.3280 O.2    99  GLU99      -0.2730
     54  CB         5.5710   20.9260   26.3910 C.3    99  GLU99       0.0428
     55  CG         4.4380   19.9370   26.6260 C.3    99  GLU99       0.1163
     56  CD         4.8920   18.5060   26.9460 C.2    99  GLU99       0.3649
     57  OE1        6.0780   18.1270   26.7410 O.co2  99  GLU99      -0.2457
     58  OE2        4.0210   17.7430   27.4050 O.co2  99  GLU99      -0.2457
     59  N          7.8970   19.6310   24.6460 N.am  100  PRO100     -0.2716
     60  CA         8.6770   18.6940   23.8170 C.3   100  PRO100      0.1536
     61  C          7.9710   17.3780   23.5300 C.2   100  PRO100      0.2598
     62  O          8.1500   16.8010   22.4370 O.2   100  PRO100     -0.2715
     63  CB         9.9380   18.4540   24.6560 C.3   100  PRO100      0.0310
     64  CG        10.0990   19.7220   25.4540 C.3   100  PRO100      0.0237
     65  CD         8.6840   20.1280   25.7920 C.3   100  PRO100      0.0939
     66  N          7.1710   16.9030   24.4860 N.am  101  ASP101     -0.1972
     67  CA         6.4980   15.6080   24.3450 C.3   101  ASP101      0.1709
     68  C          5.1110   15.6970   23.7250 C.2   101  ASP101      0.2293
     69  O          4.5040   14.6640   23.3960 O.2   101  ASP101     -0.2864
     70  CB         6.4140   14.9040   25.7080 C.3   101  ASP101      0.1436
     71  CG         7.7820   14.5070   26.2550 C.2   101  ASP101      0.3671
     72  OD1        8.7160   14.2370   25.4680 O.co2 101  ASP101     -0.2456
     73  OD2        7.9250   14.4640   27.4920 O.co2 101  ASP101     -0.2456
     74  N          3.8870   18.0950   20.7280 N.3   103  SER103     -0.1202
     75  CA         4.1300   19.0910   19.6690 C.3   103  SER103      0.2020
     76  C          3.7790   18.4490   18.3370 C.2   103  SER103      0.2619
     77  O          3.7630   17.2140   18.2260 O.2   103  SER103     -0.2717
     78  CB         5.6210   19.4580   19.5700 C.3   103  SER103      0.2103
     79  OG         6.1270   20.0930   20.7180 O.3   103  SER103     -0.2182
     80  N          3.5830   19.2730   17.3160 N.am  104  ILE104     -0.1965
     81  CA         3.4310   18.7550   15.9610 C.3   104  ILE104      0.1727
     82  C          4.7680   18.1610   15.5560 C.2   104  ILE104      0.2616
     83  O          5.7990   18.8410   15.5730 O.2   104  ILE104     -0.2715
     84  CB         2.9660   19.8510   14.9840 C.3   104  ILE104      0.0290
     85  CG1        1.6130   20.3950   15.4580 C.3   104  ILE104      0.0022
     86  CG2        2.8640   19.2850   13.5330 C.3   104  ILE104      0.0023
     87  CD1        1.2210   21.7930   14.8030 C.3   104  ILE104      0.0001
     88  N          4.7460   16.8720   15.2320 N.am  105  ASN105     -0.1958
     89  CA         5.9610   16.1390   14.8670 C.3   105  ASN105      0.1819
     90  C          6.3290   16.5350   13.4300 C.2   105  ASN105      0.2621
     91  O          5.6480   16.1240   12.4670 O.2   105  ASN105     -0.2715
     92  CB         5.7120   14.6350   14.9940 C.3   105  ASN105      0.1195
     93  CG         6.9070   13.7890   14.6040 C.2   105  ASN105      0.2630
     94  OD1        7.7580   14.2100   13.8230 O.2   105  ASN105     -0.2716
     95  ND2        6.9760   12.5680   15.1470 N.am  105  ASN105     -0.0877
     96  N          7.4270   17.2830   13.2770 N.am  106  ARG106     -0.1963
     97  CA         7.7640   17.8530   11.9630 C.3   106  ARG106      0.1729
     98  C          8.0210   16.7660   10.9200 C.2   106  ARG106      0.2616
     99  O          7.8470   16.9960    9.7250 O.2   106  ARG106     -0.2715
    100  CB         8.9540   18.8120   12.0420 C.3   106  ARG106      0.0348
    101  CG        10.2670   18.1480   12.4120 C.3   106  ARG106      0.0492
    102  CD        11.4420   19.1350   12.4050 C.3   106  ARG106      0.2205
    103  NE        11.3620   20.2210   13.3970 N.pl3 106  ARG106     -0.0865
    104  CZ        11.8260   20.1680   14.6450 C.cat 106  ARG106      0.5346
    105  NH1       12.2950   19.0350   15.1710 N.pl3 106  ARG106      0.1354
    106  NH2       11.7910   21.2570   15.3990 N.pl3 106  ARG106      0.1354
    107  N          8.4500   15.5820   11.3670 N.am  107  GLU107     -0.1977
    108  CA         8.7510   14.5120   10.4080 C.3   107  GLU107      0.1602
    109  C          7.5450   13.6480   10.0580 C.2   107  GLU107      0.2287
    110  O          7.4910   13.0460    8.9670 O.2   107  GLU107     -0.2864
    111  CB         9.9350   13.6560   10.8660 C.3   107  GLU107      0.0415
    112  CG        11.2730   14.4240   10.9230 C.3   107  GLU107      0.1163
    113  CD        11.7090   15.0770    9.5740 C.2   107  GLU107      0.3649
    114  OE1       11.5060   14.4780    8.4850 O.co2 107  GLU107     -0.2457
    115  OE2       12.2890   16.1880    9.6170 O.co2 107  GLU107     -0.2457
    116  N          3.5430   27.0870   17.1870 N.3   138  GLY138     -0.1210
    117  CA         4.5950   26.1540   16.7790 C.3   138  GLY138      0.1956
    118  C          5.9200   26.8760   16.8200 C.2   138  GLY138      0.2612
    119  O          5.9710   28.1170   16.8400 O.2   138  GLY138     -0.2717
    120  N          6.9820   26.0960   16.8970 N.am  139  ASN139     -0.1960
    121  CA         8.3420   26.6270   16.8920 C.3   139  ASN139      0.1819
    122  C          9.2190   25.7850   15.9790 C.2   139  ASN139      0.2621
    123  O          9.4720   24.6080   16.2680 O.2   139  ASN139     -0.2715
    124  CB         8.9380   26.5970   18.3040 C.3   139  ASN139      0.1195
    125  CG        10.3370   27.1900   18.3360 C.2   139  ASN139      0.2630
    126  OD1       10.5220   28.3380   17.9570 O.2   139  ASN139     -0.2716
    127  ND2       11.3220   26.4070   18.7500 N.am  139  ASN139     -0.0877
    128  N          9.6520   26.3760   14.8690 N.am  140  GLU140     -0.1963
    129  CA        10.6120   25.7250   13.9580 C.3   140  GLU140      0.1733
    130  C         10.1320   24.3160   13.5760 C.2   140  GLU140      0.2616
    131  O         10.8960   23.3580   13.6680 O.2   140  GLU140     -0.2715
    132  CB        12.0120   25.6170   14.6250 C.3   140  GLU140      0.0429
    133  CG        12.5490   26.9340   15.1890 C.3   140  GLU140      0.1163
    134  CD        14.0380   26.8560   15.4990 C.2   140  GLU140      0.3649
    135  OE1       14.5470   25.7250   15.6950 O.co2 140  GLU140     -0.2457
    136  OE2       14.6920   27.9320   15.5630 O.co2 140  GLU140     -0.2457
    137  N          8.8580   24.1870   13.2020 N.am  141  VAL141     -0.1977
    138  CA         8.2820   22.8760   12.8970 C.3   141  VAL141      0.1596
    139  C          8.8840   22.4620   11.5470 C.2   141  VAL141      0.2287
    140  O          9.8140   21.6800   11.5250 O.2   141  VAL141     -0.2864
    141  CB         6.7260   22.8960   12.9450 C.3   141  VAL141      0.0276
    142  CG1        6.1500   21.4850   12.7230 C.3   141  VAL141      0.0022
    143  CG2        6.2210   23.5200   14.3220 C.3   141  VAL141      0.0022
    144  N         14.2550   34.8310   18.8920 N.3   239  GLU239     -0.1245
    145  CA        15.5630   34.5580   19.5090 C.3   239  GLU239      0.1567
    146  C         16.6100   35.3730   18.7570 C.2   239  GLU239      0.2260
    147  O         16.5040   35.5720   17.5470 O.2   239  GLU239     -0.2867
    148  CB        15.9680   33.0750   19.3690 C.3   239  GLU239      0.0388
    149  CG        15.1090   32.1040   20.2080 C.3   239  GLU239      0.1160
    150  CD        15.3430   30.6310   19.8740 C.2   239  GLU239      0.3649
    151  OE1       16.3520   30.3030   19.2120 O.co2 239  GLU239     -0.2457
    152  OE2       14.5120   29.8150   20.3300 O.co2 239  GLU239     -0.2457
    153  N         18.6340   35.0650   23.4440 N.3   271  TYR271     -0.1227
    154  CA        18.6470   33.6580   23.8660 C.3   271  TYR271      0.1736
    155  C         19.9500   33.3180   24.5930 C.2   271  TYR271      0.2595
    156  O         21.0140   33.3080   23.9560 O.2   271  TYR271     -0.2718
    157  CB        18.4370   32.7470   22.6390 C.3   271  TYR271      0.0548
    158  CG        18.3120   31.2920   22.9990 C.ar  271  TYR271     -0.0200
    159  CD1       19.4530   30.5110   23.2080 C.ar  271  TYR271     -0.0009
    160  CD2       17.0480   30.6960   23.1690 C.ar  271  TYR271     -0.0009
    161  CE1       19.3520   29.1670   23.5620 C.ar  271  TYR271      0.0417
    162  CE2       16.9310   29.3500   23.5270 C.ar  271  TYR271      0.0417
    163  CZ        18.0810   28.5930   23.7180 C.ar  271  TYR271      0.1957
    164  OH        17.9890   27.2450   24.0450 O.3   271  TYR271     -0.2866
    165  N         19.9300   33.0450   25.9120 N.am  272  MET272     -0.1979
    166  CA        18.7750   33.0880   26.8110 C.3   272  MET272      0.1605
    167  C         19.2890   33.4030   28.2310 C.2   272  MET272      0.2287
    168  O         20.4930   33.6060   28.4520 O.2   272  MET272     -0.2864
    169  CB        17.9950   31.7630   26.8240 C.3   272  MET272      0.0413
    170  CG        18.7420   30.5970   27.4930 C.3   272  MET272      0.0598
    171  SD        17.6330   29.4710   28.4070 S.3   272  MET272     -0.1393
    172  CE        16.8700   30.4550   29.6280 C.3   272  MET272      0.0692
    173  N         23.1910   26.6320   30.1190 N.3   276  GLU276     -0.1245
    174  CA        22.9920   25.1840   30.1620 C.3   276  GLU276      0.1567
    175  C         24.1310   24.4150   29.4740 C.2   276  GLU276      0.2260
    176  O         23.8700   23.4780   28.7160 O.2   276  GLU276     -0.2867
    177  CB        21.6690   24.7950   29.4910 C.3   276  GLU276      0.0388
    178  CG        20.6860   25.9120   29.2870 C.3   276  GLU276      0.1160
    179  CD        19.4300   25.7540   30.1000 C.2   276  GLU276      0.3649
    180  OE1       19.5060   25.3730   31.2850 O.co2 276  GLU276     -0.2457
    181  OE2       18.3520   26.0280   29.5430 O.co2 276  GLU276     -0.2457
    182  N          8.2070    3.2820   19.5480 N.3   362  GLY362     -0.1225
    183  CA         8.7290    2.0260   19.0170 C.3   362  GLY362      0.1811
    184  C          7.6050    1.0510   18.7360 C.2   362  GLY362      0.2280
    185  O          7.5430    0.4400   17.6630 O.2   362  GLY362     -0.2866
    186  N          4.3410    1.9440   18.4330 N.3   364  TYR364     -0.1227
    187  CA         3.3340    2.5170   17.5410 C.3   364  TYR364      0.1736
    188  C          3.6740    2.3890   16.0540 C.2   364  TYR364      0.2595
    189  O          2.8840    1.8370   15.2800 O.2   364  TYR364     -0.2718
    190  CB         2.9740    3.9500   17.9580 C.3   364  TYR364      0.0548
    191  CG         2.2470    3.9970   19.2960 C.ar  364  TYR364     -0.0200
    192  CD1        1.7880    2.8190   19.9020 C.ar  364  TYR364     -0.0009
    193  CD2        2.0070    5.2040   19.9470 C.ar  364  TYR364     -0.0009
    194  CE1        1.1220    2.8400   21.1170 C.ar  364  TYR364      0.0417
    195  CE2        1.3330    5.2370   21.1670 C.ar  364  TYR364      0.0417
    196  CZ         0.8940    4.0480   21.7430 C.ar  364  TYR364      0.1957
    197  OH         0.2260    4.0510   22.9470 O.3   364  TYR364     -0.2866
    198  N          4.8540    2.8710   15.6700 N.am  365  GLU365     -0.1979
    199  CA         5.2930    2.8410   14.2710 C.3   365  GLU365      0.1602
    200  C          5.3050    1.4060   13.7320 C.2   365  GLU365      0.2287
    201  O          4.9780    1.1630   12.5680 O.2   365  GLU365     -0.2864
    202  CB         6.6710    3.5050   14.1270 C.3   365  GLU365      0.0415
    203  CG         7.0090    3.9920   12.7160 C.3   365  GLU365      0.1163
    204  CD         7.5770    2.9020   11.8190 C.2   365  GLU365      0.3649
    205  OE1        8.4010    2.0910   12.2970 O.co2 365  GLU365     -0.2457
    206  OE2        7.2040    2.8630   10.6250 O.co2 365  GLU365     -0.2457
@<TRIPOS>BOND
     1   114   113   ar
     2   110   109    2
     3   113   115   ar
     4   113   112    1
     5    99    98    2
     6   109   108    1
     7   108   111    1
     8   108   107    1
     9   206   204   ar
    10   111   112    1
    11    98   107   am
    12    98    97    1
    13   140   139    2
    14   139   138    1
    15   204   205   ar
    16   204   203    1
    17    97   100    1
    18    97    96    1
    19   100   101    1
    20   102   101    1
    21   102   103    1
    22    91    90    2
    23   201   200    2
    24   203   202    1
    25   142   141    1
    26   138   141    1
    27   138   137    1
    28   141   143    1
    29   137   130   am
    30    96    90   am
    31   103   104    2
    32    90    89    1
    33    86    84    1
    34   130   131    2
    35   130   129    1
    36   200   199    1
    37    94    93    2
    38   129   132    1
    39   129   128    1
    40   202   199    1
    41   199   198    1
    42    93    92    1
    43    93    95   am
    44   132   133    1
    45   104   105    1
    46   104   106    1
    47    87    85    1
    48    89    92    1
    49    89    88    1
    50   128   122   am
    51    84    85    1
    52    84    81    1
    53   133   134    1
    54    88    82   am
    55   189   188    2
    56   134   136   ar
    57   134   135   ar
    58    82    83    2
    59    82    81    1
    60   198   188   am
    61    81    80    1
    62   122   123    2
    63   122   121    1
    64   188   187    1
    65   117   118    1
    66   117   116    1
    67   118   119    2
    68   118   120   am
    69   121   120    1
    70   121   124    1
    71    80    76   am
    72   187   190    1
    73   187   186    1
    74   147   146    2
    75   185   184    2
    76   126   125    2
    77   190   191    1
    78    77    76    2
    79   124   125    1
    80   125   127   am
    81    76    75    1
    82   184   183    1
    83   146   145    1
    84   144   145    1
    85   183   182    1
    86   151   150   ar
    87   191   192   ar
    88   191   193   ar
    89   148   145    1
    90   148   149    1
    91    78    75    1
    92    78    79    1
    93    75    74    1
    94   150   149    1
    95   150   152   ar
    96   192   194   ar
    97   193   195   ar
    98   194   196   ar
    99    43    41   ar
   100   195   196   ar
   101    49    48    1
   102    48    45    1
   103   196   197    1
   104    41    42   ar
   105    41    40    1
   106    62    61    2
   107    28    26   ar
   108    28    29   ar
   109   157   158    1
   110   157   154    1
   111    30    29    1
   112    45    44    1
   113    45    46    1
   114   158   160   ar
   115   158   159   ar
   116    40    37    1
   117   160   162   ar
   118   159   161   ar
   119    26    24   ar
   120    53    52    2
   121    29    27   ar
   122    37    38    1
   123    37    36    1
   124    69    68    2
   125   153   154    1
   126   162   163   ar
   127    61    60    1
   128    61    66   am
   129   161   163   ar
   130   163   164    1
   131    68    67    1
   132    60    59    1
   133    60    63    1
   134   154   155    1
   135    38    39    2
   136    46    50   am
   137    46    47    2
   138   156   155    2
   139    50    51    1
   140    52    59   am
   141    52    51    1
   142    67    66    1
   143    67    70    1
   144   155   165   am
   145    59    65    1
   146    63    64    1
   147    24    25   ar
   148    24    23    1
   149    27    25   ar
   150    51    54    1
   151    23    20    1
   152    64    65    1
   153    72    71   ar
   154    22    21    2
   155    70    71    1
   156    20    21    1
   157    20    19    1
   158   165   166    1
   159    71    73   ar
   160    54    55    1
   161    21    31   am
   162    55    56    1
   163    57    56   ar
   164   166   169    1
   165   166   167    1
   166   169   170    1
   167    56    58   ar
   168   170   171    1
   169    31    32    1
   170    17    16    2
   171   167   168    2
   172    32    35    1
   173    32    33    1
   174   171   172    1
   175    18    16   am
   176   176   175    2
   177    16    15    1
   178     5     6    1
   179     5     2    1
   180     6     7    1
   181     8     7    2
   182   178   177    1
   183   178   179    1
   184   175   174    1
   185   177   174    1
   186     7     9   am
   187   181   179   ar
   188    33    34    2
   189   179   180   ar
   190   173   174    1
   191    14    15    1
   192    14    11    1
   193     1     2    1
   194     4     3    2
   195     2     3    1
   196    11    10    1
   197    11    12    1
   198    12    13    2
