@<TRIPOS>MOLECULE
tmp/2w63A01.pdb
 128 119 0 0 0
SMALL
GASTEIGER

@<TRIPOS>ATOM
      1  N        -15.2280    9.0660  -14.8930 N.3   135  GLU135     -0.1245
      2  CA       -14.3030    9.7600  -13.9640 C.3   135  GLU135      0.1567
      3  C        -14.7750   11.1780  -13.6580 C.2   135  GLU135      0.2260
      4  O        -14.0320   12.1460  -13.8460 O.2   135  GLU135     -0.2867
      5  CB       -12.8710    9.8230  -14.5540 C.3   135  GLU135      0.0388
      6  CG       -12.3480    8.5170  -15.1110 C.3   135  GLU135      0.1160
      7  CD       -10.8570    8.5980  -15.3890 C.2   135  GLU135      0.3649
      8  OE1      -10.3510    9.7350  -15.5860 O.co2 135  GLU135     -0.2457
      9  OE2      -10.2020    7.5290  -15.3980 O.co2 135  GLU135     -0.2457
     10  N        -13.2130   12.4690   -9.3190 N.3   138  ASN138     -0.1240
     11  CA       -11.9220   11.8140   -9.4960 C.3   138  ASN138      0.1653
     12  C        -10.9950   11.9010   -8.2920 C.2   138  ASN138      0.2266
     13  O         -9.9130   11.3020   -8.2850 O.2   138  ASN138     -0.2867
     14  CB       -11.2320   12.2560  -10.7970 C.3   138  ASN138      0.1155
     15  CG       -11.0120   13.7490  -10.8910 C.2   138  ASN138      0.2627
     16  OD1      -11.0620   14.4930   -9.8940 O.2   138  ASN138     -0.2716
     17  ND2      -10.6910   14.1970  -12.1050 N.am  138  ASN138     -0.0877
     18  N        -12.1570    6.2680  -12.1270 N.3   175  ASN175     -0.1225
     19  CA       -10.6850    6.2300  -12.0610 C.3   175  ASN175      0.1785
     20  C        -10.2440    5.3410  -10.8800 C.2   175  ASN175      0.2597
     21  O        -11.0410    4.5690  -10.3620 O.2   175  ASN175     -0.2718
     22  CB       -10.0810    7.6450  -12.0160 C.3   175  ASN175      0.1169
     23  CG       -10.3590    8.3610  -10.7140 C.2   175  ASN175      0.2627
     24  OD1      -11.3740    8.1020  -10.0690 O.2   175  ASN175     -0.2716
     25  ND2       -9.4780    9.2840  -10.3370 N.am  175  ASN175     -0.0877
     26  N         -8.9970    5.4390  -10.4500 N.am  176  ASP176     -0.1960
     27  CA        -8.4750    4.5040   -9.4580 C.3   176  ASP176      0.1840
     28  C         -7.7660    5.2470   -8.3290 C.2   176  ASP176      0.2622
     29  O         -6.6690    4.8650   -7.9180 O.2   176  ASP176     -0.2715
     30  CB        -7.5420    3.5000  -10.1530 C.3   176  ASP176      0.1450
     31  CG        -7.0900    2.3650   -9.2480 C.2   176  ASP176      0.3671
     32  OD1       -7.8310    1.9630   -8.3120 O.co2 176  ASP176     -0.2456
     33  OD2       -5.9750    1.8660   -9.5010 O.co2 176  ASP176     -0.2456
     34  N         -8.4040    6.3150   -7.8370 N.am  177  ASP177     -0.1957
     35  CA        -7.8670    7.1440   -6.7450 C.3   177  ASP177      0.1840
     36  C         -8.0940    6.3670   -5.4520 C.2   177  ASP177      0.2621
     37  O         -9.2300    6.0170   -5.1280 O.2   177  ASP177     -0.2715
     38  CB        -8.5690    8.5150   -6.7090 C.3   177  ASP177      0.1450
     39  CG        -8.1840    9.3610   -5.4840 C.2   177  ASP177      0.3671
     40  OD1       -7.0130    9.7650   -5.3670 O.co2 177  ASP177     -0.2456
     41  OD2       -9.0690    9.6370   -4.6450 O.co2 177  ASP177     -0.2456
     42  N         -7.0040    6.0750   -4.7390 N.am  178  ALA178     -0.1977
     43  CA        -7.0670    5.2860   -3.5070 C.3   178  ALA178      0.1597
     44  C         -8.0320    5.8120   -2.4410 C.2   178  ALA178      0.2287
     45  O         -8.7360    5.0200   -1.8160 O.2   178  ALA178     -0.2864
     46  CB        -5.6560    5.1120   -2.8960 C.3   178  ALA178      0.0319
     47  N        -11.9320    5.3570   -4.0360 N.3   181  ARG181     -0.1245
     48  CA       -12.4250    4.2370   -4.8060 C.3   181  ARG181      0.1563
     49  C        -13.3970    3.3070   -4.1080 C.2   181  ARG181      0.2260
     50  O        -14.3300    2.8510   -4.7130 O.2   181  ARG181     -0.2867
     51  CB       -11.3120    3.4640   -5.4760 C.3   181  ARG181      0.0307
     52  CG       -10.4160    2.8510   -4.5530 C.3   181  ARG181      0.0489
     53  CD        -9.4420    1.9360   -5.2330 C.3   181  ARG181      0.2205
     54  NE        -8.4430    1.5710   -4.2640 N.pl3 181  ARG181     -0.0865
     55  CZ        -7.1950    1.3450   -4.5460 C.cat 181  ARG181      0.5346
     56  NH1       -6.3680    1.0060   -3.5900 N.pl3 181  ARG181      0.1354
     57  NH2       -6.7790    1.4550   -5.7710 N.pl3 181  ARG181      0.1354
     58  N        -10.8920    2.3770  -14.6370 N.3   201  ASN201     -0.1240
     59  CA        -9.7040    2.7140  -15.4070 C.3   201  ASN201      0.1653
     60  C         -8.5020    2.2940  -14.5750 C.2   201  ASN201      0.2266
     61  O         -8.1210    2.9500  -13.6150 O.2   201  ASN201     -0.2867
     62  CB        -9.7490    4.1930  -15.8380 C.3   201  ASN201      0.1155
     63  CG       -10.9590    4.4810  -16.7110 C.2   201  ASN201      0.2627
     64  OD1      -11.4130    3.6180  -17.4520 O.2   201  ASN201     -0.2716
     65  ND2      -11.5060    5.6880  -16.6070 N.am  201  ASN201     -0.0877
     66  N         -4.7180    1.1320  -14.0680 N.3   203  TYR203     -0.1227
     67  CA        -3.3160    1.2240  -14.5490 C.3   203  TYR203      0.1736
     68  C         -2.2510    0.7290  -13.5450 C.2   203  TYR203      0.2595
     69  O         -1.0610    1.0430  -13.6790 O.2   203  TYR203     -0.2718
     70  CB        -3.0190    2.6640  -14.9810 C.3   203  TYR203      0.0548
     71  CG        -3.8410    3.0790  -16.1950 C.ar  203  TYR203     -0.0200
     72  CD1       -3.4160    2.7430  -17.4720 C.ar  203  TYR203     -0.0009
     73  CD2       -5.0380    3.7980  -16.0550 C.ar  203  TYR203     -0.0009
     74  CE1       -4.1490    3.0990  -18.6100 C.ar  203  TYR203      0.0417
     75  CE2       -5.7980    4.1660  -17.2030 C.ar  203  TYR203      0.0417
     76  CZ        -5.3290    3.8120  -18.4680 C.ar  203  TYR203      0.1957
     77  OH        -6.0070    4.1500  -19.6150 O.3   203  TYR203     -0.2866
     78  N         -2.6820   -0.0540  -12.5590 N.am  204  GLU204     -0.1979
     79  CA        -1.7880   -0.5100  -11.4790 C.3   204  GLU204      0.1602
     80  C         -0.6710   -1.4510  -11.9290 C.2   204  GLU204      0.2287
     81  O          0.4050   -1.4820  -11.3360 O.2   204  GLU204     -0.2864
     82  CB        -2.6120   -1.1590  -10.3700 C.3   204  GLU204      0.0415
     83  CG        -3.4460   -0.1310   -9.5950 C.3   204  GLU204      0.1163
     84  CD        -4.3710   -0.7620   -8.5670 C.2   204  GLU204      0.3649
     85  OE1       -4.0580   -1.8750   -8.0730 O.co2 204  GLU204     -0.2457
     86  OE2       -5.4370   -0.1580   -8.2640 O.co2 204  GLU204     -0.2457
     87  N          2.2090   -2.3340  -14.2980 N.3   206  CYS206     -0.1235
     88  CA         3.1110   -1.7080  -15.2620 C.3   206  CYS206      0.1677
     89  C          4.2530   -2.6540  -15.5510 C.2   206  CYS206      0.2270
     90  O          4.8240   -3.2350  -14.6250 O.2   206  CYS206     -0.2867
     91  CB         3.6730   -0.3850  -14.7080 C.3   206  CYS206      0.0956
     92  SG         2.4530    0.8900  -14.2670 S.3   206  CYS206     -0.0801
     93  N          1.8960   -8.4350   -6.7040 N.3   213  THR213     -0.1203
     94  CA         2.5940   -7.1890   -6.4940 C.3   213  THR213      0.1994
     95  C          1.9460   -5.9830   -7.1730 C.2   213  THR213      0.2619
     96  O          2.0990   -4.8780   -6.7220 O.2   213  THR213     -0.2717
     97  CB         4.0800   -7.2950   -6.8690 C.3   213  THR213      0.1784
     98  OG1        4.2050   -7.5990   -8.2470 O.3   213  THR213     -0.2211
     99  CG2        4.7470   -8.3900   -6.0690 C.3   213  THR213      0.0376
    100  N          1.2180   -6.2070   -8.2480 N.am  214  SER214     -0.1937
    101  CA         0.6000   -5.1190   -8.9930 C.3   214  SER214      0.2055
    102  C         -0.4680   -4.4070   -8.1970 C.2   214  SER214      0.2643
    103  O         -0.6460   -3.2150   -8.3030 O.2   214  SER214     -0.2714
    104  CB        -0.0020   -5.6650  -10.2630 C.3   214  SER214      0.2130
    105  OG        -1.0850   -6.4930   -9.9590 O.3   214  SER214     -0.2179
    106  N         -1.1690   -5.1650   -7.3820 N.am  215  GLY215     -0.1954
    107  CA        -2.3170   -4.6750   -6.6690 C.3   215  GLY215      0.1869
    108  C         -3.5490   -5.4260   -7.1340 C.2   215  GLY215      0.2309
    109  O         -4.5810   -5.3280   -6.5300 O.2   215  GLY215     -0.2863
    110  N         -7.3120   -5.6930   -5.4800 N.3   219  ARG219     -0.1245
    111  CA        -8.5380   -5.2070   -6.1530 C.3   219  ARG219      0.1563
    112  C         -9.5480   -6.3430   -6.3270 C.2   219  ARG219      0.2260
    113  O        -10.7570   -6.1430   -6.1940 O.2   219  ARG219     -0.2867
    114  CB        -8.2240   -4.6170   -7.5350 C.3   219  ARG219      0.0307
    115  CG        -7.1680   -3.5080   -7.5710 C.3   219  ARG219      0.0489
    116  CD        -7.6850   -2.2080   -6.9440 C.3   219  ARG219      0.2205
    117  NE        -7.6100   -2.2310   -5.4880 N.pl3 219  ARG219     -0.0865
    118  CZ        -6.4850   -2.1590   -4.7820 C.cat 219  ARG219      0.5346
    119  NH1       -5.2910   -2.0330   -5.3720 N.pl3 219  ARG219      0.1354
    120  NH2       -6.5540   -2.2040   -3.4620 N.pl3 219  ARG219      0.1354
    121  N          4.3820    2.6740  -18.6600 N.3   239  LEU239     -0.1245
    122  CA         5.6680    2.9950  -18.0230 C.3   239  LEU239      0.1561
    123  C          6.8240    2.2600  -18.7030 C.2   239  LEU239      0.2260
    124  O          7.8500    2.8610  -19.0180 O.2   239  LEU239     -0.2867
    125  CB         5.6130    2.6360  -16.5340 C.3   239  LEU239      0.0270
    126  CG         6.8620    2.8440  -15.6840 C.3   239  LEU239      0.0019
    127  CD1        7.2700    4.3110  -15.6860 C.3   239  LEU239      0.0001
    128  CD2        6.5760    2.3830  -14.2450 C.3   239  LEU239      0.0001
@<TRIPOS>BOND
     1    77    76    1
     2   124   123    2
     3   123   122    1
     4   121   122    1
     5    74    76   ar
     6    74    72   ar
     7    76    75   ar
     8   122   125    1
     9    72    71   ar
    10    64    63    2
    11    75    73   ar
    12    63    65   am
    13    63    62    1
    14   125   126    1
    15    71    73   ar
    16    71    70    1
    17    62    59    1
    18   127   126    1
    19   126   128    1
    20     8     7   ar
    21    89    88    1
    22    89    90    2
    23    59    58    1
    24    59    60    1
    25     9     7   ar
    26     7     6    1
    27    88    91    1
    28    88    87    1
    29     6     5    1
    30    70    67    1
    31     1     2    1
    32    91    92    1
    33    60    61    2
    34     5     2    1
    35    67    66    1
    36    67    68    1
    37     2     3    1
    38     4     3    2
    39    69    68    2
    40    68    78   am
    41    78    79    1
    42    18    19    1
    43    17    15   am
    44    19    22    1
    45    19    20    1
    46    22    23    1
    47    80    79    1
    48    80    81    2
    49    79    82    1
    50    15    14    1
    51    15    16    2
    52    20    26   am
    53    20    21    2
    54    14    11    1
    55    23    25   am
    56    23    24    2
    57    26    27    1
    58    82    83    1
    59   104   105    1
    60   104   101    1
    61    30    27    1
    62    30    31    1
    63    83    84    1
    64    33    31   ar
    65    11    10    1
    66    11    12    1
    67    27    28    1
    68    31    32   ar
    69   101   100    1
    70   101   102    1
    71    84    86   ar
    72    84    85   ar
    73    28    29    2
    74    28    34   am
    75   103   102    2
    76    12    13    2
    77   100    95   am
    78    98    97    1
    79   102   106   am
    80    34    35    1
    81   115   114    1
    82   115   116    1
    83   114   111    1
    84   106   107    1
    85    95    96    2
    86    95    94    1
    87   108   107    1
    88   108   109    2
    89   116   117    1
    90    97    94    1
    91    97    99    1
    92    35    38    1
    93    35    36    1
    94    38    39    1
    95    93    94    1
    96   112   113    2
    97   112   111    1
    98   111   110    1
    99    57    55    1
   100   117   118    2
   101    39    40   ar
   102    39    41   ar
   103    51    48    1
   104    51    52    1
   105    36    37    2
   106    36    42   am
   107   119   118    1
   108    53    52    1
   109    53    54    1
   110    48    49    1
   111    48    47    1
   112   118   120    1
   113    42    43    1
   114    50    49    2
   115    55    54    2
   116    55    56    1
   117    43    46    1
   118    43    44    1
   119    44    45    2
