@<TRIPOS>MOLECULE
tmp/2w65C00.pdb
 142 141 0 0 0
SMALL
GASTEIGER

@<TRIPOS>ATOM
      1  N          6.7320  -18.7320  -19.4540 N.3    30  THR30      -0.1203
      2  CA         7.5070  -17.7750  -18.6560 C.3    30  THR30       0.1994
      3  C          6.9520  -16.3480  -18.6080 C.2    30  THR30       0.2618
      4  O          7.4930  -15.5250  -17.8880 O.2    30  THR30      -0.2717
      5  CB         8.9830  -17.7220  -19.1120 C.3    30  THR30       0.1784
      6  OG1        9.0640  -17.2770  -20.4760 O.3    30  THR30      -0.2211
      7  CG2        9.6330  -19.0940  -18.9610 C.3    30  THR30       0.0376
      8  N          5.8750  -16.0510  -19.3320 N.am   31  ASP31      -0.1959
      9  CA         5.3140  -14.6840  -19.3410 C.3    31  ASP31       0.1840
     10  C          4.3140  -14.3540  -18.2290 C.2    31  ASP31       0.2622
     11  O          4.1420  -13.1770  -17.9140 O.2    31  ASP31      -0.2715
     12  CB         4.6840  -14.3440  -20.6970 C.3    31  ASP31       0.1450
     13  CG         5.7130  -14.1690  -21.8160 C.2    31  ASP31       0.3671
     14  OD1        6.9150  -14.4810  -21.6310 O.co2  31  ASP31      -0.2456
     15  OD2        5.2950  -13.7020  -22.8930 O.co2  31  ASP31      -0.2456
     16  N          3.6470  -15.3630  -17.6590 N.am   32  TYR32      -0.1960
     17  CA         2.6770  -15.1310  -16.5690 C.3    32  TYR32       0.1771
     18  C          3.0190  -15.9740  -15.3290 C.2    32  TYR32       0.2620
     19  O          3.7250  -16.9770  -15.4390 O.2    32  TYR32      -0.2715
     20  CB         1.2510  -15.4150  -17.0530 C.3    32  TYR32       0.0574
     21  CG         0.8590  -14.6130  -18.2800 C.ar   32  TYR32      -0.0198
     22  CD1        0.4970  -13.2660  -18.1810 C.ar   32  TYR32      -0.0009
     23  CD2        0.8300  -15.2010  -19.5270 C.ar   32  TYR32      -0.0009
     24  CE1        0.1340  -12.5260  -19.3210 C.ar   32  TYR32       0.0417
     25  CE2        0.4700  -14.4770  -20.6660 C.ar   32  TYR32       0.0417
     26  CZ         0.1210  -13.1410  -20.5540 C.ar   32  TYR32       0.1957
     27  OH        -0.2300  -12.4440  -21.6910 O.3    32  TYR32      -0.2866
     28  N          2.5470  -15.5460  -14.1560 N.am   33  SER33      -0.1950
     29  CA         2.7960  -16.2720  -12.8910 C.3    33  SER33       0.1924
     30  C          1.7640  -17.3930  -12.6060 C.2    33  SER33       0.2314
     31  O          0.6110  -17.3050  -13.0450 O.2    33  SER33      -0.2863
     32  CB         2.8370  -15.2930  -11.6940 C.3    33  SER33       0.2116
     33  OG         1.6480  -14.5250  -11.5710 O.3    33  SER33      -0.2180
     34  N         -0.3070  -19.6010   -9.6760 N.3    35  HIS35      -0.1241
     35  CA        -0.7840  -19.5330   -8.3080 C.3    35  HIS35       0.1621
     36  C         -1.4480  -20.8370   -7.8560 C.2    35  HIS35       0.2264
     37  O         -2.0060  -21.5670   -8.6680 O.2    35  HIS35      -0.2867
     38  CB        -1.7770  -18.3710   -8.2190 C.3    35  HIS35       0.0745
     39  CG        -1.1900  -17.0540   -8.6430 C.ar   35  HIS35       0.0817
     40  ND1       -0.7260  -16.1200   -7.7460 N.ar   35  HIS35      -0.2268
     41  CD2       -0.9150  -16.5550   -9.8740 C.ar   35  HIS35       0.1154
     42  CE1       -0.2290  -15.0870   -8.4010 C.ar   35  HIS35       0.1986
     43  NE2       -0.3230  -15.3260   -9.6910 N.ar   35  HIS35      -0.2212
     44  N         -5.7340  -18.8540   -0.8960 N.3    47  TRP47      -0.1241
     45  CA        -4.5410  -18.6890   -1.7110 C.3    47  TRP47       0.1605
     46  C         -3.3060  -19.1200   -0.9480 C.2    47  TRP47       0.2264
     47  O         -3.0620  -18.6600    0.1490 O.2    47  TRP47      -0.2867
     48  CB        -4.4810  -17.2180   -2.1460 C.3    47  TRP47       0.0550
     49  CG        -3.4410  -16.8100   -3.0920 C.ar   47  TRP47       0.0003
     50  CD1       -3.3050  -17.2040   -4.3490 C.ar   47  TRP47       0.0946
     51  CD2       -2.4360  -15.7970   -2.8710 C.ar   47  TRP47       0.0152
     52  NE1       -2.2280  -16.5700   -4.9410 N.ar   47  TRP47      -0.2442
     53  CE2       -1.6960  -15.6800   -4.0580 C.ar   47  TRP47       0.0810
     54  CE3       -2.0840  -15.0030   -1.7780 C.ar   47  TRP47       0.0012
     55  CZ2       -0.6250  -14.7890   -4.1930 C.ar   47  TRP47       0.0191
     56  CZ3       -1.0330  -14.1250   -1.9150 C.ar   47  TRP47       0.0001
     57  CH2       -0.3260  -14.0190   -3.1210 C.ar   47  TRP47       0.0015
     58  N          2.3270  -18.0050   -4.8070 N.3    50  TRP50      -0.1241
     59  CA         2.6580  -18.1180   -6.2160 C.3    50  TRP50       0.1605
     60  C          4.1020  -18.3570   -6.4680 C.2    50  TRP50       0.2264
     61  O          4.8940  -18.2660   -5.5730 O.2    50  TRP50      -0.2867
     62  CB         2.2720  -16.8230   -6.9150 C.3    50  TRP50       0.0550
     63  CG         2.9940  -15.5790   -6.3980 C.ar   50  TRP50       0.0003
     64  CD1        2.8090  -14.9650   -5.1950 C.ar   50  TRP50       0.0946
     65  CD2        3.9500  -14.7740   -7.1140 C.ar   50  TRP50       0.0152
     66  NE1        3.6250  -13.8600   -5.0960 N.ar   50  TRP50      -0.2442
     67  CE2        4.3150  -13.7090   -6.2730 C.ar   50  TRP50       0.0810
     68  CE3        4.5340  -14.8600   -8.3750 C.ar   50  TRP50       0.0012
     69  CZ2        5.2560  -12.7470   -6.6500 C.ar   50  TRP50       0.0191
     70  CZ3        5.4700  -13.8950   -8.7560 C.ar   50  TRP50       0.0001
     71  CH2        5.8140  -12.8530   -7.9010 C.ar   50  TRP50       0.0015
     72  N          7.2520  -17.4770   -9.4580 N.3    52  ASN52      -0.1225
     73  CA         7.5880  -16.6360  -10.5990 C.3    52  ASN52       0.1785
     74  C          8.1830  -17.5790  -11.6300 C.2    52  ASN52       0.2598
     75  O          9.1830  -18.2400  -11.3820 O.2    52  ASN52      -0.2718
     76  CB         8.5470  -15.5080  -10.1990 C.3    52  ASN52       0.1169
     77  CG         8.7260  -14.4660  -11.2950 C.2    52  ASN52       0.2627
     78  OD1        8.6090  -14.7560  -12.4850 O.2    52  ASN52      -0.2716
     79  ND2        9.0280  -13.2450  -10.8910 N.am   52  ASN52      -0.0877
     80  N          7.5250  -17.6420  -12.7790 N.am   53  THR53      -0.1939
     81  CA         7.9020  -18.5000  -13.8890 C.3    53  THR53       0.2028
     82  C          9.2350  -18.1510  -14.5540 C.2    53  THR53       0.2642
     83  O          9.8050  -18.9710  -15.2830 O.2    53  THR53      -0.2714
     84  CB         6.7810  -18.4870  -14.9170 C.3    53  THR53       0.1808
     85  OG1        6.3590  -17.1330  -15.1150 O.3    53  THR53      -0.2208
     86  CG2        5.5830  -19.2840  -14.4080 C.3    53  THR53       0.0379
     87  N          9.7220  -16.9360  -14.2920 N.am   54  GLU54      -0.1976
     88  CA        10.9800  -16.4330  -14.8410 C.3    54  GLU54       0.1602
     89  C         12.1890  -16.7340  -13.9620 C.2    54  GLU54       0.2287
     90  O         13.2110  -17.2010  -14.4610 O.2    54  GLU54      -0.2864
     91  CB        10.8610  -14.9270  -15.1100 C.3    54  GLU54       0.0415
     92  CG         9.9620  -14.6270  -16.3070 C.3    54  GLU54       0.1163
     93  CD         9.7300  -13.1470  -16.5500 C.2    54  GLU54       0.3649
     94  OE1        9.3740  -12.4430  -15.5810 O.co2  54  GLU54      -0.2457
     95  OE2        9.8340  -12.7130  -17.7270 O.co2  54  GLU54      -0.2457
     96  N          6.6550  -17.6930   -3.2970 N.3    59  THR59      -0.1218
     97  CA         6.1390  -16.8320   -2.2170 C.3    59  THR59       0.1862
     98  C          5.0240  -17.6280   -1.5330 C.2    59  THR59       0.2287
     99  O          4.1050  -18.0320   -2.1970 O.2    59  THR59      -0.2866
    100  CB         5.5720  -15.4850   -2.7470 C.3    59  THR59       0.1770
    101  OG1        6.6020  -14.7210   -3.3880 O.3    59  THR59      -0.2211
    102  CG2        5.0060  -14.6450   -1.6130 C.3    59  THR59       0.0375
    103  N         -1.8000  -15.9120  -13.8300 N.3    99  ALA99      -0.1231
    104  CA        -2.0210  -14.4620  -13.8250 C.3    99  ALA99       0.1694
    105  C         -2.4040  -13.8620  -15.1780 C.2    99  ALA99       0.2593
    106  O         -2.3720  -14.5220  -16.2020 O.2    99  ALA99      -0.2718
    107  CB        -0.7900  -13.7580  -13.2940 C.3    99  ALA99       0.0304
    108  N         -2.7600  -12.5840  -15.1540 N.am  100  THR100     -0.1939
    109  CA        -3.1380  -11.8500  -16.3470 C.3   100  THR100      0.2028
    110  C         -2.7100  -10.4010  -16.0060 C.2   100  THR100      0.2643
    111  O         -1.9420  -10.2060  -15.0470 O.2   100  THR100     -0.2714
    112  CB        -4.6560  -12.0220  -16.5970 C.3   100  THR100      0.1808
    113  OG1       -4.9790  -11.8120  -17.9540 O.3   100  THR100     -0.2208
    114  CG2       -5.4870  -11.1140  -15.7380 C.3   100  THR100      0.0379
    115  N         -3.1810   -9.3950  -16.7470 N.am  101  THR101     -0.1936
    116  CA        -2.7920   -8.0050  -16.4410 C.3   101  THR101      0.2028
    117  C         -3.3740   -7.5070  -15.1240 C.2   101  THR101      0.2642
    118  O         -2.6320   -7.3040  -14.1610 O.2   101  THR101     -0.2714
    119  CB        -3.1720   -7.0100  -17.5610 C.3   101  THR101      0.1808
    120  OG1       -2.5520   -7.4180  -18.7810 O.3   101  THR101     -0.2208
    121  CG2       -2.7050   -5.5800  -17.2000 C.3   101  THR101      0.0379
    122  N         -4.6900   -7.3120  -15.0730 N.am  102  ALA102     -0.1963
    123  CA        -5.3440   -6.8250  -13.8470 C.3   102  ALA102      0.1728
    124  C         -5.7540   -7.9380  -12.8360 C.2   102  ALA102      0.2617
    125  O         -6.4140   -7.6390  -11.8260 O.2   102  ALA102     -0.2715
    126  CB        -6.5640   -5.9760  -14.2100 C.3   102  ALA102      0.0334
    127  N         -5.3710   -9.1940  -13.1060 N.am  103  THR103     -0.1937
    128  CA        -5.7530  -10.3130  -12.2400 C.3   103  THR103      0.2028
    129  C         -4.7650  -11.4840  -12.1710 C.2   103  THR103      0.2642
    130  O         -4.2280  -11.9160  -13.1770 O.2   103  THR103     -0.2714
    131  CB        -7.1860  -10.8000  -12.5900 C.3   103  THR103      0.1808
    132  OG1       -7.4540  -12.0610  -11.9440 O.3   103  THR103     -0.2208
    133  CG2       -7.3490  -10.9570  -14.0390 C.3   103  THR103      0.0379
    134  N         -4.5370  -11.9460  -10.9340 N.am  104  GLU104     -0.1976
    135  CA        -3.6400  -13.0440  -10.5740 C.3   104  GLU104      0.1602
    136  C         -4.2180  -14.4510  -10.7970 C.2   104  GLU104      0.2287
    137  O         -3.4830  -15.3660  -11.1490 O.2   104  GLU104     -0.2864
    138  CB        -3.2550  -12.9570   -9.0910 C.3   104  GLU104      0.0415
    139  CG        -2.4480  -11.7430   -8.6190 C.3   104  GLU104      0.1163
    140  CD        -3.2510  -10.5120   -8.2350 C.2   104  GLU104      0.3649
    141  OE1       -4.3990  -10.3470   -8.6660 O.co2 104  GLU104     -0.2457
    142  OE2       -2.6960   -9.7110   -7.4320 O.co2 104  GLU104     -0.2457
@<TRIPOS>BOND
     1    15    13   ar
     2    13    14   ar
     3    13    12    1
     4    27    26    1
     5    12     9    1
     6    25    26   ar
     7    25    23   ar
     8    26    24   ar
     9     6     5    1
    10    23    21   ar
    11     1     2    1
    12     9     8    1
    13     9    10    1
    14     8     3   am
    15    24    22   ar
    16     5     7    1
    17     5     2    1
    18   120   119    1
    19     2     3    1
    20     3     4    2
    21    21    22   ar
    22    21    20    1
    23    10    11    2
    24    10    16   am
    25   113   112    1
    26    95    93   ar
    27    16    17    1
    28   119   121    1
    29   119   116    1
    30    20    17    1
    31   115   116    1
    32   115   110   am
    33   112   109    1
    34   112   114    1
    35    17    18    1
    36    93    92    1
    37    93    94   ar
    38   116   117    1
    39   109   110    1
    40   109   108    1
    41    92    91    1
    42   106   105    2
    43   110   111    2
    44    19    18    2
    45    18    28   am
    46    83    82    2
    47   105   108   am
    48   105   104    1
    49   117   122   am
    50   117   118    2
    51    85    84    1
    52    91    88    1
    53   122   123    1
    54    84    86    1
    55    84    81    1
    56    88    87    1
    57    88    89    1
    58    82    87   am
    59    82    81    1
    60    90    89    2
    61   126   123    1
    62    28    29    1
    63   133   131    1
    64    81    80    1
    65   123   124    1
    66   103   104    1
    67   104   107    1
    68   130   129    2
    69   127   124   am
    70   127   128    1
    71    31    30    2
    72    29    30    1
    73    29    32    1
    74   124   125    2
    75    80    74   am
    76   131   128    1
    77   131   132    1
    78    78    77    2
    79   128   129    1
    80   129   134   am
    81    32    33    1
    82    74    75    2
    83    74    73    1
    84    77    79   am
    85    77    76    1
    86   137   136    2
    87   134   135    1
    88   136   135    1
    89    73    76    1
    90    73    72    1
    91   135   138    1
    92    41    43   ar
    93    41    39   ar
    94    43    42   ar
    95    34    35    1
    96   138   139    1
    97    70    68   ar
    98    70    71   ar
    99    37    36    2
   100   141   140   ar
   101    39    38    1
   102    39    40   ar
   103   139   140    1
   104    42    40   ar
   105    68    65   ar
   106    35    38    1
   107    35    36    1
   108   140   142   ar
   109    71    69   ar
   110    65    63   ar
   111    65    67   ar
   112    62    63    1
   113    62    59    1
   114    69    67   ar
   115    60    59    1
   116    60    61    2
   117    63    64   ar
   118    67    66   ar
   119    59    58    1
   120    64    66   ar
   121    52    50   ar
   122    52    53   ar
   123    50    49   ar
   124    55    53   ar
   125    55    57   ar
   126    53    51   ar
   127   101   100    1
   128    96    97    1
   129    57    56   ar
   130    49    51   ar
   131    49    48    1
   132    51    54   ar
   133   100    97    1
   134   100   102    1
   135    97    98    1
   136    99    98    2
   137    48    45    1
   138    56    54   ar
   139    45    46    1
   140    45    44    1
   141    46    47    2
