@<TRIPOS>MOLECULE
tmp/2w66B00.pdb
 173 168 0 0 0
SMALL
GASTEIGER

@<TRIPOS>ATOM
      1  N          1.4920  -38.9140   36.1840 N.3   132  GLY132     -0.1210
      2  CA         2.1250  -37.7470   35.5460 C.3   132  GLY132      0.1956
      3  C          1.7070  -36.3860   36.0870 C.2   132  GLY132      0.2612
      4  O          1.8020  -35.3930   35.3830 O.2   132  GLY132     -0.2717
      5  N          1.2610  -36.3610   37.3520 N.am  133  PHE133     -0.1962
      6  CA         0.7840  -35.1750   38.0440 C.3   133  PHE133      0.1771
      7  C          1.9420  -34.4460   38.7570 C.2   133  PHE133      0.2619
      8  O          3.0370  -35.0280   38.9240 O.2   133  PHE133     -0.2715
      9  CB        -0.3370  -35.5410   39.0500 C.3   133  PHE133      0.0574
     10  CG         0.0910  -36.5660   40.0430 C.ar  133  PHE133     -0.0200
     11  CD1        0.8990  -36.2190   41.1290 C.ar  133  PHE133     -0.0042
     12  CD2       -0.2540  -37.8810   39.8580 C.ar  133  PHE133     -0.0042
     13  CE1        1.3670  -37.2190   42.0050 C.ar  133  PHE133     -0.0003
     14  CE2        0.1740  -38.8490   40.7320 C.ar  133  PHE133     -0.0003
     15  CZ         0.9810  -38.5280   41.8090 C.ar  133  PHE133     -0.0000
     16  N          1.7030  -33.1500   39.0660 N.am  134  TYR134     -0.1974
     17  CA         2.4980  -32.3500   40.0410 C.3   134  TYR134      0.1639
     18  C          2.0670  -32.7150   41.4850 C.2   134  TYR134      0.2290
     19  O          0.8990  -32.9560   41.7100 O.2   134  TYR134     -0.2864
     20  CB         2.2890  -30.8590   39.8050 C.3   134  TYR134      0.0560
     21  CG         2.8690  -30.4110   38.4810 C.ar  134  TYR134     -0.0198
     22  CD1        4.2220  -30.0600   38.3520 C.ar  134  TYR134     -0.0009
     23  CD2        2.0700  -30.3620   37.3520 C.ar  134  TYR134     -0.0009
     24  CE1        4.7510  -29.6810   37.1200 C.ar  134  TYR134      0.0417
     25  CE2        2.5680  -29.9960   36.1430 C.ar  134  TYR134      0.0417
     26  CZ         3.8960  -29.6470   36.0170 C.ar  134  TYR134      0.1957
     27  OH         4.3270  -29.2930   34.7610 O.3   134  TYR134     -0.2866
     28  N          5.7950  -35.5260   37.8050 N.3   163  LYS163     -0.1245
     29  CA         6.4750  -34.2760   37.4600 C.3   163  LYS163      0.1561
     30  C          7.6140  -33.8860   38.4430 C.2   163  LYS163      0.2260
     31  O          8.6350  -33.2610   38.0560 O.2   163  LYS163     -0.2867
     32  CB         5.4680  -33.1300   37.3710 C.3   163  LYS163      0.0271
     33  CG         4.6590  -33.0860   36.0810 C.3   163  LYS163      0.0035
     34  CD         5.5230  -32.8130   34.8570 C.3   163  LYS163      0.0206
     35  CE         4.6300  -32.5340   33.6730 C.3   163  LYS163      0.1093
     36  NZ         3.9020  -33.7000   33.1080 N.3   163  LYS163     -0.1314
     37  N          5.8230  -31.8930   27.7290 N.3   239  ASP239     -0.1225
     38  CA         4.7520  -30.9970   28.1840 C.3   239  ASP239      0.1805
     39  C          5.2210  -29.9220   29.1850 C.2   239  ASP239      0.2597
     40  O          6.1710  -30.1180   29.9720 O.2   239  ASP239     -0.2718
     41  CB         3.6070  -31.8230   28.7790 C.3   239  ASP239      0.1424
     42  CG         4.0920  -32.8280   29.8100 C.2   239  ASP239      0.3668
     43  OD1        5.2260  -33.3140   29.6720 O.co2 239  ASP239     -0.2456
     44  OD2        3.3530  -33.1250   30.7750 O.co2 239  ASP239     -0.2456
     45  N          4.5630  -28.7750   29.1710 N.am  240  ASP240     -0.1974
     46  CA         4.8180  -27.7600   30.1950 C.3   240  ASP240      0.1709
     47  C          6.2490  -27.2690   30.2430 C.2   240  ASP240      0.2293
     48  O          6.7470  -27.0150   31.3340 O.2   240  ASP240     -0.2864
     49  CB         4.4910  -28.3130   31.5900 C.3   240  ASP240      0.1436
     50  CG         3.0000  -28.4370   31.8520 C.2   240  ASP240      0.3671
     51  OD1        2.1520  -28.2550   30.9510 O.co2 240  ASP240     -0.2456
     52  OD2        2.6530  -28.7660   33.0010 O.co2 240  ASP240     -0.2456
     53  N          4.8610  -37.4470   24.6300 N.3   275  CYS275     -0.1235
     54  CA         3.8360  -36.4740   24.8910 C.3   275  CYS275      0.1677
     55  C          4.3100  -35.1280   24.3350 C.2   275  CYS275      0.2270
     56  O          5.4100  -34.6920   24.6410 O.2   275  CYS275     -0.2867
     57  CB         3.4730  -36.3660   26.3890 C.3   275  CYS275      0.0956
     58  SG         2.3250  -34.9310   26.7100 S.3   275  CYS275     -0.0801
     59  N         -0.3290  -30.2450   23.6130 N.3   279  TYR279     -0.1241
     60  CA        -0.9850  -31.4890   23.9560 C.3   279  TYR279      0.1605
     61  C         -2.4840  -31.3740   24.0680 C.2   279  TYR279      0.2264
     62  O         -3.1440  -32.3390   24.4710 O.2   279  TYR279     -0.2867
     63  CB        -0.4310  -32.0700   25.2560 C.3   279  TYR279      0.0534
     64  CG        -0.4460  -31.1050   26.4220 C.ar  279  TYR279     -0.0201
     65  CD1       -1.6330  -30.8020   27.1100 C.ar  279  TYR279     -0.0009
     66  CD2        0.7200  -30.5170   26.8620 C.ar  279  TYR279     -0.0009
     67  CE1       -1.6380  -29.9660   28.1980 C.ar  279  TYR279      0.0417
     68  CE2        0.7200  -29.6690   27.9720 C.ar  279  TYR279      0.0417
     69  CZ        -0.4500  -29.3950   28.6170 C.ar  279  TYR279      0.1957
     70  OH        -0.4140  -28.5400   29.7200 O.3   279  TYR279     -0.2866
     71  N         -4.4200  -25.1300   23.2850 N.3   283  TRP283     -0.1241
     72  CA        -3.0480  -24.7390   23.5360 C.3   283  TRP283      0.1605
     73  C         -2.2520  -25.0080   22.2760 C.2   283  TRP283      0.2264
     74  O         -1.0200  -25.0240   22.2790 O.2   283  TRP283     -0.2867
     75  CB        -2.4480  -25.6270   24.6290 C.3   283  TRP283      0.0550
     76  CG        -2.5410  -25.1360   26.0490 C.ar  283  TRP283      0.0003
     77  CD1       -3.5860  -24.4730   26.6340 C.ar  283  TRP283      0.0946
     78  CD2       -1.5470  -25.3280   27.0830 C.ar  283  TRP283      0.0152
     79  NE1       -3.2980  -24.2360   27.9620 N.ar  283  TRP283     -0.2442
     80  CE2       -2.0510  -24.7370   28.2590 C.ar  283  TRP283      0.0810
     81  CE3       -0.2750  -25.9460   27.1180 C.ar  283  TRP283      0.0012
     82  CZ2       -1.3330  -24.7390   29.4760 C.ar  283  TRP283      0.0191
     83  CZ3        0.4520  -25.9470   28.3340 C.ar  283  TRP283      0.0001
     84  CH2       -0.0920  -25.3540   29.4960 C.ar  283  TRP283      0.0015
     85  N         -4.5620  -34.7280   25.2510 N.3   307  THR307     -0.1218
     86  CA        -5.4300  -34.5960   26.4320 C.3   307  THR307      0.1862
     87  C         -6.8100  -34.0600   26.0550 C.2   307  THR307      0.2287
     88  O         -7.6360  -33.8560   26.9420 O.2   307  THR307     -0.2866
     89  CB        -4.8520  -33.6750   27.5430 C.3   307  THR307      0.1770
     90  OG1       -5.0590  -32.2940   27.1860 O.3   307  THR307     -0.2211
     91  CG2       -3.3940  -33.8660   27.7370 C.3   307  THR307      0.0375
     92  N         -6.7310  -28.4240   28.2370 N.3   311  VAL311     -0.1231
     93  CA        -5.8350  -29.0670   29.1730 C.3   311  VAL311      0.1692
     94  C         -6.5810  -30.2070   29.8970 C.2   311  VAL311      0.2591
     95  O         -6.0670  -31.3160   29.9840 O.2   311  VAL311     -0.2718
     96  CB        -5.2340  -28.0690   30.1970 C.3   311  VAL311      0.0266
     97  CG1       -4.4370  -28.8340   31.2940 C.3   311  VAL311      0.0020
     98  CG2       -4.3770  -27.0070   29.4870 C.3   311  VAL311      0.0020
     99  N         -7.7730  -29.9010   30.4100 N.am  312  ILE312     -0.1980
    100  CA        -8.6910  -30.8560   31.0260 C.3   312  ILE312      0.1595
    101  C         -9.9610  -30.8450   30.2120 C.2   312  ILE312      0.2287
    102  O        -10.6370  -29.7940   30.1110 O.2   312  ILE312     -0.2864
    103  CB        -9.1270  -30.4120   32.4510 C.3   312  ILE312      0.0276
    104  CG1       -8.0000  -29.6820   33.1780 C.3   312  ILE312      0.0022
    105  CG2       -9.6370  -31.6000   33.2340 C.3   312  ILE312      0.0022
    106  CD1       -6.9070  -30.6310   33.6540 C.3   312  ILE312      0.0001
    107  N         -4.3130  -38.9600   27.0420 N.3   334  TRP334     -0.1241
    108  CA        -3.9370  -38.7330   28.4010 C.3   334  TRP334      0.1605
    109  C         -5.0890  -37.9230   28.9690 C.2   334  TRP334      0.2264
    110  O         -5.2300  -36.7000   28.6990 O.2   334  TRP334     -0.2867
    111  CB        -2.6680  -37.9040   28.3670 C.3   334  TRP334      0.0550
    112  CG        -2.1630  -37.2750   29.6710 C.ar  334  TRP334      0.0003
    113  CD1       -2.8940  -36.6730   30.6750 C.ar  334  TRP334      0.0946
    114  CD2       -0.7780  -37.1520   30.0500 C.ar  334  TRP334      0.0152
    115  NE1       -2.0190  -36.2030   31.6700 N.ar  334  TRP334     -0.2442
    116  CE2       -0.7300  -36.4800   31.2960 C.ar  334  TRP334      0.0810
    117  CE3        0.4160  -37.5520   29.4540 C.ar  334  TRP334      0.0012
    118  CZ2        0.4690  -36.2130   31.9530 C.ar  334  TRP334      0.0191
    119  CZ3        1.5860  -37.2890   30.1010 C.ar  334  TRP334      0.0001
    120  CH2        1.6150  -36.6220   31.3430 C.ar  334  TRP334      0.0015
    121  N         -7.0340  -36.0880   31.7150 N.3   336  ASN336     -0.1240
    122  CA        -6.6900  -35.4430   32.9750 C.3   336  ASN336      0.1653
    123  C         -7.8150  -35.4610   34.0020 C.2   336  ASN336      0.2266
    124  O         -8.2930  -34.4320   34.4160 O.2   336  ASN336     -0.2867
    125  CB        -6.2260  -34.0100   32.7420 C.3   336  ASN336      0.1155
    126  CG        -4.7520  -33.9320   32.4040 C.2   336  ASN336      0.2627
    127  OD1       -3.9520  -34.6480   32.9910 O.2   336  ASN336     -0.2716
    128  ND2       -4.3920  -33.0690   31.4380 N.am  336  ASN336     -0.0877
    129  N         -6.9950  -36.4710   38.2570 N.3   339  VAL339     -0.1245
    130  CA        -5.9270  -35.5900   38.6940 C.3   339  VAL339      0.1561
    131  C         -6.4130  -34.2700   39.2910 C.2   339  VAL339      0.2260
    132  O         -7.3340  -33.6480   38.7650 O.2   339  VAL339     -0.2867
    133  CB        -4.9450  -35.3070   37.5500 C.3   339  VAL339      0.0252
    134  CG1       -5.6300  -34.4780   36.4420 C.3   339  VAL339      0.0019
    135  CG2       -3.7200  -34.6230   38.0960 C.3   339  VAL339      0.0019
    136  N         -4.1610  -31.7260   40.7360 N.3   341  ASP341     -0.1225
    137  CA        -2.9860  -30.9880   41.1380 C.3   341  ASP341      0.1805
    138  C         -3.1220  -29.4640   40.9520 C.2   341  ASP341      0.2597
    139  O         -2.2560  -28.7000   41.3060 O.2   341  ASP341     -0.2718
    140  CB        -1.7220  -31.5870   40.5000 C.3   341  ASP341      0.1424
    141  CG        -1.7060  -31.4990   38.9930 C.2   341  ASP341      0.3668
    142  OD1       -2.4770  -30.6960   38.3950 O.co2 341  ASP341     -0.2456
    143  OD2       -0.8750  -32.2420   38.3970 O.co2 341  ASP341     -0.2456
    144  N         -4.2480  -29.0220   40.4360 N.am  342  TYR342     -0.1976
    145  CA        -4.4720  -27.6070   40.3110 C.3   342  TYR342      0.1639
    146  C         -5.7130  -27.2370   41.1100 C.2   342  TYR342      0.2290
    147  O         -6.1440  -26.0870   41.0820 O.2   342  TYR342     -0.2864
    148  CB        -4.6580  -27.2420   38.8350 C.3   342  TYR342      0.0560
    149  CG        -5.8180  -27.9850   38.1970 C.ar  342  TYR342     -0.0198
    150  CD1       -5.6570  -29.2780   37.7160 C.ar  342  TYR342     -0.0009
    151  CD2       -7.0760  -27.4080   38.1010 C.ar  342  TYR342     -0.0009
    152  CE1       -6.6850  -29.9520   37.1360 C.ar  342  TYR342      0.0417
    153  CE2       -8.1250  -28.0990   37.5220 C.ar  342  TYR342      0.0417
    154  CZ        -7.9190  -29.3580   37.0440 C.ar  342  TYR342      0.1957
    155  OH        -8.9450  -30.0490   36.4760 O.3   342  TYR342     -0.2866
    156  N         -4.5530  -39.7890   34.1380 N.3   369  ASN369     -0.1240
    157  CA        -3.6930  -39.0780   35.0460 C.3   369  ASN369      0.1653
    158  C         -4.4780  -38.8790   36.3420 C.2   369  ASN369      0.2266
    159  O         -5.4690  -38.1210   36.3820 O.2   369  ASN369     -0.2867
    160  CB        -3.3830  -37.6920   34.4750 C.3   369  ASN369      0.1155
    161  CG        -2.2160  -37.0380   35.1850 C.2   369  ASN369      0.2627
    162  OD1       -1.4510  -37.7160   35.8770 O.2   369  ASN369     -0.2716
    163  ND2       -2.0880  -35.7050   35.0430 N.am  369  ASN369     -0.0877
    164  N         -8.8110  -23.8200   34.7000 N.3   430  HIS430     -0.1241
    165  CA        -9.0590  -24.6880   33.5600 C.3   430  HIS430      0.1621
    166  C        -10.5050  -24.7760   33.1630 C.2   430  HIS430      0.2264
    167  O        -10.7990  -25.4230   32.1650 O.2   430  HIS430     -0.2867
    168  CB        -8.5670  -26.0960   33.8390 C.3   430  HIS430      0.0745
    169  CG        -7.0850  -26.1890   33.9160 C.ar  430  HIS430      0.0817
    170  ND1       -6.2640  -25.5400   33.0200 N.ar  430  HIS430     -0.2268
    171  CD2       -6.2700  -26.8530   34.7710 C.ar  430  HIS430      0.1154
    172  CE1       -5.0030  -25.7880   33.3300 C.ar  430  HIS430      0.1986
    173  NE2       -4.9800  -26.5830   34.3860 N.ar  430  HIS430     -0.2212
@<TRIPOS>BOND
     1    73    74    2
     2    73    72    1
     3    71    72    1
     4    72    75    1
     5    59    60    1
     6    60    61    1
     7    60    63    1
     8    61    62    2
     9    55    56    2
    10    55    54    1
    11    75    76    1
    12    53    54    1
    13    54    57    1
    14    85    86    1
    15    63    64    1
    16    76    77   ar
    17    76    78   ar
    18    87    86    1
    19    87    88    2
    20    57    58    1
    21    64    66   ar
    22    64    65   ar
    23    86    89    1
    24    77    79   ar
    25    66    68   ar
    26   107   108    1
    27    78    81   ar
    28    78    80   ar
    29    65    67   ar
    30    81    83   ar
    31    90    89    1
    32    89    91    1
    33    37    38    1
    34    79    80   ar
    35    68    69   ar
    36    38    41    1
    37    38    39    1
    38    67    69   ar
    39    92    93    1
    40    80    82   ar
    41    83    84   ar
    42   111   108    1
    43   111   112    1
    44   108   109    1
    45    69    70    1
    46   110   109    2
    47    41    42    1
    48    45    39   am
    49    45    46    1
    50    93    94    1
    51    93    96    1
    52    39    40    2
    53   117   114   ar
    54   117   119   ar
    55    82    84   ar
    56    98    96    1
    57   112   114   ar
    58   112   113   ar
    59    43    42   ar
    60    42    44   ar
    61    94    95    2
    62    94    99   am
    63   114   116   ar
    64   119   120   ar
    65   102   101    2
    66    46    47    1
    67    46    49    1
    68    96    97    1
    69   101   100    1
    70    47    48    2
    71    99   100    1
    72   113   115   ar
    73    51    50   ar
    74   100   103    1
    75   116   115   ar
    76   116   118   ar
    77   120   118   ar
    78   128   126   am
    79    49    50    1
    80   121   122    1
    81    50    52   ar
    82   167   166    2
    83   126   125    1
    84   126   127    2
    85   103   104    1
    86   103   105    1
    87   125   122    1
    88   122   123    1
    89   170   172   ar
    90   170   169   ar
    91    36    35    1
    92   166   165    1
    93   104   106    1
    94   172   173   ar
    95   165   168    1
    96   165   164    1
    97    35    34    1
    98   168   169    1
    99   169   171   ar
   100   123   124    2
   101   156   157    1
   102   173   171   ar
   103   160   157    1
   104   160   161    1
   105    27    26    1
   106    34    33    1
   107   163   161   am
   108   157   158    1
   109   161   162    2
   110     4     3    2
   111     2     3    1
   112     2     1    1
   113    26    25   ar
   114    26    24   ar
   115    33    32    1
   116     3     5   am
   117    25    23   ar
   118   158   159    2
   119   134   133    1
   120   155   154    1
   121   154   152   ar
   122   154   153   ar
   123    24    22   ar
   124   152   150   ar
   125    23    21   ar
   126     5     6    1
   127    32    29    1
   128    29    28    1
   129    29    30    1
   130   153   151   ar
   131   133   135    1
   132   133   130    1
   133   150   149   ar
   134     6     7    1
   135     6     9    1
   136    31    30    2
   137   151   149   ar
   138   149   148    1
   139   129   130    1
   140    22    21   ar
   141   142   141   ar
   142   143   141   ar
   143    21    20    1
   144   130   131    1
   145     7     8    2
   146     7    16   am
   147   132   131    2
   148   148   145    1
   149   141   140    1
   150     9    10    1
   151    16    17    1
   152    20    17    1
   153    12    10   ar
   154    12    14   ar
   155    17    18    1
   156    10    11   ar
   157   145   144    1
   158   145   146    1
   159   144   138   am
   160   140   137    1
   161    14    15   ar
   162   136   137    1
   163   138   137    1
   164   138   139    2
   165   147   146    2
   166    11    13   ar
   167    18    19    2
   168    15    13   ar
