@<TRIPOS>MOLECULE
tmp/2w67B00.pdb
 173 168 0 0 0
SMALL
GASTEIGER

@<TRIPOS>ATOM
      1  N        -13.3500    5.6530   60.2750 N.3   123  GLY123     -0.1210
      2  CA       -12.6040    4.5000   60.8280 C.3   123  GLY123      0.1956
      3  C        -13.0310    3.1710   60.2130 C.2   123  GLY123      0.2612
      4  O        -12.8930    2.1020   60.8300 O.2   123  GLY123     -0.2717
      5  N        -13.5390    3.2230   58.9850 N.am  124  PHE124     -0.1962
      6  CA       -14.0250    2.0210   58.2990 C.3   124  PHE124      0.1771
      7  C        -12.8750    1.3120   57.5990 C.2   124  PHE124      0.2619
      8  O        -11.8250    1.9150   57.3630 O.2   124  PHE124     -0.2715
      9  CB       -15.1550    2.3760   57.2940 C.3   124  PHE124      0.0574
     10  CG       -14.7790    3.4870   56.3500 C.ar  124  PHE124     -0.0200
     11  CD1      -13.8850    3.2560   55.3260 C.ar  124  PHE124     -0.0042
     12  CD2      -15.2830    4.7490   56.5150 C.ar  124  PHE124     -0.0042
     13  CE1      -13.4750    4.2850   54.4680 C.ar  124  PHE124     -0.0003
     14  CE2      -14.8970    5.8000   55.6540 C.ar  124  PHE124     -0.0003
     15  CZ       -13.9890    5.5580   54.6220 C.ar  124  PHE124     -0.0000
     16  N        -13.0580    0.0170   57.3300 N.am  125  TYR125     -0.1974
     17  CA       -12.2560   -0.7350   56.3550 C.3   125  TYR125      0.1639
     18  C        -12.7130   -0.4210   54.9270 C.2   125  TYR125      0.2290
     19  O        -13.9210   -0.3260   54.6800 O.2   125  TYR125     -0.2864
     20  CB       -12.4560   -2.2330   56.5590 C.3   125  TYR125      0.0560
     21  CG       -11.9250   -2.7060   57.8720 C.ar  125  TYR125     -0.0198
     22  CD1      -10.5750   -3.0150   58.0260 C.ar  125  TYR125     -0.0009
     23  CD2      -12.7690   -2.8300   58.9670 C.ar  125  TYR125     -0.0009
     24  CE1      -10.0750   -3.4540   59.2540 C.ar  125  TYR125      0.0417
     25  CE2      -12.3010   -3.2770   60.1850 C.ar  125  TYR125      0.0417
     26  CZ       -10.9520   -3.5820   60.3330 C.ar  125  TYR125      0.1957
     27  OH       -10.4900   -3.9790   61.5640 O.3   125  TYR125     -0.2866
     28  N         -9.1490    2.4830   58.5500 N.3   154  LYS154     -0.1245
     29  CA        -8.5140    1.2140   58.8450 C.3   154  LYS154      0.1561
     30  C         -7.3700    0.8980   57.8620 C.2   154  LYS154      0.2260
     31  O         -6.3120    0.4170   58.2940 O.2   154  LYS154     -0.2867
     32  CB        -9.5430    0.1080   58.9400 C.3   154  LYS154      0.0271
     33  CG       -10.2880    0.1260   60.2760 C.3   154  LYS154      0.0035
     34  CD        -9.5010   -0.5820   61.4100 C.3   154  LYS154      0.0206
     35  CE       -10.3290   -0.7750   62.7150 C.3   154  LYS154      0.1093
     36  NZ       -10.9880    0.4970   63.1650 N.3   154  LYS154     -0.1314
     37  N         -9.2150   -1.4560   68.7140 N.3   230  ASP230     -0.1225
     38  CA       -10.2960   -2.2590   68.1500 C.3   230  ASP230      0.1805
     39  C         -9.7940   -3.2710   67.1130 C.2   230  ASP230      0.2597
     40  O         -8.7880   -3.0350   66.4070 O.2   230  ASP230     -0.2718
     41  CB       -11.3960   -1.3830   67.5490 C.3   230  ASP230      0.1424
     42  CG       -10.8770   -0.4450   66.4420 C.2   230  ASP230      0.3668
     43  OD1       -9.7420    0.1040   66.5740 O.co2 230  ASP230     -0.2456
     44  OD2      -11.6190   -0.2740   65.4330 O.co2 230  ASP230     -0.2456
     45  N        -10.5020   -4.4000   67.0570 N.am  231  ASP231     -0.1974
     46  CA       -10.2590   -5.4740   66.0890 C.3   231  ASP231      0.1709
     47  C         -8.8630   -6.0330   66.1030 C.2   231  ASP231      0.2293
     48  O         -8.2900   -6.2070   65.0460 O.2   231  ASP231     -0.2864
     49  CB       -10.5520   -4.9850   64.6780 C.3   231  ASP231      0.1436
     50  CG       -12.0400   -4.8030   64.4200 C.2   231  ASP231      0.3671
     51  OD1      -12.8550   -4.9750   65.3570 O.co2 231  ASP231     -0.2456
     52  OD2      -12.3910   -4.4610   63.2730 O.co2 231  ASP231     -0.2456
     53  N        -10.1310    3.9890   71.8460 N.3   266  CYS266     -0.1235
     54  CA       -11.1430    2.9870   71.5960 C.3   266  CYS266      0.1677
     55  C        -10.7220    1.6580   72.1670 C.2   266  CYS266      0.2270
     56  O         -9.7280    1.1320   71.7530 O.2   266  CYS266     -0.2867
     57  CB       -11.3220    2.7920   70.0880 C.3   266  CYS266      0.0956
     58  SG       -12.6800    1.6570   69.6970 S.3   266  CYS266     -0.0801
     59  N        -15.2360   -3.1960   72.7590 N.3   270  TYR270     -0.1241
     60  CA       -15.8350   -1.9190   72.3600 C.3   270  TYR270      0.1605
     61  C        -17.3690   -1.8830   72.2830 C.2   270  TYR270      0.2264
     62  O        -17.9780   -0.8420   71.9410 O.2   270  TYR270     -0.2867
     63  CB       -15.2020   -1.3900   71.0670 C.3   270  TYR270      0.0534
     64  CG       -15.2270   -2.2790   69.8390 C.ar  270  TYR270     -0.0201
     65  CD1      -16.4140   -2.5180   69.1340 C.ar  270  TYR270     -0.0009
     66  CD2      -14.0550   -2.8390   69.3440 C.ar  270  TYR270     -0.0009
     67  CE1      -16.4340   -3.2980   67.9960 C.ar  270  TYR270      0.0417
     68  CE2      -14.0560   -3.6060   68.1870 C.ar  270  TYR270      0.0417
     69  CZ       -15.2480   -3.8330   67.5070 C.ar  270  TYR270      0.1957
     70  OH       -15.2470   -4.6130   66.3530 O.3   270  TYR270     -0.2866
     71  N        -18.9800   -8.0170   72.7790 N.3   274  TRP274     -0.1241
     72  CA       -17.5670   -8.3540   72.6210 C.3   274  TRP274      0.1605
     73  C        -16.8480   -8.2660   73.9680 C.2   274  TRP274      0.2264
     74  O        -15.7020   -8.6740   74.0990 O.2   274  TRP274     -0.2867
     75  CB       -16.8900   -7.4490   71.5770 C.3   274  TRP274      0.0550
     76  CG       -17.1420   -7.9240   70.1670 C.ar  274  TRP274      0.0003
     77  CD1      -18.2620   -8.5600   69.7150 C.ar  274  TRP274      0.0946
     78  CD2      -16.2680   -7.7960   69.0350 C.ar  274  TRP274      0.0152
     79  NE1      -18.1430   -8.8350   68.3780 N.ar  274  TRP274     -0.2442
     80  CE2      -16.9310   -8.3690   67.9320 C.ar  274  TRP274      0.0810
     81  CE3      -14.9930   -7.2470   68.8470 C.ar  274  TRP274      0.0012
     82  CZ2      -16.3670   -8.4130   66.6550 C.ar  274  TRP274      0.0191
     83  CZ3      -14.4260   -7.2950   67.5720 C.ar  274  TRP274      0.0001
     84  CH2      -15.1240   -7.8700   66.4910 C.ar  274  TRP274      0.0015
     85  N        -19.3180    1.2420   71.0360 N.3   298  THR298     -0.1218
     86  CA       -20.2850    1.1330   69.9460 C.3   298  THR298      0.1862
     87  C        -21.6660    0.5830   70.3650 C.2   298  THR298      0.2287
     88  O        -22.5230    0.4220   69.5160 O.2   298  THR298     -0.2866
     89  CB       -19.7500    0.2590   68.7900 C.3   298  THR298      0.1770
     90  OG1      -19.7780   -1.1160   69.1880 O.3   298  THR298     -0.2211
     91  CG2      -18.3160    0.6260   68.4400 C.3   298  THR298      0.0375
     92  N        -21.6320   -4.9030   68.0750 N.3   302  VAL302     -0.1231
     93  CA       -20.7110   -4.2120   67.1860 C.3   302  VAL302      0.1692
     94  C        -21.4830   -3.1500   66.4050 C.2   302  VAL302      0.2591
     95  O        -21.0610   -1.9850   66.3120 O.2   302  VAL302     -0.2718
     96  CB       -20.0660   -5.1710   66.1660 C.3   302  VAL302      0.0266
     97  CG1      -19.2580   -4.3410   65.1320 C.3   302  VAL302      0.0020
     98  CG2      -19.2120   -6.2530   66.8610 C.3   302  VAL302      0.0020
     99  N        -22.5980   -3.5700   65.8060 N.am  303  ILE303     -0.1980
    100  CA       -23.5390   -2.6270   65.2490 C.3   303  ILE303      0.1595
    101  C        -24.7580   -2.6430   66.1280 C.2   303  ILE303      0.2287
    102  O        -25.3600   -3.7010   66.3270 O.2   303  ILE303     -0.2864
    103  CB       -23.9600   -2.9990   63.8150 C.3   303  ILE303      0.0276
    104  CG1      -22.7870   -3.6490   63.0840 C.3   303  ILE303      0.0022
    105  CG2      -24.4230   -1.7510   63.0960 C.3   303  ILE303      0.0022
    106  CD1      -21.6270   -2.7100   62.8350 C.3   303  ILE303      0.0001
    107  N        -19.1730    5.5580   69.5350 N.3   325  TRP325     -0.1241
    108  CA       -18.7630    5.3100   68.1510 C.3   325  TRP325      0.1605
    109  C        -19.9550    4.6070   67.5140 C.2   325  TRP325      0.2264
    110  O        -20.1560    3.4140   67.7110 O.2   325  TRP325     -0.2867
    111  CB       -17.5580    4.3390   68.1710 C.3   325  TRP325      0.0550
    112  CG       -17.0800    3.8550   66.8510 C.ar  325  TRP325      0.0003
    113  CD1      -17.8470    3.4560   65.8000 C.ar  325  TRP325      0.0946
    114  CD2      -15.7110    3.7020   66.4340 C.ar  325  TRP325      0.0152
    115  NE1      -17.0460    3.0800   64.7520 N.ar  325  TRP325     -0.2442
    116  CE2      -15.7340    3.2100   65.1110 C.ar  325  TRP325      0.0810
    117  CE3      -14.4700    3.9310   67.0550 C.ar  325  TRP325      0.0012
    118  CZ2      -14.5720    2.9280   64.3860 C.ar  325  TRP325      0.0191
    119  CZ3      -13.2990    3.6560   66.3280 C.ar  325  TRP325      0.0001
    120  CH2      -13.3690    3.1440   64.9970 C.ar  325  TRP325      0.0015
    121  N        -21.8640    2.7060   64.7550 N.3   327  ASN327     -0.1240
    122  CA       -21.5580    1.9780   63.5100 C.3   327  ASN327      0.1653
    123  C        -22.6810    1.9900   62.4510 C.2   327  ASN327      0.2266
    124  O        -23.1490    0.9400   62.0000 O.2   327  ASN327     -0.2867
    125  CB       -21.0560    0.5860   63.8100 C.3   327  ASN327      0.1155
    126  CG       -19.5520    0.5510   64.0490 C.2   327  ASN327      0.2627
    127  OD1      -18.7780    1.2600   63.3810 O.2   327  ASN327     -0.2716
    128  ND2      -19.1250   -0.2960   64.9910 N.am  327  ASN327     -0.0877
    129  N        -21.7540    3.2300   58.2260 N.3   330  VAL330     -0.1245
    130  CA       -20.6570    2.3630   57.7980 C.3   330  VAL330      0.1561
    131  C        -21.2190    1.1100   57.1290 C.2   330  VAL330      0.2260
    132  O        -22.1980    0.5530   57.5920 O.2   330  VAL330     -0.2867
    133  CB       -19.7110    1.9400   58.9370 C.3   330  VAL330      0.0252
    134  CG1      -20.5080    1.3560   60.1070 C.3   330  VAL330      0.0019
    135  CG2      -18.7040    0.9120   58.4000 C.3   330  VAL330      0.0019
    136  N        -18.8840   -1.2970   55.5620 N.3   332  ASP332     -0.1225
    137  CA       -17.7160   -2.0670   55.1910 C.3   332  ASP332      0.1805
    138  C        -17.8890   -3.5860   55.3290 C.2   332  ASP332      0.2597
    139  O        -17.0240   -4.3490   54.9010 O.2   332  ASP332     -0.2718
    140  CB       -16.4280   -1.5480   55.8920 C.3   332  ASP332      0.1424
    141  CG       -16.4940   -1.5870   57.4170 C.2   332  ASP332      0.3668
    142  OD1      -17.4100   -2.2190   57.9870 O.co2 332  ASP332     -0.2456
    143  OD2      -15.5860   -0.9700   58.0630 O.co2 332  ASP332     -0.2456
    144  N        -19.0040   -4.0310   55.8980 N.am  333  TYR333     -0.1976
    145  CA       -19.2350   -5.4850   56.0270 C.3   333  TYR333      0.1639
    146  C        -20.4980   -5.8790   55.2280 C.2   333  TYR333      0.2290
    147  O        -20.9030   -7.0550   55.2100 O.2   333  TYR333     -0.2864
    148  CB       -19.3760   -5.9030   57.5080 C.3   333  TYR333      0.0560
    149  CG       -20.5230   -5.1760   58.1490 C.ar  333  TYR333     -0.0198
    150  CD1      -20.3990   -3.8560   58.5650 C.ar  333  TYR333     -0.0009
    151  CD2      -21.7500   -5.7820   58.2990 C.ar  333  TYR333     -0.0009
    152  CE1      -21.4770   -3.1730   59.1360 C.ar  333  TYR333      0.0417
    153  CE2      -22.8230   -5.1040   58.8710 C.ar  333  TYR333      0.0417
    154  CZ       -22.6900   -3.8060   59.2740 C.ar  333  TYR333      0.1957
    155  OH       -23.7870   -3.1600   59.8440 O.3   333  TYR333     -0.2866
    156  N        -19.4950    6.3250   62.3470 N.3   360  ASN360     -0.1240
    157  CA       -18.6540    5.6230   61.3630 C.3   360  ASN360      0.1653
    158  C        -19.4560    5.5030   60.0510 C.2   360  ASN360      0.2266
    159  O        -20.4280    4.7470   59.9930 O.2   360  ASN360     -0.2867
    160  CB       -18.2960    4.2460   61.8860 C.3   360  ASN360      0.1155
    161  CG       -17.1300    3.6110   61.1490 C.2   360  ASN360      0.2627
    162  OD1      -16.3940    4.2750   60.4480 O.2   360  ASN360     -0.2716
    163  ND2      -16.9840    2.3000   61.2910 N.am  360  ASN360     -0.0877
    164  N        -23.4430   -9.2570   61.5800 N.3   421  HIS421     -0.1241
    165  CA       -23.7200   -8.4060   62.7560 C.3   421  HIS421      0.1621
    166  C        -25.1960   -8.3950   63.1830 C.2   421  HIS421      0.2264
    167  O        -25.5470   -7.8800   64.2500 O.2   421  HIS421     -0.2867
    168  CB       -23.1930   -6.9910   62.5630 C.3   421  HIS421      0.0745
    169  CG       -21.7010   -6.9270   62.4690 C.ar  421  HIS421      0.0817
    170  ND1      -20.8780   -7.5560   63.3750 N.ar  421  HIS421     -0.2268
    171  CD2      -20.8820   -6.3480   61.5530 C.ar  421  HIS421      0.1154
    172  CE1      -19.6140   -7.3470   63.0410 C.ar  421  HIS421      0.1986
    173  NE2      -19.5900   -6.6080   61.9460 N.ar  421  HIS421     -0.2212
@<TRIPOS>BOND
     1    13    15   ar
     2    13    11   ar
     3    15    14   ar
     4    19    18    2
     5   139   138    2
     6    18    17    1
     7   137   138    1
     8   137   136    1
     9   137   140    1
    10   147   146    2
    11   146   145    1
    12    11    10   ar
    13   138   144   am
    14    14    12   ar
    15   140   141    1
    16   144   145    1
    17   145   148    1
    18    10    12   ar
    19    10     9    1
    20    17    20    1
    21    17    16    1
    22    20    21    1
    23   131   132    2
    24   131   130    1
    25     9     6    1
    26    16     7   am
    27     8     7    2
    28   141   142   ar
    29   141   143   ar
    30   148   149    1
    31     7     6    1
    32   130   129    1
    33   130   133    1
    34    30    31    2
    35    30    29    1
    36    21    22   ar
    37    21    23   ar
    38    22    24   ar
    39   149   151   ar
    40   149   150   ar
    41     6     5    1
    42   151   153   ar
    43   135   133    1
    44    28    29    1
    45   150   152   ar
    46    29    32    1
    47   153   154   ar
    48   133   134    1
    49    32    33    1
    50    23    25   ar
    51     5     3   am
    52   152   154   ar
    53    24    26   ar
    54   154   155    1
    55   159   158    2
    56   158   157    1
    57    25    26   ar
    58     3     2    1
    59     3     4    2
    60     1     2    1
    61    33    34    1
    62    26    27    1
    63   162   161    2
    64   161   163   am
    65   161   160    1
    66   157   160    1
    67   157   156    1
    68    34    35    1
    69   171   173   ar
    70   171   169   ar
    71   164   165    1
    72   173   172   ar
    73   124   123    2
    74   123   122    1
    75   169   168    1
    76   169   170   ar
    77   168   165    1
    78    35    36    1
    79   165   166    1
    80   106   104    1
    81   172   170   ar
    82   104   103    1
    83   105   103    1
    84   166   167    2
    85    52    50   ar
    86   127   126    2
    87   122   125    1
    88   122   121    1
    89   125   126    1
    90   103   100    1
    91   126   128   am
    92   118   120   ar
    93   118   116   ar
    94    50    49    1
    95    50    51   ar
    96    49    46    1
    97   115   116   ar
    98   115   113   ar
    99   120   119   ar
   100    48    47    2
   101   116   114   ar
   102    97    96    1
   103   100    99    1
   104   100   101    1
   105    44    42   ar
   106   113   112   ar
   107    99    94   am
   108    46    47    1
   109    46    45    1
   110   101   102    2
   111    96    98    1
   112    96    93    1
   113    95    94    2
   114   119   117   ar
   115    70    69    1
   116    94    93    1
   117    40    39    2
   118   114   112   ar
   119   114   117   ar
   120    42    43   ar
   121    42    41    1
   122    84    82   ar
   123    84    83   ar
   124    82    80   ar
   125   112   111    1
   126    45    39   am
   127    39    38    1
   128    93    92    1
   129    69    67   ar
   130    69    68   ar
   131   109   110    2
   132   109   108    1
   133    41    38    1
   134    83    81   ar
   135    80    79   ar
   136    80    78   ar
   137    67    65   ar
   138    38    37    1
   139   108   111    1
   140   108   107    1
   141    68    66   ar
   142    79    77   ar
   143    91    89    1
   144    89    90    1
   145    89    86    1
   146    81    78   ar
   147    78    76   ar
   148    65    64   ar
   149    66    64   ar
   150    88    87    2
   151    58    57    1
   152    77    76   ar
   153    64    63    1
   154    86    87    1
   155    86    85    1
   156    57    54    1
   157    76    75    1
   158    63    60    1
   159    75    72    1
   160    54    53    1
   161    54    55    1
   162    56    55    2
   163    62    61    2
   164    61    60    1
   165    60    59    1
   166    72    71    1
   167    72    73    1
   168    73    74    2
