@<TRIPOS>MOLECULE
tmp/2w68C00.pdb
 106 97 0 0 0
SMALL
GASTEIGER

@<TRIPOS>ATOM
      1  N         24.0980  -54.2860   25.1270 N.3    29  THR29      -0.1218
      2  CA        24.1130  -55.6920   24.7110 C.3    29  THR29       0.1862
      3  C         25.5770  -56.1540   24.6060 C.2    29  THR29       0.2287
      4  O         26.4470  -55.3600   24.1900 O.2    29  THR29      -0.2866
      5  CB        23.4120  -55.9300   23.3290 C.3    29  THR29       0.1770
      6  OG1       24.0820  -55.1600   22.3250 O.3    29  THR29      -0.2211
      7  CG2       21.9010  -55.5820   23.3390 C.3    29  THR29       0.0375
      8  N         26.0070  -52.9180   22.0870 N.3    53  ARG53      -0.1245
      9  CA        25.2590  -51.7020   22.2270 C.3    53  ARG53       0.1563
     10  C         25.4970  -51.1100   23.5860 C.2    53  ARG53       0.2260
     11  O         25.4770  -51.8170   24.5980 O.2    53  ARG53      -0.2867
     12  CB        23.7710  -51.9630   22.0520 C.3    53  ARG53       0.0307
     13  CG        22.9550  -50.6920   22.1070 C.3    53  ARG53       0.0489
     14  CD        21.5120  -50.8660   21.7240 C.3    53  ARG53       0.2205
     15  NE        20.7990  -51.4900   22.8200 N.pl3  53  ARG53      -0.0865
     16  CZ        20.0900  -52.6120   22.7230 C.cat  53  ARG53       0.5346
     17  NH1       19.9670  -53.2420   21.5600 N.pl3  53  ARG53       0.1354
     18  NH2       19.4810  -53.0740   23.8000 N.pl3  53  ARG53       0.1354
     19  N         23.9050  -47.7530   25.5600 N.3    55  GLN55      -0.1245
     20  CA        23.0550  -46.5540   25.5910 C.3    55  GLN55       0.1566
     21  C         22.2110  -46.4960   26.8440 C.2    55  GLN55       0.2260
     22  O         22.0210  -47.5100   27.5210 O.2    55  GLN55      -0.2867
     23  CB        22.1150  -46.5360   24.3820 C.3    55  GLN55       0.0367
     24  CG        21.0780  -47.6300   24.4260 C.3    55  GLN55       0.0905
     25  CD        20.1470  -47.5970   23.2540 C.2    55  GLN55       0.2608
     26  OE1       20.5580  -47.3540   22.1180 O.2    55  GLN55      -0.2717
     27  NE2       18.8610  -47.8530   23.5200 N.am   55  GLN55      -0.0878
     28  N         27.3960  -44.9560   14.6170 N.3    86  MET86      -0.1245
     29  CA        26.1400  -45.1710   15.3100 C.3    86  MET86       0.1570
     30  C         26.0980  -44.4650   16.6360 C.2    86  MET86       0.2261
     31  O         25.7500  -45.0300   17.6510 O.2    86  MET86      -0.2867
     32  CB        25.8130  -46.6460   15.4310 C.3    86  MET86       0.0387
     33  CG        25.3040  -47.2050   14.0880 C.3    86  MET86       0.0595
     34  SD        23.7560  -46.4310   13.5120 S.3    86  MET86      -0.1393
     35  CE        22.5240  -47.4680   14.3550 C.3    86  MET86       0.0692
     36  N         24.0570  -42.2160   18.5870 N.3    88  THR88      -0.1218
     37  CA        22.6260  -41.9690   18.3750 C.3    88  THR88       0.1862
     38  C         21.9450  -41.2840   19.5640 C.2    88  THR88       0.2287
     39  O         21.6070  -41.8920   20.5520 O.2    88  THR88      -0.2866
     40  CB        21.9060  -43.2940   18.0730 C.3    88  THR88       0.1770
     41  OG1       22.2450  -44.2790   19.0680 O.3    88  THR88      -0.2211
     42  CG2       22.2740  -43.7980   16.7180 C.3    88  THR88       0.0375
     43  N         18.6760  -39.1100   20.3490 N.3    90  TYR90      -0.1241
     44  CA        17.4230  -38.8170   19.6620 C.3    90  TYR90       0.1605
     45  C         16.2160  -39.0220   20.5860 C.2    90  TYR90       0.2264
     46  O         16.3850  -39.3150   21.7900 O.2    90  TYR90      -0.2867
     47  CB        17.2940  -39.6940   18.4010 C.3    90  TYR90       0.0534
     48  CG        17.1340  -41.1990   18.6390 C.ar   90  TYR90      -0.0201
     49  CD1       18.2440  -42.0200   18.9400 C.ar   90  TYR90      -0.0009
     50  CD2       15.8780  -41.8080   18.5340 C.ar   90  TYR90      -0.0009
     51  CE1       18.0990  -43.4160   19.1360 C.ar   90  TYR90       0.0417
     52  CE2       15.7220  -43.1920   18.7090 C.ar   90  TYR90       0.0417
     53  CZ        16.8340  -43.9850   19.0220 C.ar   90  TYR90       0.1957
     54  OH        16.6440  -45.3260   19.2140 O.3    90  TYR90      -0.2866
     55  N         10.0600  -40.6640   14.8380 N.3    97  ARG97      -0.1245
     56  CA        11.2730  -40.2270   15.5170 C.3    97  ARG97       0.1563
     57  C         12.0540  -39.2750   14.6540 C.2    97  ARG97       0.2260
     58  O         11.7670  -39.1390   13.4780 O.2    97  ARG97      -0.2867
     59  CB        12.1260  -41.4480   15.9140 C.3    97  ARG97       0.0307
     60  CG        12.9190  -42.1610   14.7990 C.3    97  ARG97       0.0489
     61  CD        13.5380  -43.5220   15.3080 C.3    97  ARG97       0.2205
     62  NE        14.2010  -44.3130   14.2590 N.pl3  97  ARG97      -0.0865
     63  CZ        14.9070  -45.4320   14.4650 C.cat  97  ARG97       0.5346
     64  NH1       15.0550  -45.9400   15.6880 N.pl3  97  ARG97       0.1354
     65  NH2       15.4770  -46.0500   13.4340 N.pl3  97  ARG97       0.1354
     66  N         16.0550  -38.9920   13.9780 N.3    99  LEU99      -0.1245
     67  CA        17.3270  -39.6680   14.3290 C.3    99  LEU99       0.1561
     68  C         18.5650  -39.1290   13.5910 C.2    99  LEU99       0.2260
     69  O         18.7890  -39.4850   12.4220 O.2    99  LEU99      -0.2867
     70  CB        17.1720  -41.1750   14.0490 C.3    99  LEU99       0.0270
     71  CG        18.3370  -42.1660   14.0670 C.3    99  LEU99       0.0019
     72  CD1       19.0650  -42.1260   15.3850 C.3    99  LEU99       0.0001
     73  CD2       17.8020  -43.5120   13.8250 C.3    99  LEU99       0.0001
     74  N          9.4580  -47.0780   18.3010 N.3   167  GLN167     -0.1245
     75  CA        10.2360  -46.9640   19.5280 C.3   167  GLN167      0.1566
     76  C          9.7370  -45.8550   20.4280 C.2   167  GLN167      0.2260
     77  O          9.4040  -44.7700   19.9420 O.2   167  GLN167     -0.2867
     78  CB        11.7160  -46.7660   19.2110 C.3   167  GLN167      0.0367
     79  CG        12.4680  -48.0670   18.8910 C.3   167  GLN167      0.0905
     80  CD        13.9500  -47.8210   18.6230 C.2   167  GLN167      0.2608
     81  OE1       14.4310  -46.6830   18.6790 O.2   167  GLN167     -0.2717
     82  NE2       14.6740  -48.8810   18.2990 N.am  167  GLN167     -0.0878
     83  N         23.7780  -46.6960   19.5160 N.3   175  GLY175     -0.1210
     84  CA        22.5440  -47.4460   19.4020 C.3   175  GLY175      0.1956
     85  C         22.7130  -48.5210   18.3880 C.2   175  GLY175      0.2613
     86  O         22.0330  -48.5180   17.3840 O.2   175  GLY175     -0.2717
     87  N         23.6520  -49.4270   18.6240 N.am  176  SER176     -0.1938
     88  CA        23.9320  -50.4880   17.6590 C.3   176  SER176      0.2055
     89  C         24.7390  -51.5900   18.3010 C.2   176  SER176      0.2644
     90  O         25.6860  -51.3340   19.0420 O.2   176  SER176     -0.2714
     91  CB        24.7200  -49.9450   16.4810 C.3   176  SER176      0.2130
     92  OG        24.8170  -50.9080   15.4620 O.3   176  SER176     -0.2179
     93  N         24.3360  -52.8160   17.9990 N.am  177  SER177     -0.1935
     94  CA        25.0230  -54.0350   18.4130 C.3   177  SER177      0.2055
     95  C         26.1490  -54.3650   17.4680 C.2   177  SER177      0.2643
     96  O         27.1050  -54.9740   17.8790 O.2   177  SER177     -0.2714
     97  CB        24.0480  -55.2140   18.4430 C.3   177  SER177      0.2130
     98  OG        23.1830  -55.0710   19.5430 O.3   177  SER177     -0.2179
     99  N         26.0210  -53.9690   16.2070 N.am  178  ASN178     -0.1971
    100  CA        27.0000  -54.3190   15.1920 C.3   178  ASN178      0.1688
    101  C         27.9550  -53.2070   14.7570 C.2   178  ASN178      0.2292
    102  O         29.0330  -53.5120   14.2560 O.2   178  ASN178     -0.2864
    103  CB        26.2910  -54.9380   13.9970 C.3   178  ASN178      0.1181
    104  CG        25.4620  -56.1640   14.4030 C.2   178  ASN178      0.2629
    105  OD1       24.2290  -56.2090   14.1930 O.2   178  ASN178     -0.2716
    106  ND2       26.1270  -57.1440   15.0510 N.am  178  ASN178     -0.0877
@<TRIPOS>BOND
     1    69    68    2
     2    65    63    1
     3    58    57    2
     4    34    33    1
     5    34    35    1
     6    68    67    1
     7    73    71    1
     8    66    67    1
     9   103   104    1
    10   103   100    1
    11    70    71    1
    12    70    67    1
    13    71    72    1
    14    33    32    1
    15   105   104    2
    16   102   101    2
    17    62    63    2
    18    62    61    1
    19   104   106   am
    20    63    64    1
    21    28    29    1
    22    57    56    1
    23   101   100    1
    24    60    61    1
    25    60    59    1
    26    55    56    1
    27   100    99    1
    28    29    32    1
    29    29    30    1
    30    92    91    1
    31    56    59    1
    32    99    95   am
    33    91    88    1
    34    30    31    2
    35    42    40    1
    36    86    85    2
    37    95    96    2
    38    95    94    1
    39    88    89    1
    40    88    87    1
    41    93    89   am
    42    93    94    1
    43    40    37    1
    44    40    41    1
    45    82    80   am
    46    89    90    2
    47    74    75    1
    48    37    36    1
    49    37    38    1
    50    85    87   am
    51    85    84    1
    52    47    48    1
    53    47    44    1
    54    94    97    1
    55    97    98    1
    56    50    48   ar
    57    50    52   ar
    58    80    81    2
    59    80    79    1
    60    48    49   ar
    61    52    53   ar
    62    79    78    1
    63    49    51   ar
    64    53    51   ar
    65    53    54    1
    66    78    75    1
    67    84    83    1
    68    75    76    1
    69    38    39    2
    70    44    43    1
    71    44    45    1
    72    77    76    2
    73    45    46    2
    74    17    16    1
    75    14    13    1
    76    14    15    1
    77    12    13    1
    78    12     9    1
    79     8     9    1
    80    26    25    2
    81     9    10    1
    82     6     5    1
    83    16    15    2
    84    16    18    1
    85    25    27   am
    86    25    24    1
    87     5     7    1
    88     5     2    1
    89    10    11    2
    90     4     3    2
    91    23    24    1
    92    23    20    1
    93     3     2    1
    94     2     1    1
    95    19    20    1
    96    20    21    1
    97    21    22    2
