@<TRIPOS>MOLECULE
tmp/2w6cA00.pdb
 223 222 0 0 0
SMALL
GASTEIGER

@<TRIPOS>ATOM
      1  N         -7.3630   64.0800   66.5690 N.3    67  TYR67      -0.1241
      2  CA        -6.9770   64.2520   67.9470 C.3    67  TYR67       0.1605
      3  C         -6.3840   65.6340   68.1430 C.2    67  TYR67       0.2264
      4  O         -5.6540   66.1010   67.2800 O.2    67  TYR67      -0.2867
      5  CB        -5.9860   63.1900   68.3090 C.3    67  TYR67       0.0534
      6  CG        -5.3740   63.4110   69.6400 C.ar   67  TYR67      -0.0201
      7  CD1       -5.9560   62.8690   70.7990 C.ar   67  TYR67      -0.0009
      8  CD2       -4.1930   64.1760   69.7610 C.ar   67  TYR67      -0.0009
      9  CE1       -5.3880   63.0820   72.0230 C.ar   67  TYR67       0.0417
     10  CE2       -3.6190   64.3920   70.9880 C.ar   67  TYR67       0.0417
     11  CZ        -4.2170   63.8430   72.1070 C.ar   67  TYR67       0.1957
     12  OH        -3.6250   64.0670   73.3190 O.3    67  TYR67      -0.2866
     13  N         -4.1270   68.3920   70.3420 N.3    69  ASP69      -0.1239
     14  CA        -3.0720   68.5010   71.3690 C.3    69  ASP69       0.1674
     15  C         -3.5060   69.4880   72.4450 C.2    69  ASP69       0.2266
     16  O         -3.7950   70.6250   72.1520 O.2    69  ASP69      -0.2867
     17  CB        -1.7900   69.0140   70.7380 C.3    69  ASP69       0.1410
     18  CG        -0.6210   69.1140   71.7260 C.2    69  ASP69       0.3668
     19  OD1       -0.7180   68.7060   72.8740 O.co2  69  ASP69      -0.2456
     20  OD2        0.4460   69.6080   71.3620 O.co2  69  ASP69      -0.2456
     21  N          2.5040   74.8440   70.6330 N.3    78  SER78      -0.1217
     22  CA         1.7640   73.6280   70.3450 C.3    78  SER78       0.1889
     23  C          0.4260   73.9170   69.6560 C.2    78  SER78       0.2288
     24  O         -0.0440   73.1420   68.8050 O.2    78  SER78      -0.2866
     25  CB         1.5340   72.8160   71.6330 C.3    78  SER78       0.2089
     26  OG         0.6550   73.4910   72.5020 O.3    78  SER78      -0.2183
     27  N         -0.4230   74.2590   65.8230 N.3    81  TRP81      -0.1241
     28  CA        -0.5300   73.0370   65.0150 C.3    81  TRP81       0.1605
     29  C         -1.9300   72.4470   65.0210 C.2    81  TRP81       0.2264
     30  O         -2.2580   71.6110   64.1700 O.2    81  TRP81      -0.2867
     31  CB         0.4960   71.9790   65.4510 C.3    81  TRP81       0.0550
     32  CG         1.8750   72.5040   65.3850 C.ar   81  TRP81       0.0003
     33  CD1        2.6400   72.9190   66.4380 C.ar   81  TRP81       0.0946
     34  CD2        2.6800   72.6960   64.2090 C.ar   81  TRP81       0.0152
     35  NE1        3.8740   73.3380   65.9970 N.ar   81  TRP81      -0.2442
     36  CE2        3.9240   73.2240   64.6340 C.ar   81  TRP81       0.0810
     37  CE3        2.4790   72.4710   62.8410 C.ar   81  TRP81       0.0012
     38  CZ2        4.9630   73.5410   63.7330 C.ar   81  TRP81       0.0191
     39  CZ3        3.5230   72.7760   61.9510 C.ar   81  TRP81       0.0001
     40  CH2        4.7470   73.3120   62.4160 C.ar   81  TRP81       0.0015
     41  N          1.9990   67.1070   57.2040 N.3   114  GLY114     -0.1210
     42  CA         2.3430   65.9670   58.0930 C.3   114  GLY114      0.1956
     43  C          1.4570   65.9510   59.3290 C.2   114  GLY114      0.2612
     44  O          0.3500   66.5170   59.2840 O.2   114  GLY114     -0.2717
     45  N          1.9230   65.3210   60.4190 N.am  115  GLY115     -0.1942
     46  CA         1.0600   65.0650   61.6210 C.3   115  GLY115      0.2014
     47  C          0.9490   63.5920   62.0520 C.2   115  GLY115      0.2639
     48  O         -0.0660   63.1520   62.6540 O.2   115  GLY115     -0.2714
     49  N          1.9920   62.8090   61.7420 N.am  116  GLY116     -0.1954
     50  CA         1.9850   61.3760   62.0160 C.3   116  GLY116      0.1869
     51  C          0.7840   60.5670   61.5370 C.2   116  GLY116      0.2309
     52  O          0.5210   59.4630   62.0770 O.2   116  GLY116     -0.2863
     53  N         -2.1500   61.0170   62.1100 N.3   118  TYR118     -0.1227
     54  CA        -3.2560   61.0730   63.0660 C.3   118  TYR118      0.1736
     55  C         -3.8230   62.4920   63.1350 C.2   118  TYR118      0.2596
     56  O         -4.8390   62.7070   63.7810 O.2   118  TYR118     -0.2718
     57  CB        -2.8280   60.5580   64.4790 C.3   118  TYR118      0.0548
     58  CG        -1.9690   61.5210   65.2780 C.ar  118  TYR118     -0.0200
     59  CD1       -2.5420   62.6060   65.9420 C.ar  118  TYR118     -0.0009
     60  CD2       -0.5850   61.3790   65.3290 C.ar  118  TYR118     -0.0009
     61  CE1       -1.7500   63.5410   66.7000 C.ar  118  TYR118      0.0417
     62  CE2        0.2090   62.2500   66.0680 C.ar  118  TYR118      0.0417
     63  CZ        -0.3810   63.3390   66.7760 C.ar  118  TYR118      0.1957
     64  OH         0.4030   64.2310   67.5150 O.3   118  TYR118     -0.2866
     65  N         -3.1880   63.4440   62.4540 N.am  119  SER119     -0.1952
     66  CA        -3.5110   64.8390   62.6540 C.3   119  SER119      0.1924
     67  C         -2.9980   65.7200   61.5280 C.2   119  SER119      0.2314
     68  O         -2.1830   65.2750   60.7430 O.2   119  SER119     -0.2863
     69  CB        -2.9070   65.3140   63.9740 C.3   119  SER119      0.2116
     70  OG        -1.4970   65.4660   63.9040 O.3   119  SER119     -0.2180
     71  N         -3.3170   76.0220   58.2940 N.3   124  LEU124     -0.1245
     72  CA        -2.6600   76.5720   59.4420 C.3   124  LEU124      0.1561
     73  C         -1.8610   77.8040   59.1000 C.2   124  LEU124      0.2260
     74  O         -1.3090   77.9290   58.0170 O.2   124  LEU124     -0.2867
     75  CB        -1.6740   75.5670   60.0270 C.3   124  LEU124      0.0270
     76  CG        -2.0590   74.1800   60.5170 C.3   124  LEU124      0.0019
     77  CD1       -0.7530   73.4470   60.9170 C.3   124  LEU124      0.0001
     78  CD2       -3.0180   74.2140   61.6600 C.3   124  LEU124      0.0001
     79  N          1.2050   77.2390   57.1070 N.3   127  TYR127     -0.1241
     80  CA         1.1050   76.7050   55.7300 C.3   127  TYR127      0.1605
     81  C          0.4930   77.7080   54.7590 C.2   127  TYR127      0.2264
     82  O          0.0060   77.3160   53.7190 O.2   127  TYR127     -0.2867
     83  CB         0.3040   75.4030   55.6450 C.3   127  TYR127      0.0534
     84  CG         0.7610   74.2840   56.5480 C.ar  127  TYR127     -0.0201
     85  CD1        2.1280   74.1040   56.8770 C.ar  127  TYR127     -0.0009
     86  CD2       -0.1690   73.3710   57.0510 C.ar  127  TYR127     -0.0009
     87  CE1        2.5330   73.0570   57.6810 C.ar  127  TYR127      0.0417
     88  CE2        0.2280   72.3100   57.8580 C.ar  127  TYR127      0.0417
     89  CZ         1.5780   72.1450   58.1790 C.ar  127  TYR127      0.1957
     90  OH         1.9300   71.0710   59.0310 O.3   127  TYR127     -0.2866
     91  N          6.0300   67.4420   54.8690 N.3   196  GLU196     -0.1231
     92  CA         6.9170   67.3170   56.0040 C.3   196  GLU196      0.1699
     93  C          6.4030   66.2050   56.9070 C.2   196  GLU196      0.2592
     94  O          5.2060   66.0890   57.0640 O.2   196  GLU196     -0.2718
     95  CB         6.9730   68.6280   56.7640 C.3   196  GLU196      0.0402
     96  CG         7.9340   68.6080   57.9390 C.3   196  GLU196      0.1161
     97  CD         7.3030   68.1210   59.2440 C.2   196  GLU196      0.3649
     98  OE1        6.0760   67.9580   59.3040 O.co2 196  GLU196     -0.2457
     99  OE2        8.0290   67.9070   60.2320 O.co2 196  GLU196     -0.2457
    100  N          7.3160   65.3910   57.4650 N.am  197  SER197     -0.1952
    101  CA         6.9830   64.2960   58.3890 C.3   197  SER197      0.1924
    102  C          5.9870   63.3750   57.6570 C.2   197  SER197      0.2314
    103  O          6.3460   62.9860   56.5580 O.2   197  SER197     -0.2863
    104  CB         6.5690   64.8100   59.7730 C.3   197  SER197      0.2116
    105  OG         5.2380   65.2820   59.7950 O.3   197  SER197     -0.2180
    106  N          7.5350   54.2710   61.5910 N.3   230  TRP230     -0.1241
    107  CA         6.1950   54.6490   62.1190 C.3   230  TRP230      0.1605
    108  C          5.2060   54.9040   60.9610 C.2   230  TRP230      0.2264
    109  O          4.0170   55.1780   61.1930 O.2   230  TRP230     -0.2867
    110  CB         6.2600   55.9330   62.9790 C.3   230  TRP230      0.0550
    111  CG         7.0620   57.0420   62.2710 C.ar  230  TRP230      0.0003
    112  CD1        8.3960   57.3080   62.4340 C.ar  230  TRP230      0.0946
    113  CD2        6.6010   57.9490   61.2600 C.ar  230  TRP230      0.0152
    114  NE1        8.7970   58.3180   61.6050 N.ar  230  TRP230     -0.2442
    115  CE2        7.7310   58.7430   60.8650 C.ar  230  TRP230      0.0810
    116  CE3        5.3550   58.1780   60.6540 C.ar  230  TRP230      0.0012
    117  CZ2        7.6660   59.7500   59.8880 C.ar  230  TRP230      0.0191
    118  CZ3        5.2620   59.2090   59.6930 C.ar  230  TRP230      0.0001
    119  CH2        6.4400   59.9830   59.3080 C.ar  230  TRP230      0.0015
    120  N         -5.6220   56.0050   70.7600 N.3   276  TRP276     -0.1241
    121  CA        -4.2930   55.7120   71.2530 C.3   276  TRP276      0.1605
    122  C         -4.1950   54.4050   71.9910 C.2   276  TRP276      0.2264
    123  O         -3.0750   53.9350   72.2070 O.2   276  TRP276     -0.2867
    124  CB        -3.7690   56.8600   72.1270 C.3   276  TRP276      0.0550
    125  CG        -3.4850   58.0900   71.3290 C.ar  276  TRP276      0.0003
    126  CD1       -4.3280   59.1670   71.1480 C.ar  276  TRP276      0.0946
    127  CD2       -2.2940   58.3840   70.5710 C.ar  276  TRP276      0.0152
    128  NE1       -3.7150   60.1130   70.3640 N.ar  276  TRP276     -0.2442
    129  CE2       -2.4840   59.6540   69.9700 C.ar  276  TRP276      0.0810
    130  CE3       -1.1000   57.6980   70.3330 C.ar  276  TRP276      0.0012
    131  CZ2       -1.5170   60.2570   69.1530 C.ar  276  TRP276      0.0191
    132  CZ3       -0.1230   58.3030   69.5180 C.ar  276  TRP276      0.0001
    133  CH2       -0.3410   59.5740   68.9430 C.ar  276  TRP276      0.0015
    134  N          6.9070   58.2140   69.2940 N.3   285  PHE285     -0.1241
    135  CA         6.9570   58.2600   67.8010 C.3   285  PHE285      0.1605
    136  C          6.2750   57.0260   67.1150 C.2   285  PHE285      0.2264
    137  O          6.8180   56.4180   66.1480 O.2   285  PHE285     -0.2867
    138  CB         8.4000   58.4270   67.3480 C.3   285  PHE285      0.0534
    139  CG         8.5980   59.3740   66.1490 C.ar  285  PHE285     -0.0203
    140  CD1        7.7760   59.3150   65.0170 C.ar  285  PHE285     -0.0042
    141  CD2        9.6340   60.3190   66.1540 C.ar  285  PHE285     -0.0042
    142  CE1        7.9830   60.1700   63.9290 C.ar  285  PHE285     -0.0003
    143  CE2        9.8260   61.1660   65.0830 C.ar  285  PHE285     -0.0003
    144  CZ         8.9930   61.0840   63.9600 C.ar  285  PHE285     -0.0000
    145  N          2.0840   55.6980   65.9320 N.3   287  PHE287     -0.1241
    146  CA         0.7330   56.2110   65.7050 C.3   287  PHE287      0.1605
    147  C         -0.1600   55.0700   65.2790 C.2   287  PHE287      0.2264
    148  O          0.2880   54.0720   64.6850 O.2   287  PHE287     -0.2867
    149  CB         0.7290   57.3600   64.6940 C.3   287  PHE287      0.0534
    150  CG         1.9020   58.3000   64.8310 C.ar  287  PHE287     -0.0203
    151  CD1        2.1020   59.0470   66.0080 C.ar  287  PHE287     -0.0042
    152  CD2        2.8330   58.4280   63.7960 C.ar  287  PHE287     -0.0042
    153  CE1        3.1880   59.9240   66.1350 C.ar  287  PHE287     -0.0003
    154  CE2        3.9360   59.3030   63.8940 C.ar  287  PHE287     -0.0003
    155  CZ         4.1290   60.0380   65.0570 C.ar  287  PHE287     -0.0000
    156  N         10.7100   66.6190   70.3140 N.3   327  PHE327     -0.1227
    157  CA         9.2550   66.6640   70.5610 C.3   327  PHE327      0.1736
    158  C          8.7420   65.3720   71.2310 C.2   327  PHE327      0.2595
    159  O          7.9670   65.4090   72.1970 O.2   327  PHE327     -0.2718
    160  CB         8.4510   66.9550   69.2820 C.3   327  PHE327      0.0547
    161  CG         7.9730   68.3730   69.2000 C.ar  327  PHE327     -0.0202
    162  CD1        6.8460   68.7870   69.9240 C.ar  327  PHE327     -0.0042
    163  CD2        8.6560   69.3190   68.4170 C.ar  327  PHE327     -0.0042
    164  CE1        6.4150   70.1180   69.9020 C.ar  327  PHE327     -0.0003
    165  CE2        8.2190   70.6540   68.3780 C.ar  327  PHE327     -0.0003
    166  CZ         7.0980   71.0510   69.1380 C.ar  327  PHE327     -0.0000
    167  N          9.1770   64.2260   70.7280 N.am  328  PHE328     -0.1976
    168  CA         8.5100   63.0230   71.1040 C.3   328  PHE328      0.1639
    169  C          8.9550   62.6740   72.4660 C.2   328  PHE328      0.2290
    170  O          8.1940   62.0540   73.1850 O.2   328  PHE328     -0.2864
    171  CB         8.7280   61.9270   70.0660 C.3   328  PHE328      0.0560
    172  CG         8.3470   62.3950   68.7170 C.ar  328  PHE328     -0.0200
    173  CD1        9.2230   63.2440   68.0080 C.ar  328  PHE328     -0.0042
    174  CD2        7.0660   62.1680   68.2270 C.ar  328  PHE328     -0.0042
    175  CE1        8.8610   63.7960   66.7770 C.ar  328  PHE328     -0.0003
    176  CE2        6.6850   62.6890   67.0100 C.ar  328  PHE328     -0.0003
    177  CZ         7.5870   63.5070   66.2570 C.ar  328  PHE328     -0.0000
    178  N          6.9020   64.9660   74.8570 N.3   331  TYR331     -0.1241
    179  CA         5.5450   64.5050   75.0580 C.3   331  TYR331      0.1605
    180  C          5.4860   63.1650   75.7880 C.2   331  TYR331      0.2264
    181  O          4.4800   62.8600   76.3650 O.2   331  TYR331     -0.2867
    182  CB         4.7400   64.4910   73.7590 C.3   331  TYR331      0.0534
    183  CG         4.1860   65.8490   73.4020 C.ar  331  TYR331     -0.0201
    184  CD1        5.0330   66.9190   73.2090 C.ar  331  TYR331     -0.0009
    185  CD2        2.8050   66.0730   73.2830 C.ar  331  TYR331     -0.0009
    186  CE1        4.5330   68.1980   72.9070 C.ar  331  TYR331      0.0417
    187  CE2        2.2850   67.3490   72.9760 C.ar  331  TYR331      0.0417
    188  CZ         3.1570   68.4180   72.7890 C.ar  331  TYR331      0.1957
    189  OH         2.7100   69.6990   72.4560 O.3   331  TYR331     -0.2866
    190  N         11.9320   69.1310   65.1590 N.3   437  HIS437     -0.1226
    191  CA        10.9750   68.6140   64.1830 C.3   437  HIS437      0.1752
    192  C          9.9730   69.7280   63.8310 C.2   437  HIS437      0.2597
    193  O          9.4360   70.3580   64.7080 O.2   437  HIS437     -0.2718
    194  CB        10.2730   67.4350   64.8020 C.3   437  HIS437      0.0759
    195  CG         9.5570   66.5360   63.8400 C.ar  437  HIS437      0.0818
    196  ND1       10.1720   65.9620   62.7370 N.ar  437  HIS437     -0.2268
    197  CD2        8.2930   66.0290   63.8790 C.ar  437  HIS437      0.1154
    198  CE1        9.2950   65.1890   62.1110 C.ar  437  HIS437      0.1986
    199  NE2        8.1560   65.1950   62.7950 N.ar  437  HIS437     -0.2212
    200  N          9.7400   69.9850   62.5440 N.am  438  GLY438     -0.1942
    201  CA         8.6530   70.8570   62.1480 C.3   438  GLY438      0.2014
    202  C          9.0400   72.3150   61.9780 C.2   438  GLY438      0.2638
    203  O          8.3180   73.1280   61.4200 O.2   438  GLY438     -0.2714
    204  N         10.2040   72.6920   62.4220 N.am  439  TYR439     -0.1973
    205  CA        10.4520   74.1110   62.3820 C.3   439  TYR439      0.1639
    206  C         11.2100   74.5980   61.1710 C.2   439  TYR439      0.2290
    207  O         11.6360   75.7400   61.1550 O.2   439  TYR439     -0.2864
    208  CB        11.0100   74.6030   63.7440 C.3   439  TYR439      0.0560
    209  CG         9.8320   74.7750   64.6850 C.ar  439  TYR439     -0.0198
    210  CD1        9.0490   73.6640   65.0650 C.ar  439  TYR439     -0.0009
    211  CD2        9.4160   76.0610   65.1130 C.ar  439  TYR439     -0.0009
    212  CE1        7.8870   73.8240   65.9000 C.ar  439  TYR439      0.0417
    213  CE2        8.2850   76.2160   65.9450 C.ar  439  TYR439      0.0417
    214  CZ         7.5230   75.1140   66.3360 C.ar  439  TYR439      0.1957
    215  OH         6.4080   75.3160   67.1400 O.3   439  TYR439     -0.2866
    216  N          9.6180   74.3030   58.2970 N.3   441  ILE441     -0.1245
    217  CA         8.4310   74.6410   57.5390 C.3   441  ILE441      0.1561
    218  C          8.2600   76.1630   57.4170 C.2   441  ILE441      0.2260
    219  O          8.1320   76.6830   56.3290 O.2   441  ILE441     -0.2867
    220  CB         7.1740   73.9670   58.1810 C.3   441  ILE441      0.0252
    221  CG1        7.3200   72.4520   58.1530 C.3   441  ILE441      0.0019
    222  CG2        5.9110   74.3910   57.4840 C.3   441  ILE441      0.0019
    223  CD1        6.0860   71.7090   58.6250 C.3   441  ILE441      0.0001
@<TRIPOS>BOND
     1    82    81    2
     2    81    80    1
     3    91    92    1
     4    83    80    1
     5    83    84    1
     6    80    79    1
     7    92    95    1
     8    92    93    1
     9   219   218    2
    10    84    85   ar
    11    84    86   ar
    12   103   102    2
    13    95    96    1
    14    85    87   ar
    15    93    94    2
    16    93   100   am
    17    86    88   ar
    18    41    42    1
    19   218   217    1
    20   100   101    1
    21   222   220    1
    22   217   220    1
    23   217   216    1
    24   102   101    1
    25    87    89   ar
    26    88    89   ar
    27    96    97    1
    28    74    73    2
    29    42    43    1
    30   221   220    1
    31   221   223    1
    32    89    90    1
    33    71    72    1
    34   101   104    1
    35    73    72    1
    36    97    98   ar
    37    97    99   ar
    38    44    43    2
    39   119   118   ar
    40   119   117   ar
    41    43    45   am
    42    72    75    1
    43   118   116   ar
    44   104   105    1
    45   117   115   ar
    46    75    76    1
    47    45    46    1
    48    76    77    1
    49    76    78    1
    50   116   113   ar
    51    68    67    2
    52   115   113   ar
    53   115   114   ar
    54   108   109    2
    55   108   107    1
    56   207   206    2
    57   206   205    1
    58   113   111   ar
    59   203   202    2
    60    67    66    1
    61    51    50    1
    62    51    52    2
    63   106   107    1
    64   114   112   ar
    65    46    47    1
    66    49    50    1
    67    49    47   am
    68    39    40   ar
    69    39    37   ar
    70   202   201    1
    71   202   204   am
    72    47    48    2
    73    53    54    1
    74   198   196   ar
    75   198   199   ar
    76   107   110    1
    77   201   200    1
    78   111   112   ar
    79   111   110    1
    80   205   204    1
    81   205   208    1
    82    40    38   ar
    83    65    66    1
    84    65    55   am
    85   200   192   am
    86    66    69    1
    87   196   195   ar
    88   199   197   ar
    89    37    34   ar
    90    54    55    1
    91    54    57    1
    92    55    56    2
    93    38    36   ar
    94   208   209    1
    95   152   154   ar
    96   152   150   ar
    97   192   191    1
    98   192   193    2
    99   195   197   ar
   100   195   194    1
   101   154   155   ar
   102    70    69    1
   103   142   144   ar
   104   142   140   ar
   105   144   143   ar
   106    30    29    2
   107   191   194    1
   108   191   190    1
   109    34    36   ar
   110    34    32   ar
   111    57    58    1
   112    36    35   ar
   113   148   147    2
   114   209   210   ar
   115   209   211   ar
   116   149   150    1
   117   149   146    1
   118   150   151   ar
   119    28    29    1
   120    28    31    1
   121    28    27    1
   122   140   139   ar
   123   155   153   ar
   124   210   212   ar
   125   143   141   ar
   126   211   213   ar
   127    58    60   ar
   128    58    59   ar
   129   147   146    1
   130    60    62   ar
   131    32    31    1
   132    32    33   ar
   133   146   145    1
   134   212   214   ar
   135    59    61   ar
   136   213   214   ar
   137    35    33   ar
   138   151   153   ar
   139    62    63   ar
   140   137   136    2
   141   139   141   ar
   142   139   138    1
   143   177   175   ar
   144   177   176   ar
   145   214   215    1
   146     1     2    1
   147    61    63   ar
   148    63    64    1
   149   175   173   ar
   150   176   174   ar
   151   136   135    1
   152     4     3    2
   153   138   135    1
   154   135   134    1
   155     2     3    1
   156     2     5    1
   157   173   172   ar
   158   174   172   ar
   159     5     6    1
   160   165   163   ar
   161   165   166   ar
   162   163   161   ar
   163   172   171    1
   164    24    23    2
   165   133   131   ar
   166   133   132   ar
   167   166   164   ar
   168   131   129   ar
   169   161   160    1
   170   161   162   ar
   171   160   157    1
   172   132   130   ar
   173     6     8   ar
   174     6     7   ar
   175    23    22    1
   176     8    10   ar
   177   164   162   ar
   178   129   128   ar
   179   129   127   ar
   180   171   168    1
   181   156   157    1
   182   130   127   ar
   183    13    14    1
   184    22    21    1
   185    22    25    1
   186   128   126   ar
   187   157   158    1
   188   127   125   ar
   189   167   168    1
   190   167   158   am
   191    17    14    1
   192    17    18    1
   193   120   121    1
   194     7     9   ar
   195    10    11   ar
   196   168   169    1
   197   126   125   ar
   198   158   159    2
   199   121   122    1
   200   121   124    1
   201   125   124    1
   202    20    18   ar
   203    14    15    1
   204    25    26    1
   205    18    19   ar
   206   122   123    2
   207     9    11   ar
   208    11    12    1
   209    16    15    2
   210   189   188    1
   211   169   170    2
   212   188   186   ar
   213   188   187   ar
   214   186   184   ar
   215   187   185   ar
   216   184   183   ar
   217   185   183   ar
   218   183   182    1
   219   182   179    1
   220   178   179    1
   221   179   180    1
   222   180   181    2
