@<TRIPOS>MOLECULE
tmp/2w6dA07.pdb
 206 194 0 0 0
SMALL
GASTEIGER

@<TRIPOS>ATOM
      1  N         97.4740   -2.5620   50.0060 N.3   409  PHE409     -0.1241
      2  CA        96.7650   -1.4680   50.6580 C.3   409  PHE409      0.1605
      3  C         95.4190   -1.8290   51.2620 C.2   409  PHE409      0.2264
      4  O         95.1670   -1.5520   52.4290 O.2   409  PHE409     -0.2867
      5  CB        96.5700   -0.2970   49.7040 C.3   409  PHE409      0.0534
      6  CG        95.9060    0.8820   50.3450 C.ar  409  PHE409     -0.0203
      7  CD1       96.4970    1.5160   51.4340 C.ar  409  PHE409     -0.0042
      8  CD2       94.6770    1.3430   49.8850 C.ar  409  PHE409     -0.0042
      9  CE1       95.8710    2.5890   52.0610 C.ar  409  PHE409     -0.0003
     10  CE2       94.0390    2.4160   50.5060 C.ar  409  PHE409     -0.0003
     11  CZ        94.6390    3.0420   51.5970 C.ar  409  PHE409     -0.0000
     12  N         94.7400   -1.2510   54.8540 N.3   413  PHE413     -0.1241
     13  CA        93.7610   -0.2200   55.1570 C.3   413  PHE413      0.1605
     14  C         92.8100   -0.6950   56.2370 C.2   413  PHE413      0.2264
     15  O         92.2240    0.1060   56.9600 O.2   413  PHE413     -0.2867
     16  CB        92.9820    0.1470   53.8980 C.3   413  PHE413      0.0534
     17  CG        92.1670    1.3910   54.0370 C.ar  413  PHE413     -0.0203
     18  CD1       92.7490    2.5660   54.4800 C.ar  413  PHE413     -0.0042
     19  CD2       90.8250    1.3910   53.7270 C.ar  413  PHE413     -0.0042
     20  CE1       91.9970    3.7270   54.6140 C.ar  413  PHE413     -0.0003
     21  CE2       90.0690    2.5460   53.8570 C.ar  413  PHE413     -0.0003
     22  CZ        90.6600    3.7180   54.3030 C.ar  413  PHE413     -0.0000
     23  N         93.0890    4.1000   60.0350 N.3   418  PRO418     -0.2116
     24  CA        93.3960    5.5270   60.0030 C.3   418  PRO418      0.1372
     25  C         92.2550    6.3350   60.5620 C.2   418  PRO418      0.2244
     26  O         91.1170    6.1930   60.1140 O.2   418  PRO418     -0.2868
     27  CB        93.6150    5.8010   58.5210 C.3   418  PRO418      0.0268
     28  CG        94.0810    4.4850   57.9850 C.3   418  PRO418      0.0207
     29  CD        93.1610    3.5260   58.6780 C.3   418  PRO418      0.0892
     30  N         91.4590   18.6660   59.9850 N.3   425  PHE425     -0.1241
     31  CA        91.1290   18.7400   58.5670 C.3   425  PHE425      0.1605
     32  C         90.6300   20.1140   58.1680 C.2   425  PHE425      0.2264
     33  O         91.3200   20.8540   57.4740 O.2   425  PHE425     -0.2867
     34  CB        90.0590   17.7160   58.2290 C.3   425  PHE425      0.0534
     35  CG        90.1140   17.2200   56.8210 C.ar  425  PHE425     -0.0203
     36  CD1       88.9700   17.2240   56.0260 C.ar  425  PHE425     -0.0042
     37  CD2       91.2900   16.6890   56.3070 C.ar  425  PHE425     -0.0042
     38  CE1       88.9940   16.7010   54.7440 C.ar  425  PHE425     -0.0003
     39  CE2       91.3260   16.1610   55.0250 C.ar  425  PHE425     -0.0003
     40  CZ        90.1750   16.1660   54.2430 C.ar  425  PHE425     -0.0000
     41  N         95.7140   14.4590   57.1490 N.3   438  LEU438     -0.1231
     42  CA        95.6660   13.1540   56.4910 C.3   438  LEU438      0.1693
     43  C         96.9680   12.3990   56.7100 C.2   438  LEU438      0.2591
     44  O         96.9870   11.1680   56.7560 O.2   438  LEU438     -0.2718
     45  CB        95.4180   13.3230   54.9830 C.3   438  LEU438      0.0284
     46  CG        94.0190   13.7600   54.5210 C.3   438  LEU438      0.0019
     47  CD1       94.1290   14.5370   53.2270 C.3   438  LEU438      0.0001
     48  CD2       93.1190   12.5470   54.3480 C.3   438  LEU438      0.0001
     49  N         98.0590   13.1420   56.8410 N.am  439  GLN439     -0.1979
     50  CA        99.3580   12.5270   57.0570 C.3   439  GLN439      0.1601
     51  C         99.3500   11.8620   58.4250 C.2   439  GLN439      0.2287
     52  O         99.8370   10.7450   58.5820 O.2   439  GLN439     -0.2864
     53  CB       100.4690   13.5780   56.9970 C.3   439  GLN439      0.0394
     54  CG       101.8390   13.0150   56.6390 C.3   439  GLN439      0.0908
     55  CD       102.0030   12.7770   55.1430 C.2   439  GLN439      0.2608
     56  OE1      101.1480   12.1640   54.4960 O.2   439  GLN439     -0.2717
     57  NE2      103.1100   13.2600   54.5880 N.am  439  GLN439     -0.0878
     58  N         97.5940    8.5950   58.9230 N.3   442  PHE442     -0.1241
     59  CA        98.3360    7.4490   58.4190 C.3   442  PHE442      0.1605
     60  C         99.6940    7.3020   59.0650 C.2   442  PHE442      0.2264
     61  O        100.5630    6.6220   58.5220 O.2   442  PHE442     -0.2867
     62  CB        98.5240    7.5520   56.9020 C.3   442  PHE442      0.0534
     63  CG        97.2980    7.2150   56.1190 C.ar  442  PHE442     -0.0203
     64  CD1       96.3350    8.1820   55.8560 C.ar  442  PHE442     -0.0042
     65  CD2       97.0610    5.9060   55.7150 C.ar  442  PHE442     -0.0042
     66  CE1       95.1470    7.8490   55.2070 C.ar  442  PHE442     -0.0003
     67  CE2       95.8790    5.5620   55.0670 C.ar  442  PHE442     -0.0003
     68  CZ        94.9170    6.5350   54.8140 C.ar  442  PHE442     -0.0000
     69  N        102.5320    4.7210   57.9750 N.3   446  ILE446     -0.1245
     70  CA       103.7640    5.2400   57.3900 C.3   446  ILE446      0.1561
     71  C        104.9860    4.7560   58.1490 C.2   446  ILE446      0.2260
     72  O        105.9240    4.2240   57.5550 O.2   446  ILE446     -0.2867
     73  CB       103.7910    6.7720   57.3700 C.3   446  ILE446      0.0252
     74  CG1      102.6610    7.3000   56.4940 C.3   446  ILE446      0.0019
     75  CG2      105.1160    7.2520   56.8200 C.3   446  ILE446      0.0019
     76  CD1      102.5460    8.7960   56.5000 C.3   446  ILE446      0.0001
     77  N        107.6990    7.5450   51.8170 N.3   542  ILE542     -0.1231
     78  CA       106.4450    6.8050   52.0060 C.3   542  ILE542      0.1692
     79  C        105.3230    7.7530   52.4280 C.2   542  ILE542      0.2592
     80  O        104.1450    7.4400   52.2760 O.2   542  ILE542     -0.2718
     81  CB       106.5600    5.7100   53.1020 C.3   542  ILE542      0.0266
     82  CG1      107.8390    4.8950   52.9250 C.3   542  ILE542      0.0019
     83  CG2      105.3510    4.7820   53.0290 C.3   542  ILE542      0.0020
     84  CD1      107.8200    3.9790   51.7430 C.3   542  ILE542      0.0001
     85  N        105.7000    8.9070   52.9730 N.am  543  GLY543     -0.1957
     86  CA       104.7100    9.8790   53.4010 C.3   543  GLY543      0.1869
     87  C        104.2900   10.7550   52.2400 C.2   543  GLY543      0.2309
     88  O        103.1260   11.1600   52.1260 O.2   543  GLY543     -0.2863
     89  N        104.3700    9.7570   49.2260 N.3   545  ILE545     -0.1231
     90  CA       103.5580    8.8510   48.4330 C.3   545  ILE545      0.1692
     91  C        102.1120    9.0730   48.8430 C.2   545  ILE545      0.2592
     92  O        101.2190    9.1540   48.0010 O.2   545  ILE545     -0.2718
     93  CB       103.9340    7.3910   48.6990 C.3   545  ILE545      0.0266
     94  CG1      105.3860    7.1550   48.2800 C.3   545  ILE545      0.0019
     95  CG2      102.9900    6.4640   47.9560 C.3   545  ILE545      0.0020
     96  CD1      105.6670    7.4590   46.8340 C.3   545  ILE545      0.0001
     97  N        101.8890    9.1720   50.1520 N.am  546  ILE546     -0.1966
     98  CA       100.5550    9.4270   50.6830 C.3   546  ILE546      0.1727
     99  C        100.1740   10.8590   50.2850 C.2   546  ILE546      0.2616
    100  O         99.1610   11.0780   49.6180 O.2   546  ILE546     -0.2715
    101  CB       100.5300    9.2870   52.2320 C.3   546  ILE546      0.0290
    102  CG1      100.6050    7.8120   52.6270 C.3   546  ILE546      0.0022
    103  CG2       99.2570    9.9050   52.7970 C.3   546  ILE546      0.0023
    104  CD1       99.3100    7.0600   52.4290 C.3   546  ILE546      0.0001
    105  N        101.0000   11.8250   50.6850 N.am  547  THR547     -0.1951
    106  CA       100.7660   13.2290   50.3630 C.3   547  THR547      0.1897
    107  C        100.4010   13.3620   48.8890 C.2   547  THR547      0.2313
    108  O         99.7140   14.3040   48.4870 O.2   547  THR547     -0.2863
    109  CB       102.0250   14.0660   50.6180 C.3   547  THR547      0.1794
    110  OG1      102.4620   13.8720   51.9640 O.3   547  THR547     -0.2208
    111  CG2      101.7370   15.5490   50.3870 C.3   547  THR547      0.0378
    112  N         99.1720   10.4390   46.7750 N.3   549  VAL549     -0.1231
    113  CA        97.9380    9.6920   46.5520 C.3   549  VAL549      0.1692
    114  C         96.7720   10.4480   47.1930 C.2   549  VAL549      0.2592
    115  O         95.5970   10.1180   46.9910 O.2   549  VAL549     -0.2718
    116  CB        98.0370    8.2850   47.1530 C.3   549  VAL549      0.0266
    117  CG1       96.7740    7.5020   46.8730 C.3   549  VAL549      0.0020
    118  CG2       99.2250    7.5680   46.5630 C.3   549  VAL549      0.0020
    119  N         97.1190   11.4660   47.9730 N.am  550  THR550     -0.1953
    120  CA        96.1330   12.3050   48.6320 C.3   550  THR550      0.1897
    121  C         95.5430   13.2290   47.5720 C.2   550  THR550      0.2313
    122  O         94.3490   13.1490   47.2590 O.2   550  THR550     -0.2863
    123  CB        96.8060   13.1150   49.7750 C.3   550  THR550      0.1794
    124  OG1       96.5770   12.4380   51.0140 O.3   550  THR550     -0.2208
    125  CG2       96.2730   14.5410   49.8600 C.3   550  THR550      0.0378
    126  N         93.4300   11.5520   44.9230 N.3   553  LEU553     -0.1231
    127  CA        92.0560   11.1720   45.2320 C.3   553  LEU553      0.1693
    128  C         91.1110   12.2530   45.7290 C.2   553  LEU553      0.2591
    129  O         89.9000   12.0300   45.7790 O.2   553  LEU553     -0.2718
    130  CB        92.0690   10.0030   46.2190 C.3   553  LEU553      0.0284
    131  CG        92.2080    8.6000   45.6110 C.3   553  LEU553      0.0019
    132  CD1       93.0470    8.6400   44.3370 C.3   553  LEU553      0.0001
    133  CD2       92.8160    7.6670   46.6450 C.3   553  LEU553      0.0001
    134  N         91.6390   13.4160   46.1000 N.am  554  LEU554     -0.1980
    135  CA        90.7680   14.4850   46.5650 C.3   554  LEU554      0.1596
    136  C         89.6350   14.7160   45.5730 C.2   554  LEU554      0.2287
    137  O         88.4570   14.5500   45.9090 O.2   554  LEU554     -0.2864
    138  CB        91.5410   15.7860   46.7430 C.3   554  LEU554      0.0297
    139  CG        92.2240   15.9820   48.0890 C.3   554  LEU554      0.0022
    140  CD1       92.6640   17.4450   48.2060 C.3   554  LEU554      0.0001
    141  CD2       91.2650   15.6170   49.2230 C.3   554  LEU554      0.0001
    142  N         87.0000   12.1200   45.3030 N.3   557  ILE557     -0.1245
    143  CA        86.2450   12.0940   46.5410 C.3   557  ILE557      0.1561
    144  C         85.3000   13.2810   46.5840 C.2   557  ILE557      0.2260
    145  O         84.0800   13.1080   46.6850 O.2   557  ILE557     -0.2867
    146  CB        87.1710   12.1510   47.7680 C.3   557  ILE557      0.0252
    147  CG1       87.9930   10.8720   47.8470 C.3   557  ILE557      0.0019
    148  CG2       86.3540   12.3120   49.0460 C.3   557  ILE557      0.0019
    149  CD1       88.9730   10.8790   48.9800 C.3   557  ILE557      0.0001
    150  N         82.3080   12.7400   44.6020 N.3   560  ALA560     -0.1231
    151  CA        81.3360   11.8580   45.2450 C.3   560  ALA560      0.1694
    152  C         80.6330   12.5430   46.4180 C.2   560  ALA560      0.2591
    153  O         79.4060   12.4910   46.5460 O.2   560  ALA560     -0.2718
    154  CB        82.0220   10.5980   45.7220 C.3   560  ALA560      0.0304
    155  N         81.4120   13.1800   47.2790 N.am  561  LEU561     -0.1980
    156  CA        80.8250   13.8590   48.4200 C.3   561  LEU561      0.1596
    157  C         79.8060   14.8910   47.9480 C.2   561  LEU561      0.2287
    158  O         78.6610   14.8960   48.4050 O.2   561  LEU561     -0.2864
    159  CB        81.9130   14.5360   49.2590 C.3   561  LEU561      0.0297
    160  CG        82.8850   13.5990   49.9820 C.3   561  LEU561      0.0022
    161  CD1       83.8070   14.4280   50.8740 C.3   561  LEU561      0.0001
    162  CD2       82.1090   12.5750   50.8140 C.3   561  LEU561      0.0001
    163  N         76.4590   14.0940   46.2210 N.3   564  LEU564     -0.1231
    164  CA        75.5710   13.3770   47.1240 C.3   564  LEU564      0.1693
    165  C         74.8130   14.3860   47.9690 C.2   564  LEU564      0.2592
    166  O         73.6110   14.2610   48.1720 O.2   564  LEU564     -0.2718
    167  CB        76.3800   12.4440   48.0270 C.3   564  LEU564      0.0284
    168  CG        75.5820   11.3900   48.7960 C.3   564  LEU564      0.0019
    169  CD1       75.0830   10.3050   47.8370 C.3   564  LEU564      0.0001
    170  CD2       76.4640   10.7840   49.8760 C.3   564  LEU564      0.0001
    171  N         75.5310   15.3940   48.4480 N.am  565  GLY565     -0.1957
    172  CA        74.9140   16.4200   49.2670 C.3   565  GLY565      0.1869
    173  C         74.0010   17.3400   48.4760 C.2   565  GLY565      0.2309
    174  O         73.4400   18.2870   49.0320 O.2   565  GLY565     -0.2863
    175  N         72.8220    6.8960   47.0850 N.3   571  ALA571     -0.1231
    176  CA        73.6760    6.0940   47.9490 C.3   571  ALA571      0.1694
    177  C         74.2330    4.8920   47.1870 C.2   571  ALA571      0.2592
    178  O         73.5360    4.2730   46.3800 O.2   571  ALA571     -0.2718
    179  CB        72.8830    5.6220   49.1620 C.3   571  ALA571      0.0304
    180  N         75.4970    4.5710   47.4460 N.am  572  ASP572     -0.1974
    181  CA        76.1630    3.4350   46.8110 C.3   572  ASP572      0.1709
    182  C         76.1790    3.5090   45.2810 C.2   572  ASP572      0.2293
    183  O         76.3330    2.4940   44.5970 O.2   572  ASP572     -0.2864
    184  CB        75.5120    2.1190   47.2650 C.3   572  ASP572      0.1436
    185  CG        76.4780    0.9390   47.2280 C.2   572  ASP572      0.3671
    186  OD1       76.9670    0.5900   46.1290 O.co2 572  ASP572     -0.2456
    187  OD2       76.7470    0.3620   48.3040 O.co2 572  ASP572     -0.2456
    188  N         79.9600    5.2380   45.0710 N.3   575  ARG575     -0.1245
    189  CA        81.0190    4.3390   45.5090 C.3   575  ARG575      0.1563
    190  C         81.4370    3.3260   44.4590 C.2   575  ARG575      0.2260
    191  O         82.5400    2.7850   44.5290 O.2   575  ARG575     -0.2867
    192  CB        80.6240    3.6450   46.8150 C.3   575  ARG575      0.0307
    193  CG        80.9710    4.4870   48.0360 C.3   575  ARG575      0.0489
    194  CD        80.5970    5.9440   47.7930 C.3   575  ARG575      0.2205
    195  NE        81.2070    6.8510   48.7540 N.pl3 575  ARG575     -0.0865
    196  CZ        80.8680    6.9190   50.0370 C.cat 575  ARG575      0.5346
    197  NH1       81.4840    7.7790   50.8300 N.pl3 575  ARG575      0.1354
    198  NH2       79.9150    6.1370   50.5200 N.pl3 575  ARG575      0.1354
    199  N         83.6890    6.0980   42.8660 N.3   578  LEU578     -0.1245
    200  CA        84.8530    6.5770   43.6050 C.3   578  LEU578      0.1561
    201  C         85.9680    5.5780   43.3440 C.2   578  LEU578      0.2260
    202  O         87.1180    5.9500   43.1180 O.2   578  LEU578     -0.2867
    203  CB        84.5650    6.6450   45.1050 C.3   578  LEU578      0.0270
    204  CG        85.1780    7.8530   45.8230 C.3   578  LEU578      0.0019
    205  CD1       85.0490    7.6780   47.3210 C.3   578  LEU578      0.0001
    206  CD2       86.6330    8.0060   45.4380 C.3   578  LEU578      0.0001
@<TRIPOS>BOND
     1   199   200    1
     2   202   201    2
     3   201   200    1
     4   200   203    1
     5   132   131    1
     6   190   191    2
     7   190   189    1
     8   183   182    2
     9   150   151    1
    10   126   127    1
    11   188   189    1
    12   203   204    1
    13   127   128    1
    14   127   130    1
    15   151   154    1
    16   151   152    1
    17   182   181    1
    18   142   143    1
    19   206   204    1
    20   189   192    1
    21   136   137    2
    22   136   135    1
    23   131   130    1
    24   131   133    1
    25   128   129    2
    26   128   134   am
    27   204   205    1
    28   134   135    1
    29   186   185   ar
    30   163   164    1
    31   178   177    2
    32   152   153    2
    33   152   155   am
    34   143   144    1
    35   143   146    1
    36   113   112    1
    37   113   116    1
    38   113   114    1
    39   118   116    1
    40   135   138    1
    41   144   145    2
    42   138   139    1
    43   181   184    1
    44   181   180    1
    45   192   193    1
    46    96    94    1
    47   117   116    1
    48   115   114    2
    49   175   176    1
    50   164   165    1
    51   164   167    1
    52   177   180   am
    53   177   176    1
    54   114   119   am
    55   185   184    1
    56   185   187   ar
    57   122   121    2
    58   155   156    1
    59   121   120    1
    60   146   147    1
    61   146   148    1
    62   194   193    1
    63   194   195    1
    64   169   168    1
    65   147   149    1
    66   157   158    2
    67   157   156    1
    68   176   179    1
    69    95    93    1
    70   165   166    2
    71   165   171   am
    72   119   120    1
    73    92    91    2
    74   167   168    1
    75   139   140    1
    76   139   141    1
    77    94    93    1
    78   156   159    1
    79    90    93    1
    80    90    91    1
    81    90    89    1
    82   171   172    1
    83   173   174    2
    84   173   172    1
    85   108   107    2
    86   120   123    1
    87   195   196    2
    88   168   170    1
    89    91    97   am
    90   107   106    1
    91   159   160    1
    92   100    99    2
    93     5     6    1
    94     5     2    1
    95   123   125    1
    96   123   124    1
    97     8     6   ar
    98     8    10   ar
    99   160   162    1
   100   160   161    1
   101     1     2    1
   102   196   198    1
   103   196   197    1
   104    97    98    1
   105    99    98    1
   106    99   105   am
   107     6     7   ar
   108   106   109    1
   109   106   105    1
   110   111   109    1
   111    10    11   ar
   112   109   110    1
   113     2     3    1
   114    98   101    1
   115     3     4    2
   116     7     9   ar
   117    11     9   ar
   118    84    82    1
   119    77    78    1
   120    78    79    1
   121    78    81    1
   122    88    87    2
   123   101   102    1
   124   101   103    1
   125    87    86    1
   126    80    79    2
   127    79    85   am
   128   104   102    1
   129    82    81    1
   130    85    86    1
   131    83    81    1
   132    47    46    1
   133    19    21   ar
   134    19    17   ar
   135    21    22   ar
   136    16    17    1
   137    16    13    1
   138    17    18   ar
   139    40    38   ar
   140    40    39   ar
   141    22    20   ar
   142    48    46    1
   143    18    20   ar
   144    56    55    2
   145    46    45    1
   146    57    55   am
   147    38    36   ar
   148    68    67   ar
   149    68    66   ar
   150    12    13    1
   151    45    42    1
   152    39    37   ar
   153    67    65   ar
   154    55    54    1
   155    13    14    1
   156    66    64   ar
   157    65    63   ar
   158    64    63   ar
   159    36    35   ar
   160    63    62    1
   161    14    15    2
   162    37    35   ar
   163    42    43    1
   164    42    41    1
   165    74    76    1
   166    74    73    1
   167    54    53    1
   168    43    44    2
   169    43    49   am
   170    75    73    1
   171    35    34    1
   172    49    50    1
   173    62    59    1
   174    53    50    1
   175    50    51    1
   176    73    70    1
   177    70    69    1
   178    70    71    1
   179    33    32    2
   180    72    71    2
   181    28    27    1
   182    28    29    1
   183    32    31    1
   184    34    31    1
   185    59    58    1
   186    59    60    1
   187    51    52    2
   188    27    24    1
   189    61    60    2
   190    31    30    1
   191    29    23    1
   192    24    23    1
   193    24    25    1
   194    26    25    2
