@<TRIPOS>MOLECULE
tmp/2w6dA04.pdb
 106 104 0 0 0
SMALL
GASTEIGER

@<TRIPOS>ATOM
      1  N        103.3370   -1.7070   47.6480 N.3   405  LEU405     -0.1245
      2  CA       102.5460   -1.5060   48.8620 C.3   405  LEU405      0.1561
      3  C        101.1020   -1.3590   48.4550 C.2   405  LEU405      0.2260
      4  O        100.2040   -1.7070   49.2230 O.2   405  LEU405     -0.2867
      5  CB       102.9940   -0.2700   49.6570 C.3   405  LEU405      0.0270
      6  CG       104.0720   -0.5190   50.7310 C.3   405  LEU405      0.0019
      7  CD1      104.1350    0.6730   51.6600 C.3   405  LEU405      0.0001
      8  CD2      103.7540   -1.7720   51.5380 C.3   405  LEU405      0.0001
      9  N         99.5100   -3.0470   46.2410 N.3   407  ASN407     -0.1225
     10  CA        98.8670   -4.3340   46.0340 C.3   407  ASN407      0.1785
     11  C         98.3170   -4.8880   47.3350 C.2   407  ASN407      0.2598
     12  O         97.4840   -5.7810   47.3270 O.2   407  ASN407     -0.2718
     13  CB        99.8520   -5.3320   45.4230 C.3   407  ASN407      0.1169
     14  CG       100.1740   -5.0200   43.9710 C.2   407  ASN407      0.2627
     15  OD1      100.4810   -3.8770   43.6130 O.2   407  ASN407     -0.2716
     16  ND2      100.1120   -6.0430   43.1240 N.am  407  ASN407     -0.0877
     17  N         98.7790   -4.3610   48.4600 N.am  408  THR408     -0.1939
     18  CA        98.3020   -4.8360   49.7550 C.3   408  THR408      0.2028
     19  C         97.4920   -3.7920   50.5170 C.2   408  THR408      0.2642
     20  O         96.8800   -4.1040   51.5440 O.2   408  THR408     -0.2714
     21  CB        99.4760   -5.2790   50.6580 C.3   408  THR408      0.1808
     22  OG1      100.6700   -4.5800   50.2780 O.3   408  THR408     -0.2208
     23  CG2       99.6880   -6.7810   50.5660 C.3   408  THR408      0.0379
     24  N         97.4740   -2.5620   50.0060 N.am  409  PHE409     -0.1959
     25  CA        96.7650   -1.4680   50.6580 C.3   409  PHE409      0.1771
     26  C         95.4190   -1.8290   51.2620 C.2   409  PHE409      0.2619
     27  O         95.1670   -1.5520   52.4290 O.2   409  PHE409     -0.2715
     28  CB        96.5700   -0.2970   49.7040 C.3   409  PHE409      0.0574
     29  CG        95.9060    0.8820   50.3450 C.ar  409  PHE409     -0.0200
     30  CD1       96.4970    1.5160   51.4340 C.ar  409  PHE409     -0.0042
     31  CD2       94.6770    1.3430   49.8850 C.ar  409  PHE409     -0.0042
     32  CE1       95.8710    2.5890   52.0610 C.ar  409  PHE409     -0.0003
     33  CE2       94.0390    2.4160   50.5060 C.ar  409  PHE409     -0.0003
     34  CZ        94.6390    3.0420   51.5970 C.ar  409  PHE409     -0.0000
     35  N         94.5450   -2.4320   50.4680 N.am  410  GLU410     -0.1963
     36  CA        93.2360   -2.8140   50.9740 C.3   410  GLU410      0.1733
     37  C         93.3630   -3.5210   52.3120 C.2   410  GLU410      0.2616
     38  O         92.8510   -3.0400   53.3190 O.2   410  GLU410     -0.2715
     39  CB        92.5160   -3.7230   49.9770 C.3   410  GLU410      0.0429
     40  CG        91.9700   -2.9930   48.7560 C.3   410  GLU410      0.1163
     41  CD        91.2270   -3.9150   47.8060 C.2   410  GLU410      0.3649
     42  OE1       90.5900   -3.4010   46.8590 O.co2 410  GLU410     -0.2457
     43  OE2       91.2830   -5.1500   48.0040 O.co2 410  GLU410     -0.2457
     44  N         94.0600   -4.6530   52.3350 N.am  411  ASN411     -0.1958
     45  CA        94.2220   -5.3890   53.5840 C.3   411  ASN411      0.1819
     46  C         94.8290   -4.5160   54.6790 C.2   411  ASN411      0.2621
     47  O         94.3830   -4.5480   55.8240 O.2   411  ASN411     -0.2715
     48  CB        95.0920   -6.6330   53.3820 C.3   411  ASN411      0.1195
     49  CG        95.2720   -7.4320   54.6730 C.2   411  ASN411      0.2630
     50  OD1       95.9540   -6.9920   55.6050 O.2   411  ASN411     -0.2716
     51  ND2       94.6480   -8.6060   54.7350 N.am  411  ASN411     -0.0877
     52  N         95.8490   -3.7420   54.3330 N.am  412  ASP412     -0.1957
     53  CA        96.4670   -2.8810   55.3240 C.3   412  ASP412      0.1840
     54  C         95.4640   -1.8340   55.8010 C.2   412  ASP412      0.2622
     55  O         95.3410   -1.5690   56.9980 O.2   412  ASP412     -0.2715
     56  CB        97.7110   -2.1880   54.7500 C.3   412  ASP412      0.1450
     57  CG        98.8730   -3.1440   54.5520 C.2   412  ASP412      0.3671
     58  OD1       99.0040   -4.1170   55.3340 O.co2 412  ASP412     -0.2456
     59  OD2       99.6730   -2.9090   53.6180 O.co2 412  ASP412     -0.2456
     60  N         94.7400   -1.2510   54.8540 N.am  413  PHE413     -0.1960
     61  CA        93.7610   -0.2200   55.1570 C.3   413  PHE413      0.1771
     62  C         92.8100   -0.6950   56.2370 C.2   413  PHE413      0.2619
     63  O         92.2240    0.1060   56.9600 O.2   413  PHE413     -0.2715
     64  CB        92.9820    0.1470   53.8980 C.3   413  PHE413      0.0574
     65  CG        92.1670    1.3910   54.0370 C.ar  413  PHE413     -0.0200
     66  CD1       92.7490    2.5660   54.4800 C.ar  413  PHE413     -0.0042
     67  CD2       90.8250    1.3910   53.7270 C.ar  413  PHE413     -0.0042
     68  CE1       91.9970    3.7270   54.6140 C.ar  413  PHE413     -0.0003
     69  CE2       90.0690    2.5460   53.8570 C.ar  413  PHE413     -0.0003
     70  CZ        90.6600    3.7180   54.3030 C.ar  413  PHE413     -0.0000
     71  N         92.6650   -2.0080   56.3450 N.am  414  LEU414     -0.1963
     72  CA        91.7900   -2.5930   57.3460 C.3   414  LEU414      0.1728
     73  C         92.5320   -2.7690   58.6610 C.2   414  LEU414      0.2616
     74  O         92.0400   -2.3470   59.7050 O.2   414  LEU414     -0.2715
     75  CB        91.2680   -3.9500   56.8790 C.3   414  LEU414      0.0311
     76  CG        90.6780   -4.7940   58.0060 C.3   414  LEU414      0.0022
     77  CD1       89.4810   -4.0690   58.5890 C.3   414  LEU414      0.0001
     78  CD2       90.2930   -6.1580   57.4850 C.3   414  LEU414      0.0001
     79  N         93.7040   -3.4050   58.6020 N.am  415  ARG415     -0.1977
     80  CA        94.5300   -3.6380   59.7840 C.3   415  ARG415      0.1597
     81  C         94.6650   -2.3260   60.5320 C.2   415  ARG415      0.2287
     82  O         94.2560   -2.2090   61.6830 O.2   415  ARG415     -0.2864
     83  CB        95.9200   -4.1300   59.3890 C.3   415  ARG415      0.0334
     84  CG        95.9810   -5.4770   58.6850 C.3   415  ARG415      0.0492
     85  CD        97.4140   -5.9990   58.7550 C.3   415  ARG415      0.2205
     86  NE        97.6690   -7.1310   57.8680 N.pl3 415  ARG415     -0.0865
     87  CZ        98.8470   -7.7400   57.7740 C.cat 415  ARG415      0.5346
     88  NH1       99.0130   -8.7670   56.9420 N.pl3 415  ARG415      0.1354
     89  NH2       99.8650   -7.3200   58.5210 N.pl3 415  ARG415      0.1354
     90  N        105.5580    0.6370   57.6890 N.3   449  LYS449     -0.1245
     91  CA       106.0260    0.3380   56.3370 C.3   449  LYS449      0.1561
     92  C        107.3860    0.9570   56.1000 C.2   449  LYS449      0.2260
     93  O        108.2840    0.3190   55.5650 O.2   449  LYS449     -0.2867
     94  CB       105.0260    0.8630   55.2960 C.3   449  LYS449      0.0271
     95  CG       103.6430    0.2180   55.3770 C.3   449  LYS449      0.0035
     96  CD       103.7200   -1.2670   55.0870 C.3   449  LYS449      0.0206
     97  CE       102.4090   -1.9700   55.3470 C.3   449  LYS449      0.1093
     98  NZ       102.3920   -2.5530   56.7100 N.3   449  LYS449     -0.1314
     99  N         75.4970    4.5710   47.4460 N.3   572  ASP572     -0.1239
    100  CA        76.1630    3.4350   46.8110 C.3   572  ASP572      0.1674
    101  C         76.1790    3.5090   45.2810 C.2   572  ASP572      0.2266
    102  O         76.3330    2.4940   44.5970 O.2   572  ASP572     -0.2867
    103  CB        75.5120    2.1190   47.2650 C.3   572  ASP572      0.1410
    104  CG        76.4780    0.9390   47.2280 C.2   572  ASP572      0.3668
    105  OD1       76.9670    0.5900   46.1290 O.co2 572  ASP572     -0.2456
    106  OD2       76.7470    0.3620   48.3040 O.co2 572  ASP572     -0.2456
@<TRIPOS>BOND
     1    16    14   am
     2    15    14    2
     3    14    13    1
     4   102   101    2
     5   101   100    1
     6    13    10    1
     7    10     9    1
     8    10    11    1
     9   105   104   ar
    10   100   103    1
    11   100    99    1
    12    42    41   ar
    13   104   103    1
    14   104   106   ar
    15    12    11    2
    16    11    17   am
    17     1     2    1
    18    41    43   ar
    19    41    40    1
    20     3     2    1
    21     3     4    2
    22    17    18    1
    23    40    39    1
    24     2     5    1
    25     5     6    1
    26    28    29    1
    27    28    25    1
    28    18    19    1
    29    18    21    1
    30    31    29   ar
    31    31    33   ar
    32    39    36    1
    33    24    19   am
    34    24    25    1
    35    22    21    1
    36    29    30   ar
    37    35    36    1
    38    35    26   am
    39    33    34   ar
    40    19    20    2
    41    23    21    1
    42    25    26    1
    43     6     8    1
    44     6     7    1
    45    36    37    1
    46    26    27    2
    47    30    32   ar
    48    34    32   ar
    49    37    44   am
    50    37    38    2
    51    44    45    1
    52    48    45    1
    53    48    49    1
    54    45    46    1
    55    59    57   ar
    56    67    69   ar
    57    67    65   ar
    58    69    70   ar
    59    64    65    1
    60    64    61    1
    61    65    66   ar
    62    70    68   ar
    63    52    46   am
    64    52    53    1
    65    66    68   ar
    66    57    56    1
    67    57    58   ar
    68    49    51   am
    69    49    50    2
    70    46    47    2
    71    56    53    1
    72    60    61    1
    73    60    54   am
    74    96    97    1
    75    96    95    1
    76    61    62    1
    77    94    95    1
    78    94    91    1
    79    53    54    1
    80    97    98    1
    81    93    92    2
    82    54    55    2
    83    92    91    1
    84    62    71   am
    85    62    63    2
    86    91    90    1
    87    71    72    1
    88    75    72    1
    89    75    76    1
    90    88    87    1
    91    72    73    1
    92    78    76    1
    93    87    86    2
    94    87    89    1
    95    86    85    1
    96    76    77    1
    97    79    73   am
    98    79    80    1
    99    73    74    2
   100    84    85    1
   101    84    83    1
   102    83    80    1
   103    80    81    1
   104    81    82    2
