@<TRIPOS>MOLECULE
tmp/2w6dB10.pdb
 146 138 0 0 0
SMALL
GASTEIGER

@<TRIPOS>ATOM
      1  N        104.6310  -12.8830   69.0750 N.3   403  LEU403     -0.1245
      2  CA       103.7350  -12.1520   69.9580 C.3   403  LEU403      0.1561
      3  C        103.1350  -10.9600   69.2420 C.2   403  LEU403      0.2260
      4  O        101.9160  -10.8540   69.1040 O.2   403  LEU403     -0.2867
      5  CB       104.4850  -11.6630   71.1970 C.3   403  LEU403      0.0270
      6  CG       104.7940  -12.7470   72.2260 C.3   403  LEU403      0.0019
      7  CD1      105.6700  -12.1860   73.3360 C.3   403  LEU403      0.0001
      8  CD2      103.4830  -13.2820   72.7820 C.3   403  LEU403      0.0001
      9  N        100.2660  -10.8580   66.8800 N.3   406  GLY406     -0.1210
     10  CA        98.9360  -10.8300   67.4690 C.3   406  GLY406      0.1956
     11  C         98.3240   -9.4400   67.5120 C.2   406  GLY406      0.2611
     12  O         97.1080   -9.2890   67.4740 O.2   406  GLY406     -0.2717
     13  N         99.1600   -8.4160   67.5910 N.am  407  ASN407     -0.1974
     14  CA        98.6630   -7.0510   67.6330 C.3   407  ASN407      0.1688
     15  C         98.1270   -6.6220   66.2770 C.2   407  ASN407      0.2292
     16  O         97.3940   -5.6500   66.1810 O.2   407  ASN407     -0.2864
     17  CB        99.7700   -6.0950   68.0760 C.3   407  ASN407      0.1181
     18  CG       100.1120   -6.2390   69.5500 C.2   407  ASN407      0.2629
     19  OD1      100.3090   -7.3490   70.0560 O.2   407  ASN407     -0.2716
     20  ND2      100.1910   -5.1110   70.2470 N.am  407  ASN407     -0.0877
     21  N         94.0020   -9.0500   63.6010 N.3   410  GLU410     -0.1245
     22  CA        92.7230   -8.5970   63.0770 C.3   410  GLU410      0.1567
     23  C         92.8750   -8.0980   61.6510 C.2   410  GLU410      0.2260
     24  O         92.2760   -8.6510   60.7330 O.2   410  GLU410     -0.2867
     25  CB        92.1420   -7.4890   63.9530 C.3   410  GLU410      0.0388
     26  CG        91.5670   -7.9830   65.2760 C.3   410  GLU410      0.1160
     27  CD        90.9620   -6.8640   66.1050 C.2   410  GLU410      0.3649
     28  OE1       90.3100   -7.1720   67.1280 O.co2 410  GLU410     -0.2457
     29  OE2       91.1390   -5.6810   65.7360 O.co2 410  GLU410     -0.2457
     30  N         71.5900  -17.1080   71.9660 N.3   570  GLN570     -0.1231
     31  CA        70.9670  -16.5050   70.7960 C.3   570  GLN570      0.1698
     32  C         72.0180  -15.9440   69.8430 C.2   570  GLN570      0.2592
     33  O         73.2210  -16.0150   70.1050 O.2   570  GLN570     -0.2718
     34  CB        70.0080  -15.3960   71.2420 C.3   570  GLN570      0.0381
     35  CG        68.9740  -15.8660   72.2670 C.3   570  GLN570      0.0905
     36  CD        68.1290  -14.7330   72.8360 C.2   570  GLN570      0.2608
     37  OE1       67.4300  -14.0330   72.1020 O.2   570  GLN570     -0.2717
     38  NE2       68.1870  -14.5550   74.1560 N.am  570  GLN570     -0.0878
     39  N         71.5550  -15.3880   68.7290 N.am  571  ALA571     -0.1966
     40  CA        72.4570  -14.8100   67.7450 C.3   571  ALA571      0.1728
     41  C         73.1660  -13.5840   68.3200 C.2   571  ALA571      0.2616
     42  O         72.5680  -12.7890   69.0490 O.2   571  ALA571     -0.2715
     43  CB        71.6760  -14.4230   66.4960 C.3   571  ALA571      0.0334
     44  N         74.4460  -13.4420   67.9910 N.am  572  ASP572     -0.1957
     45  CA        75.2510  -12.3120   68.4470 C.3   572  ASP572      0.1840
     46  C         75.3170  -12.1790   69.9720 C.2   572  ASP572      0.2621
     47  O         75.6030  -11.1040   70.5040 O.2   572  ASP572     -0.2715
     48  CB        74.7270  -11.0050   67.8270 C.3   572  ASP572      0.1450
     49  CG        75.8130   -9.9440   67.6790 C.2   572  ASP572      0.3671
     50  OD1       76.3760   -9.5050   68.7090 O.co2 572  ASP572     -0.2456
     51  OD2       76.1030   -9.5510   66.5280 O.co2 572  ASP572     -0.2456
     52  N         75.0400  -13.2740   70.6720 N.am  573  GLN573     -0.1977
     53  CA        75.1170  -13.2780   72.1270 C.3   573  GLN573      0.1601
     54  C         76.4060  -14.0080   72.4480 C.2   573  GLN573      0.2287
     55  O         77.1460  -13.6410   73.3640 O.2   573  GLN573     -0.2864
     56  CB        73.9430  -14.0430   72.7470 C.3   573  GLN573      0.0394
     57  CG        74.1100  -14.2880   74.2510 C.3   573  GLN573      0.0908
     58  CD        73.0910  -15.2630   74.8290 C.2   573  GLN573      0.2608
     59  OE1       73.1850  -15.6540   75.9950 O.2   573  GLN573     -0.2717
     60  NE2       72.1140  -15.6560   74.0180 N.am  573  GLN573     -0.0878
     61  N         78.8990  -14.2650   70.3360 N.3   575  ARG575     -0.1231
     62  CA        80.0300  -13.5570   69.7520 C.3   575  ARG575      0.1694
     63  C         80.5920  -12.4640   70.6430 C.2   575  ARG575      0.2591
     64  O         81.7420  -12.0610   70.4730 O.2   575  ARG575     -0.2718
     65  CB        79.6630  -13.0080   68.3720 C.3   575  ARG575      0.0321
     66  CG        79.8730  -14.0400   67.2730 C.3   575  ARG575      0.0489
     67  CD        79.3560  -15.4030   67.7240 C.3   575  ARG575      0.2205
     68  NE        79.8310  -16.4930   66.8850 N.pl3 575  ARG575     -0.0865
     69  CZ        79.4390  -16.6970   65.6330 C.cat 575  ARG575      0.5346
     70  NH1       79.9300  -17.7190   64.9520 N.pl3 575  ARG575      0.1354
     71  NH2       78.5560  -15.8870   65.0650 N.pl3 575  ARG575      0.1354
     72  N         79.7970  -11.9730   71.5880 N.am  576  ARG576     -0.1980
     73  CA        80.3160  -10.9620   72.4960 C.3   576  ARG576      0.1597
     74  C         81.0400  -11.7400   73.5830 C.2   576  ARG576      0.2287
     75  O         81.6350  -11.1640   74.4950 O.2   576  ARG576     -0.2864
     76  CB        79.2030  -10.1290   73.1270 C.3   576  ARG576      0.0334
     77  CG        79.7600   -8.9050   73.8350 C.3   576  ARG576      0.0492
     78  CD        78.8380   -8.3570   74.9060 C.3   576  ARG576      0.2205
     79  NE        79.4510   -7.2250   75.6050 N.pl3 576  ARG576     -0.0865
     80  CZ        80.6180   -7.2790   76.2490 C.cat 576  ARG576      0.5346
     81  NH1       81.0920   -6.1940   76.8520 N.pl3 576  ARG576      0.1354
     82  NH2       81.3100   -8.4110   76.2940 N.pl3 576  ARG576      0.1354
     83  N         84.6690  -13.7330   71.7680 N.3   579  VAL579     -0.1231
     84  CA        85.7260  -12.7410   71.8530 C.3   579  VAL579      0.1692
     85  C         86.1900  -12.6660   73.2970 C.2   579  VAL579      0.2591
     86  O         87.3670  -12.8720   73.5860 O.2   579  VAL579     -0.2718
     87  CB        85.2230  -11.3580   71.4220 C.3   579  VAL579      0.0266
     88  CG1       86.3080  -10.3150   71.6370 C.3   579  VAL579      0.0020
     89  CG2       84.8020  -11.4010   69.9640 C.3   579  VAL579      0.0020
     90  N         85.2620  -12.3660   74.1990 N.am  580  LYS580     -0.1980
     91  CA        85.5700  -12.2850   75.6240 C.3   580  LYS580      0.1596
     92  C         86.5020  -13.4360   75.9800 C.2   580  LYS580      0.2287
     93  O         87.4990  -13.2510   76.6790 O.2   580  LYS580     -0.2864
     94  CB        84.2750  -12.3750   76.4500 C.3   580  LYS580      0.0298
     95  CG        84.4560  -12.6100   77.9620 C.3   580  LYS580      0.0038
     96  CD        84.7680  -14.0760   78.2900 C.3   580  LYS580      0.0206
     97  CE        84.9520  -14.3160   79.7880 C.3   580  LYS580      0.1093
     98  NZ        83.6970  -14.1050   80.5620 N.3   580  LYS580     -0.1314
     99  N         90.3580  -13.3050   73.4530 N.3   583  LYS583     -0.1231
    100  CA        91.2660  -12.3540   74.0890 C.3   583  LYS583      0.1693
    101  C         91.7640  -12.8710   75.4460 C.2   583  LYS583      0.2591
    102  O         92.9580  -12.8120   75.7410 O.2   583  LYS583     -0.2718
    103  CB        90.5490  -11.0070   74.2450 C.3   583  LYS583      0.0285
    104  CG        91.3730   -9.8660   74.8320 C.3   583  LYS583      0.0035
    105  CD        91.5500  -10.0030   76.3380 C.3   583  LYS583      0.0206
    106  CE        92.0100   -8.6940   76.9610 C.3   583  LYS583      0.1093
    107  NZ        90.9720   -7.6330   76.8170 N.3   583  LYS583     -0.1314
    108  N         90.8480  -13.3840   76.2620 N.am  584  LYS584     -0.1980
    109  CA        91.2000  -13.9140   77.5770 C.3   584  LYS584      0.1596
    110  C         92.2520  -15.0090   77.4690 C.2   584  LYS584      0.2287
    111  O         93.3190  -14.9140   78.0700 O.2   584  LYS584     -0.2864
    112  CB        89.9470  -14.4760   78.2710 C.3   584  LYS584      0.0298
    113  CG        90.2040  -15.3080   79.5450 C.3   584  LYS584      0.0038
    114  CD        88.8850  -15.7700   80.1880 C.3   584  LYS584      0.0206
    115  CE        89.1020  -16.6820   81.3980 C.3   584  LYS584      0.1093
    116  NZ        89.6180  -18.0340   81.0330 N.3   584  LYS584     -0.1314
    117  N         94.1330  -16.0350   74.7970 N.3   586  LEU586     -0.1231
    118  CA        95.3510  -15.6570   74.0990 C.3   586  LEU586      0.1693
    119  C         96.3230  -14.9360   75.0200 C.2   586  LEU586      0.2591
    120  O         97.4400  -15.4060   75.2350 O.2   586  LEU586     -0.2718
    121  CB        95.0260  -14.7800   72.8890 C.3   586  LEU586      0.0284
    122  CG        94.4490  -15.5160   71.6750 C.3   586  LEU586      0.0019
    123  CD1       95.3660  -16.6660   71.2910 C.3   586  LEU586      0.0001
    124  CD2       93.0710  -16.0430   71.9890 C.3   586  LEU586      0.0001
    125  N         95.9010  -13.8030   75.5710 N.am  587  VAL587     -0.1980
    126  CA        96.7570  -13.0430   76.4780 C.3   587  VAL587      0.1595
    127  C         97.1520  -13.9300   77.6670 C.2   587  VAL587      0.2287
    128  O         98.0340  -13.5880   78.4600 O.2   587  VAL587     -0.2864
    129  CB        96.0290  -11.7860   77.0000 C.3   587  VAL587      0.0276
    130  CG1       97.0150  -10.8710   77.7120 C.3   587  VAL587      0.0022
    131  CG2       95.3600  -11.0590   75.8490 C.3   587  VAL587      0.0022
    132  N         99.4440  -17.1820   74.6380 N.3   590  LEU590     -0.1231
    133  CA       100.2980  -16.8060   73.5210 C.3   590  LEU590      0.1678
    134  C        101.7410  -16.5380   73.9430 C.2   590  LEU590      0.2434
    135  O        102.6720  -17.1160   73.3820 O.2   590  LEU590     -0.2733
    136  CB        99.7450  -15.5770   72.7990 C.3   590  LEU590      0.0284
    137  CG        99.7200  -15.6980   71.2730 C.3   590  LEU590      0.0019
    138  CD1       99.4900  -14.3310   70.6490 C.3   590  LEU590      0.0001
    139  CD2      101.0330  -16.2810   70.7890 C.3   590  LEU590      0.0001
    140  N        101.9480  -15.6670   74.9440 N.am  591  PRO591     -0.2729
    141  CA       103.3230  -15.3960   75.3590 C.3   591  PRO591      0.1401
    142  C        104.0680  -16.6610   75.7550 C.2   591  PRO591      0.2269
    143  O        105.2620  -16.7900   75.4980 O.2   591  PRO591     -0.2865
    144  CB       103.1480  -14.4270   76.5250 C.3   591  PRO591      0.0296
    145  CG       101.8580  -14.8640   77.1160 C.3   591  PRO591      0.0237
    146  CD       100.9990  -15.0470   75.8840 C.3   591  PRO591      0.0939
@<TRIPOS>BOND
     1    24    23    2
     2    23    22    1
     3    22    21    1
     4    22    25    1
     5    25    26    1
     6    70    69    1
     7    71    69    1
     8    26    27    1
     9    69    68    2
    10    29    27   ar
    11    27    28   ar
    12    16    15    2
    13    15    14    1
    14    43    40    1
    15    51    49   ar
    16     9    10    1
    17    68    67    1
    18    66    67    1
    19    66    65    1
    20    10    11    1
    21    12    11    2
    22    11    13   am
    23    13    14    1
    24    14    17    1
    25    49    48    1
    26    49    50   ar
    27    40    41    1
    28    40    39    1
    29    48    45    1
    30    44    41   am
    31    44    45    1
    32    17    18    1
    33    41    42    2
    34    65    62    1
    35    45    46    1
    36    39    32   am
    37     1     2    1
    38     4     3    2
    39     3     2    1
    40    18    19    2
    41    18    20   am
    42    62    61    1
    43    62    63    1
    44    32    33    2
    45    32    31    1
    46     2     5    1
    47    89    87    1
    48    46    47    2
    49    46    52   am
    50    64    63    2
    51    63    72   am
    52   138   137    1
    53    52    53    1
    54   139   137    1
    55    31    34    1
    56    31    30    1
    57     5     6    1
    58    34    35    1
    59   137   136    1
    60   123   122    1
    61    87    88    1
    62    87    84    1
    63    72    73    1
    64   122   124    1
    65   122   121    1
    66    83    84    1
    67    84    85    1
    68    37    36    2
    69    53    54    1
    70    53    56    1
    71     6     8    1
    72     6     7    1
    73    35    36    1
    74    54    55    2
    75    73    76    1
    76    73    74    1
    77    56    57    1
    78   136   133    1
    79    36    38   am
    80   121   118    1
    81    76    77    1
    82    85    86    2
    83    85    90   am
    84   135   134    2
    85    99   100    1
    86   133   134    1
    87   133   132    1
    88    74    75    2
    89    77    78    1
    90   134   140   am
    91    60    58   am
    92   100   103    1
    93   100   101    1
    94   118   117    1
    95   118   119    1
    96    90    91    1
    97   103   104    1
    98    57    58    1
    99    58    59    2
   100   104   105    1
   101    78    79    1
   102   140   141    1
   103   140   146    1
   104   119   120    2
   105   119   125   am
   106   141   142    1
   107   141   144    1
   108   101   102    2
   109   101   108   am
   110   143   142    2
   111   125   126    1
   112    79    80    2
   113    91    92    1
   114    91    94    1
   115   131   129    1
   116   146   145    1
   117    92    93    2
   118    80    82    1
   119    80    81    1
   120   108   109    1
   121   105   106    1
   122    94    95    1
   123   126   129    1
   124   126   127    1
   125   144   145    1
   126   107   106    1
   127   129   130    1
   128   110   109    1
   129   110   111    2
   130   109   112    1
   131   127   128    2
   132    95    96    1
   133   112   113    1
   134    96    97    1
   135   113   114    1
   136    97    98    1
   137   114   115    1
   138   116   115    1
