@<TRIPOS>MOLECULE
tmp/2w6dA09.pdb
 81 79 0 0 0
SMALL
GASTEIGER

@<TRIPOS>ATOM
      1  N         93.5540    1.4340   61.1240 N.3   417  GLN417     -0.1231
      2  CA        92.2500    2.0070   60.8750 C.3   417  GLN417      0.1683
      3  C         92.4490    3.4900   61.0360 C.2   417  GLN417      0.2434
      4  O         92.0360    4.0900   62.0250 O.2   417  GLN417     -0.2733
      5  CB        91.2220    1.4380   61.8520 C.3   417  GLN417      0.0380
      6  CG        90.9810   -0.0570   61.6350 C.3   417  GLN417      0.0905
      7  CD        89.5090   -0.4070   61.4660 C.2   417  GLN417      0.2608
      8  OE1       89.1690   -1.5090   61.0310 O.2   417  GLN417     -0.2717
      9  NE2       88.6320    0.5280   61.8200 N.am  417  GLN417     -0.0878
     10  N         93.0890    4.1000   60.0350 N.am  418  PRO418     -0.2718
     11  CA        93.3960    5.5270   60.0030 C.3   418  PRO418      0.1535
     12  C         92.2550    6.3350   60.5620 C.2   418  PRO418      0.2598
     13  O         91.1170    6.1930   60.1140 O.2   418  PRO418     -0.2715
     14  CB        93.6150    5.8010   58.5210 C.3   418  PRO418      0.0310
     15  CG        94.0810    4.4850   57.9850 C.3   418  PRO418      0.0237
     16  CD        93.1610    3.5260   58.6780 C.3   418  PRO418      0.0939
     17  N         92.5490    7.1570   61.5580 N.am  419  GLU419     -0.1964
     18  CA        91.5210    8.0070   62.1360 C.3   419  GLU419      0.1733
     19  C         91.8530    9.4100   61.6590 C.2   419  GLU419      0.2616
     20  O         92.9670    9.8800   61.8500 O.2   419  GLU419     -0.2715
     21  CB        91.5610    7.9530   63.6650 C.3   419  GLU419      0.0429
     22  CG        91.1310    6.6340   64.2970 C.3   419  GLU419      0.1163
     23  CD        89.6310    6.5050   64.4020 C.2   419  GLU419      0.3649
     24  OE1       89.0070    7.4810   64.8510 O.co2 419  GLU419     -0.2457
     25  OE2       89.0760    5.4380   64.0520 O.co2 419  GLU419     -0.2457
     26  N         90.9040   10.0770   61.0200 N.am  420  LEU420     -0.1963
     27  CA        91.1630   11.4210   60.5320 C.3   420  LEU420      0.1728
     28  C         90.5810   12.4230   61.5250 C.2   420  LEU420      0.2616
     29  O         89.4110   12.3380   61.8830 O.2   420  LEU420     -0.2715
     30  CB        90.5600   11.5750   59.1290 C.3   420  LEU420      0.0311
     31  CG        90.8150   12.8060   58.2590 C.3   420  LEU420      0.0022
     32  CD1       89.6730   13.7950   58.4020 C.3   420  LEU420      0.0001
     33  CD2       92.1420   13.4270   58.6210 C.3   420  LEU420      0.0001
     34  N         91.4210   13.3420   61.9950 N.am  421  ASN421     -0.1958
     35  CA        91.0110   14.3580   62.9620 C.3   421  ASN421      0.1819
     36  C         90.1750   15.4270   62.2780 C.2   421  ASN421      0.2621
     37  O         90.7060   16.4110   61.7730 O.2   421  ASN421     -0.2715
     38  CB        92.2360   15.0130   63.5940 C.3   421  ASN421      0.1195
     39  CG        91.8860   15.8330   64.8230 C.2   421  ASN421      0.2630
     40  OD1       90.9750   16.6620   64.7920 O.2   421  ASN421     -0.2716
     41  ND2       92.6110   15.5990   65.9200 N.am  421  ASN421     -0.0877
     42  N         88.8610   15.2360   62.2730 N.am  422  LEU422     -0.1977
     43  CA        87.9650   16.1790   61.6250 C.3   422  LEU422      0.1596
     44  C         88.2600   17.6360   61.9410 C.2   422  LEU422      0.2287
     45  O         88.0810   18.4990   61.0880 O.2   422  LEU422     -0.2864
     46  CB        86.5130   15.8370   61.9650 C.3   422  LEU422      0.0297
     47  CG        85.7470   15.0600   60.8890 C.3   422  LEU422      0.0022
     48  CD1       86.6740   14.1520   60.1030 C.3   422  LEU422      0.0001
     49  CD2       84.6420   14.2570   61.5450 C.3   422  LEU422      0.0001
     50  N         98.7860   12.5600   59.4130 N.3   440  LYS440     -0.1231
     51  CA        98.7070   12.0430   60.7760 C.3   440  LYS440      0.1693
     52  C         97.9080   10.7610   60.7620 C.2   440  LYS440      0.2591
     53  O         98.4000    9.7180   61.1550 O.2   440  LYS440     -0.2718
     54  CB        98.0240   13.0510   61.7040 C.3   440  LYS440      0.0285
     55  CG        98.7300   13.2380   63.0350 C.3   440  LYS440      0.0035
     56  CD        98.7650   11.9520   63.8420 C.3   440  LYS440      0.0206
     57  CE        99.7960   12.0170   64.9770 C.3   440  LYS440      0.1093
     58  NZ        99.5930   13.1670   65.9010 N.3   440  LYS440     -0.1314
     59  N         96.6760   10.8410   60.2900 N.am  441  ALA441     -0.1980
     60  CA        95.8240    9.6690   60.2200 C.3   441  ALA441      0.1597
     61  C         96.5600    8.4210   59.7330 C.2   441  ALA441      0.2287
     62  O         96.1920    7.3070   60.0890 O.2   441  ALA441     -0.2864
     63  CB        94.6470    9.9540   59.3190 C.3   441  ALA441      0.0319
     64  N         99.8750    7.9290   60.2210 N.3   443  GLU443     -0.1231
     65  CA       101.1560    7.8920   60.9290 C.3   443  GLU443      0.1699
     66  C        101.6880    6.4920   61.2090 C.2   443  GLU443      0.2592
     67  O        102.8090    6.1540   60.8140 O.2   443  GLU443     -0.2718
     68  CB       101.0570    8.6620   62.2470 C.3   443  GLU443      0.0402
     69  CG       102.3630    8.7250   63.0100 C.3   443  GLU443      0.1161
     70  CD       102.2840    9.6160   64.2230 C.2   443  GLU443      0.3649
     71  OE1      101.4960    9.2990   65.1420 O.co2 443  GLU443     -0.2457
     72  OE2      103.0080   10.6340   64.2590 O.co2 443  GLU443     -0.2457
     73  N        100.8920    5.6880   61.9000 N.am  444  GLN444     -0.1979
     74  CA       101.3040    4.3380   62.2300 C.3   444  GLN444      0.1601
     75  C        101.6300    3.5660   60.9660 C.2   444  GLN444      0.2287
     76  O        102.6670    2.9150   60.8800 O.2   444  GLN444     -0.2864
     77  CB       100.2100    3.6320   63.0260 C.3   444  GLN444      0.0394
     78  CG       100.2270    3.9390   64.5300 C.3   444  GLN444      0.0908
     79  CD       100.2430    5.4320   64.8570 C.2   444  GLN444      0.2608
     80  OE1       99.4010    6.2080   64.3780 O.2   444  GLN444     -0.2717
     81  NE2      101.2020    5.8400   65.6920 N.am  444  GLN444     -0.0878
@<TRIPOS>BOND
     1    15    14    1
     2    15    16    1
     3    31    32    1
     4    31    33    1
     5    31    30    1
     6    14    11    1
     7    16    10    1
     8    30    27    1
     9    63    60    1
    10    50    51    1
    11    61    62    2
    12    61    60    1
    13    11    10    1
    14    11    12    1
    15    10     3   am
    16    48    47    1
    17    13    12    2
    18    60    59    1
    19    64    65    1
    20    59    52   am
    21    27    26    1
    22    27    28    1
    23    12    17   am
    24    52    51    1
    25    52    53    2
    26    51    54    1
    27    67    66    2
    28     2     3    1
    29     2     1    1
    30     2     5    1
    31    76    75    2
    32    47    49    1
    33    47    46    1
    34    65    66    1
    35    65    68    1
    36    75    74    1
    37    26    19   am
    38     8     7    2
    39     3     4    2
    40    45    44    2
    41    66    73   am
    42     7     6    1
    43     7     9   am
    44    28    29    2
    45    28    34   am
    46    17    18    1
    47    43    44    1
    48    43    46    1
    49    43    42    1
    50     6     5    1
    51    19    20    2
    52    19    18    1
    53    54    55    1
    54    37    36    2
    55    73    74    1
    56    34    35    1
    57    18    21    1
    58    74    77    1
    59    68    69    1
    60    42    36   am
    61    36    35    1
    62    35    38    1
    63    69    70    1
    64    77    78    1
    65    55    56    1
    66    38    39    1
    67    21    22    1
    68    56    57    1
    69    25    23   ar
    70    70    72   ar
    71    70    71   ar
    72    22    23    1
    73    80    79    2
    74    23    24   ar
    75    78    79    1
    76    40    39    2
    77    39    41   am
    78    79    81   am
    79    57    58    1
