@<TRIPOS>MOLECULE
tmp/2w6dA02.pdb
 136 131 0 0 0
SMALL
GASTEIGER

@<TRIPOS>ATOM
      1  N        223.4980   -7.3650   62.0120 N.3    76  ASP76      -0.1225
      2  CA       223.0580   -8.5920   62.6510 C.3    76  ASP76       0.1805
      3  C        224.0110   -9.0430   63.7540 C.2    76  ASP76       0.2598
      4  O        224.9240   -8.3180   64.1460 O.2    76  ASP76      -0.2718
      5  CB       222.9300   -9.6870   61.6020 C.3    76  ASP76       0.1424
      6  CG       221.7240  -10.5630   61.8270 C.2    76  ASP76       0.3668
      7  OD1      221.3520  -11.2980   60.8820 O.co2  76  ASP76      -0.2456
      8  OD2      221.1570  -10.5130   62.9420 O.co2  76  ASP76      -0.2456
      9  N        223.7840  -10.2490   64.2530 N.am   77  MET77      -0.1965
     10  CA       224.6050  -10.7990   65.3240 C.3    77  MET77       0.1736
     11  C        225.9860  -11.1840   64.8360 C.2    77  MET77       0.2616
     12  O        226.1300  -11.8360   63.7950 O.2    77  MET77      -0.2715
     13  CB       223.9550  -12.0550   65.9290 C.3    77  MET77       0.0427
     14  CG       222.5250  -11.9020   66.4280 C.3    77  MET77       0.0599
     15  SD       222.3070  -10.5020   67.5420 S.3    77  MET77      -0.1393
     16  CE       221.1300   -9.4970   66.5710 C.3    77  MET77       0.0692
     17  N        226.9930  -10.7920   65.6080 N.am   78  LYS78      -0.1963
     18  CA       228.3800  -11.1220   65.3040 C.3    78  LYS78       0.1728
     19  C        228.8070  -10.8650   63.8550 C.2    78  LYS78       0.2616
     20  O        229.2930  -11.7730   63.1820 O.2    78  LYS78      -0.2715
     21  CB       228.6390  -12.5940   65.6570 C.3    78  LYS78       0.0311
     22  CG       228.6820  -12.9050   67.1540 C.3    78  LYS78       0.0038
     23  CD       229.9330  -12.3080   67.8010 C.3    78  LYS78       0.0206
     24  CE       230.1550  -12.8020   69.2350 C.3    78  LYS78       0.1093
     25  NZ       231.4730  -12.3360   69.8000 N.3    78  LYS78      -0.1314
     26  N        228.6380   -9.6390   63.3680 N.am   79  ARG79      -0.1963
     27  CA       229.0400   -9.3470   61.9940 C.3    79  ARG79       0.1729
     28  C        230.3020   -8.5180   62.0190 C.2    79  ARG79       0.2617
     29  O        231.0860   -8.5430   61.0760 O.2    79  ARG79      -0.2715
     30  CB       227.9470   -8.5820   61.2140 C.3    79  ARG79       0.0348
     31  CG       226.6340   -9.3200   61.0070 C.3    79  ARG79       0.0492
     32  CD       226.8750  -10.7850   60.7150 C.3    79  ARG79       0.2205
     33  NE       225.6510  -11.4550   60.3170 N.pl3  79  ARG79      -0.0865
     34  CZ       225.0620  -11.2760   59.1380 C.cat  79  ARG79       0.5346
     35  NH1      225.6050  -10.4480   58.2500 N.pl3  79  ARG79       0.1354
     36  NH2      223.9250  -11.9010   58.8540 N.pl3  79  ARG79       0.1354
     37  N        230.4860   -7.7750   63.1070 N.am   80  GLY80      -0.1940
     38  CA       231.6680   -6.9460   63.2370 C.3    80  GLY80       0.2014
     39  C        231.3440   -5.5220   63.6260 C.2    80  GLY80       0.2639
     40  O        232.2410   -4.7070   63.8030 O.2    80  GLY80      -0.2714
     41  N        230.0600   -5.2230   63.7630 N.am   81  LYS81      -0.1963
     42  CA       229.6070   -3.8840   64.1290 C.3    81  LYS81       0.1728
     43  C        230.5200   -3.2740   65.1890 C.2    81  LYS81       0.2617
     44  O        230.9650   -2.1350   65.0790 O.2    81  LYS81      -0.2715
     45  CB       228.1750   -3.9610   64.6750 C.3    81  LYS81       0.0311
     46  CG       227.3810   -2.6790   64.5300 C.3    81  LYS81       0.0038
     47  CD       226.0530   -2.7360   65.2770 C.3    81  LYS81       0.0206
     48  CE       225.1100   -3.8140   64.7570 C.3    81  LYS81       0.1093
     49  NZ       225.4370   -5.2050   65.2220 N.3    81  LYS81      -0.1314
     50  N        230.7860   -4.0650   66.2180 N.am   82  SER82      -0.1936
     51  CA       231.6260   -3.6810   67.3400 C.3    82  SER82       0.2055
     52  C        233.0460   -3.3690   66.8760 C.2    82  SER82       0.2643
     53  O        233.5270   -2.2510   67.0190 O.2    82  SER82      -0.2714
     54  CB       231.6290   -4.8210   68.3580 C.3    82  SER82       0.2130
     55  OG       232.2000   -4.4210   69.5890 O.3    82  SER82      -0.2179
     56  N        233.7140   -4.3660   66.3270 N.am   83  THR83      -0.1950
     57  CA       235.0640   -4.1760   65.8310 C.3    83  THR83       0.1897
     58  C        235.1080   -3.0480   64.8030 C.2    83  THR83       0.2313
     59  O        236.0350   -2.2500   64.7910 O.2    83  THR83      -0.2863
     60  CB       235.5660   -5.4660   65.2050 C.3    83  THR83       0.1794
     61  OG1      235.7290   -6.4420   66.2400 O.3    83  THR83      -0.2208
     62  CG2      236.8840   -5.2420   64.4730 C.3    83  THR83       0.0378
     63  N        233.2630   -3.7810   73.4150 N.3    95  PRO95      -0.2102
     64  CA       233.6810   -5.1510   73.7470 C.3    95  PRO95       0.1504
     65  C        233.5370   -6.1930   72.6390 C.2    95  PRO95       0.2576
     66  O        232.4230   -6.5810   72.2900 O.2    95  PRO95      -0.2718
     67  CB       232.8070   -5.4830   74.9420 C.3    95  PRO95       0.0282
     68  CG       231.5230   -4.7850   74.5870 C.3    95  PRO95       0.0208
     69  CD       232.0200   -3.4350   74.1290 C.3    95  PRO95       0.0893
     70  N        234.6650   -6.6640   72.1150 N.am   96  SER96      -0.1953
     71  CA       234.6600   -7.6680   71.0490 C.3    96  SER96       0.1924
     72  C        234.5430   -9.0850   71.6120 C.2    96  SER96       0.2314
     73  O        234.6460  -10.0700   70.8770 O.2    96  SER96      -0.2863
     74  CB       235.9380   -7.5580   70.2040 C.3    96  SER96       0.2116
     75  OG       236.0470   -6.2840   69.5880 O.3    96  SER96      -0.2180
     76  N        228.3680   -9.1430   56.6380 N.3   203  ARG203     -0.1245
     77  CA       229.5690   -9.9830   56.6380 C.3   203  ARG203      0.1563
     78  C        229.6780  -10.8800   55.4070 C.2   203  ARG203      0.2260
     79  O        228.6950  -11.4370   54.9440 O.2   203  ARG203     -0.2867
     80  CB       229.5920  -10.8460   57.8970 C.3   203  ARG203      0.0307
     81  CG       230.8650  -11.6220   58.0680 C.3   203  ARG203      0.0489
     82  CD       230.9820  -12.1790   59.4700 C.3   203  ARG203      0.2205
     83  NE       232.3300  -12.6750   59.7130 N.pl3 203  ARG203     -0.0865
     84  CZ       232.8960  -12.6870   60.9060 C.cat 203  ARG203      0.5346
     85  NH1      232.2190  -12.2380   61.9540 N.pl3 203  ARG203      0.1354
     86  NH2      234.1420  -13.1120   61.0540 N.pl3 203  ARG203      0.1354
     87  N        231.6440   -6.5340   55.7920 N.3   232  ASN232     -0.1225
     88  CA       232.7640   -6.7390   56.6960 C.3   232  ASN232      0.1785
     89  C        233.4310   -8.1060   56.6100 C.2   232  ASN232      0.2597
     90  O        232.9100   -9.0350   55.9980 O.2   232  ASN232     -0.2718
     91  CB       232.3210   -6.4940   58.1330 C.3   232  ASN232      0.1169
     92  CG       233.4940   -6.3090   59.0630 C.2   232  ASN232      0.2627
     93  OD1      233.4400   -6.6680   60.2460 O.2   232  ASN232     -0.2716
     94  ND2      234.5720   -5.7370   58.5320 N.am  232  ASN232     -0.0877
     95  N        234.5970   -8.2140   57.2480 N.am  233  ALA233     -0.1979
     96  CA       235.3820   -9.4490   57.2660 C.3   233  ALA233      0.1597
     97  C        235.6620   -9.9330   55.8520 C.2   233  ALA233      0.2287
     98  O        235.6180  -11.1240   55.5730 O.2   233  ALA233     -0.2864
     99  CB       234.6560  -10.5190   58.0400 C.3   233  ALA233      0.0319
    100  N        238.3830  -10.0150   54.4340 N.3   235  ASP235     -0.1225
    101  CA       239.6350  -10.7570   54.4130 C.3   235  ASP235      0.1805
    102  C        239.4440  -12.2660   54.4490 C.2   235  ASP235      0.2597
    103  O        240.2640  -13.0190   53.9170 O.2   235  ASP235     -0.2718
    104  CB       240.4860  -10.3570   55.6010 C.3   235  ASP235      0.1424
    105  CG       239.7580  -10.5350   56.8980 C.2   235  ASP235      0.3668
    106  OD1      240.2840  -11.2210   57.7960 O.co2 235  ASP235     -0.2456
    107  OD2      238.6480   -9.9820   57.0090 O.co2 235  ASP235     -0.2456
    108  N        238.3680  -12.7120   55.0820 N.am  236  GLN236     -0.1979
    109  CA       238.1090  -14.1440   55.2070 C.3   236  GLN236      0.1601
    110  C        237.8940  -14.9000   53.8950 C.2   236  GLN236      0.2287
    111  O        238.1410  -16.1160   53.8080 O.2   236  GLN236     -0.2864
    112  CB       236.9220  -14.3740   56.1450 C.3   236  GLN236      0.0394
    113  CG       237.3440  -14.3700   57.6070 C.3   236  GLN236      0.0908
    114  CD       236.2210  -14.7450   58.5570 C.2   236  GLN236      0.2608
    115  OE1      236.4660  -15.3590   59.6000 O.2   236  GLN236     -0.2717
    116  NE2      234.9840  -14.3680   58.2100 N.am  236  GLN236     -0.0878
    117  N        237.7330   -4.8560   56.0080 N.3   285  SER285     -0.1202
    118  CA       238.4150   -5.7560   56.9290 C.3   285  SER285      0.2020
    119  C        238.6160   -4.9400   58.2010 C.2   285  SER285      0.2619
    120  O        239.6990   -4.3900   58.4220 O.2   285  SER285     -0.2717
    121  CB       239.7770   -6.1870   56.3940 C.3   285  SER285      0.2103
    122  OG       240.4640   -6.9560   57.3710 O.3   285  SER285     -0.2182
    123  N        237.5670   -4.8450   59.0150 N.am  286  SER286     -0.1937
    124  CA       237.6420   -4.0780   60.2480 C.3   286  SER286      0.2055
    125  C        238.7640   -4.5670   61.1590 C.2   286  SER286      0.2642
    126  O        239.4700   -3.7770   61.7870 O.2   286  SER286     -0.2714
    127  CB       236.3120   -4.1400   60.9880 C.3   286  SER286      0.2130
    128  OG       235.3000   -3.4910   60.2520 O.3   286  SER286     -0.2179
    129  N        238.9370   -5.8790   61.2150 N.am  287  ILE287     -0.1977
    130  CA       239.9630   -6.4660   62.0560 C.3   287  ILE287      0.1596
    131  C        241.3610   -5.9950   61.6630 C.2   287  ILE287      0.2287
    132  O        242.2310   -5.8480   62.5080 O.2   287  ILE287     -0.2864
    133  CB       239.8970   -7.9980   61.9810 C.3   287  ILE287      0.0276
    134  CG1      240.7110   -8.6010   63.1130 C.3   287  ILE287      0.0022
    135  CG2      240.3720   -8.4790   60.6290 C.3   287  ILE287      0.0022
    136  CD1      240.1310   -8.2810   64.4660 C.3   287  ILE287      0.0001
@<TRIPOS>BOND
     1   111   110    2
     2   110   109    1
     3   103   102    2
     4   101   100    1
     5   101   102    1
     6   101   104    1
     7   102   108   am
     8    79    78    2
     9   108   109    1
    10   109   112    1
    11    78    77    1
    12    98    97    2
    13   104   105    1
    14    87    88    1
    15    97    96    1
    16    90    89    2
    17   117   118    1
    18   112   113    1
    19   121   118    1
    20   121   122    1
    21    89    88    1
    22    89    95   am
    23    76    77    1
    24    77    80    1
    25    88    91    1
    26   105   107   ar
    27   105   106   ar
    28   118   119    1
    29    95    96    1
    30    96    99    1
    31   113   114    1
    32    80    81    1
    33    81    82    1
    34    91    92    1
    35   119   120    2
    36   119   123   am
    37   116   114   am
    38    35    34    1
    39    94    92   am
    40   114   115    2
    41    36    34    1
    42   123   124    1
    43    92    93    2
    44    34    33    2
    45    82    83    1
    46    83    84    2
    47   124   127    1
    48   124   125    1
    49   128   127    1
    50    33    32    1
    51   135   133    1
    52    32    31    1
    53     7     6   ar
    54    84    86    1
    55    84    85    1
    56    31    30    1
    57    29    28    2
    58   125   129   am
    59   125   126    2
    60    30    27    1
    61   129   130    1
    62     5     6    1
    63     5     2    1
    64   131   130    1
    65   131   132    2
    66     6     8   ar
    67   133   130    1
    68   133   134    1
    69    27    28    1
    70    27    26    1
    71     1     2    1
    72    28    37   am
    73     2     3    1
    74    37    38    1
    75   134   136    1
    76    20    19    2
    77    38    39    1
    78    26    19   am
    79    39    41   am
    80    39    40    2
    81     3     4    2
    82     3     9   am
    83    41    42    1
    84    12    11    2
    85    19    18    1
    86    42    45    1
    87    42    43    1
    88     9    10    1
    89    62    60    1
    90    46    45    1
    91    46    47    1
    92    48    49    1
    93    48    47    1
    94    59    58    2
    95    58    57    1
    96    11    10    1
    97    11    17   am
    98    44    43    2
    99    43    50   am
   100    60    57    1
   101    60    61    1
   102    18    17    1
   103    18    21    1
   104    10    13    1
   105    21    22    1
   106    57    56    1
   107    13    14    1
   108    50    51    1
   109    56    52   am
   110    14    15    1
   111    16    15    1
   112    52    53    2
   113    52    51    1
   114    22    23    1
   115    51    54    1
   116    23    24    1
   117    54    55    1
   118    24    25    1
   119    75    74    1
   120    74    71    1
   121    73    72    2
   122    71    72    1
   123    71    70    1
   124    70    65   am
   125    66    65    2
   126    65    64    1
   127    63    64    1
   128    63    69    1
   129    64    67    1
   130    69    68    1
   131    68    67    1
