@<TRIPOS>MOLECULE
tmp/2w6mA00.pdb
 141 132 0 0 0
SMALL
GASTEIGER

@<TRIPOS>ATOM
      1  N          4.7240  -33.4420   27.3650 N.3   131  VAL131     -0.1245
      2  CA         3.3150  -33.0520   27.2590 C.3   131  VAL131      0.1561
      3  C          2.5320  -34.2190   26.6540 C.2   131  VAL131      0.2260
      4  O          2.9650  -34.7860   25.6510 O.2   131  VAL131     -0.2867
      5  CB         3.1020  -31.7980   26.3580 C.3   131  VAL131      0.0252
      6  CG1        1.6760  -31.2830   26.4910 C.3   131  VAL131      0.0019
      7  CG2        4.0910  -30.6770   26.6940 C.3   131  VAL131      0.0019
      8  N         -2.7910  -28.2170   20.7100 N.3   157  ILE157     -0.1245
      9  CA        -1.9530  -27.3190   19.9230 C.3   157  ILE157      0.1561
     10  C         -1.2080  -28.1230   18.8570 C.2   157  ILE157      0.2260
     11  O         -0.6660  -29.1890   19.1370 O.2   157  ILE157     -0.2867
     12  CB        -0.9870  -26.4840   20.8340 C.3   157  ILE157      0.0252
     13  CG1       -0.2010  -25.4440   20.0160 C.3   157  ILE157      0.0019
     14  CG2       -0.0630  -27.3970   21.6540 C.3   157  ILE157      0.0019
     15  CD1        0.3680  -24.2890   20.8500 C.3   157  ILE157      0.0001
     16  N          1.9300  -28.3530   16.3860 N.3   159  LYS159     -0.1245
     17  CA         3.2930  -27.8260   16.3120 C.3   159  LYS159      0.1561
     18  C          4.0760  -28.4350   15.1510 C.2   159  LYS159      0.2260
     19  O          3.8640  -29.5910   14.7880 O.2   159  LYS159     -0.2867
     20  CB         4.0420  -28.0840   17.6230 C.3   159  LYS159      0.0271
     21  CG         3.4970  -27.3300   18.8350 C.3   159  LYS159      0.0035
     22  CD         4.3780  -27.5770   20.0550 C.3   159  LYS159      0.0206
     23  CE         4.0170  -26.6430   21.2040 C.3   159  LYS159      0.1093
     24  NZ         4.9300  -26.8740   22.3660 N.3   159  LYS159     -0.1314
     25  N          8.5070  -21.2860   19.8970 N.3   166  GLY166     -0.1225
     26  CA         7.2250  -20.6120   19.6900 C.3   166  GLY166      0.1811
     27  C          6.8780  -20.3900   18.2280 C.2   166  GLY166      0.2280
     28  O          5.8490  -19.7920   17.9130 O.2   166  GLY166     -0.2866
     29  N          3.0620  -22.8910   15.0550 N.3   169  MET169     -0.1245
     30  CA         2.0650  -23.5670   15.8930 C.3   169  MET169      0.1570
     31  C          0.7150  -22.8460   15.9480 C.2   169  MET169      0.2261
     32  O          0.6430  -21.6280   15.7770 O.2   169  MET169     -0.2867
     33  CB         2.6080  -23.8320   17.3120 C.3   169  MET169      0.0387
     34  CG         3.1880  -22.6250   18.0170 C.3   169  MET169      0.0595
     35  SD         4.0150  -23.0020   19.5810 S.3   169  MET169     -0.1393
     36  CE         3.8170  -21.3980   20.3380 C.3   169  MET169      0.0692
     37  N         -3.2890  -23.1140   18.1910 N.3   171  VAL171     -0.1245
     38  CA        -4.1520  -23.6650   19.2180 C.3   171  VAL171      0.1561
     39  C         -5.4870  -24.0800   18.6030 C.2   171  VAL171      0.2260
     40  O         -6.0830  -23.3310   17.8220 O.2   171  VAL171     -0.2867
     41  CB        -4.3970  -22.6220   20.3370 C.3   171  VAL171      0.0252
     42  CG1       -5.1660  -23.2310   21.5060 C.3   171  VAL171      0.0019
     43  CG2       -3.0760  -22.0300   20.8090 C.3   171  VAL171      0.0019
     44  N         -0.0160  -31.6180   20.7440 N.3   201  GLU201     -0.1231
     45  CA         0.1590  -31.6830   22.1910 C.3   201  GLU201      0.1699
     46  C         -1.1000  -31.1760   22.8640 C.2   201  GLU201      0.2592
     47  O         -1.8430  -30.3920   22.2730 O.2   201  GLU201     -0.2718
     48  CB         1.3420  -30.8120   22.6370 C.3   201  GLU201      0.0402
     49  CG         2.7230  -31.3800   22.3150 C.3   201  GLU201      0.1161
     50  CD         3.8570  -30.4670   22.7690 C.2   201  GLU201      0.3649
     51  OE1        5.0190  -30.9210   22.7710 O.co2 201  GLU201     -0.2457
     52  OE2        3.5970  -29.3020   23.1270 O.co2 201  GLU201     -0.2457
     53  N         -1.3340  -31.6240   24.0970 N.am  202  LYS202     -0.1966
     54  CA        -2.3150  -30.9920   24.9780 C.3   202  LYS202      0.1728
     55  C         -1.9220  -29.5290   25.1310 C.2   202  LYS202      0.2616
     56  O         -0.7530  -29.2250   25.3950 O.2   202  LYS202     -0.2715
     57  CB        -2.3250  -31.6850   26.3570 C.3   202  LYS202      0.0311
     58  CG        -3.2810  -31.0690   27.3890 C.3   202  LYS202      0.0038
     59  CD        -4.7410  -31.3210   27.0400 C.3   202  LYS202      0.0206
     60  CE        -5.6770  -30.6740   28.0500 C.3   202  LYS202      0.1093
     61  NZ        -7.1020  -30.8010   27.6380 N.3   202  LYS202     -0.1314
     62  N         -2.8840  -28.6270   24.9540 N.am  203  TYR203     -0.1960
     63  CA        -2.6180  -27.2050   25.1360 C.3   203  TYR203      0.1771
     64  C         -2.6490  -26.8270   26.6150 C.2   203  TYR203      0.2619
     65  O         -3.6380  -27.0800   27.3120 O.2   203  TYR203     -0.2715
     66  CB        -3.5970  -26.3350   24.3330 C.3   203  TYR203      0.0574
     67  CG        -3.3190  -24.8490   24.4620 C.ar  203  TYR203     -0.0198
     68  CD1       -2.1530  -24.2920   23.9370 C.ar  203  TYR203     -0.0009
     69  CD2       -4.2130  -24.0040   25.1220 C.ar  203  TYR203     -0.0009
     70  CE1       -1.8840  -22.9340   24.0640 C.ar  203  TYR203      0.0417
     71  CE2       -3.9550  -22.6380   25.2500 C.ar  203  TYR203      0.0417
     72  CZ        -2.7900  -22.1150   24.7150 C.ar  203  TYR203      0.1957
     73  OH        -2.5210  -20.7730   24.8330 O.3   203  TYR203     -0.2866
     74  N         -1.5530  -26.2340   27.0840 N.am  204  LEU204     -0.1977
     75  CA        -1.4720  -25.7110   28.4430 C.3   204  LEU204      0.1596
     76  C         -1.7390  -24.2060   28.4040 C.2   204  LEU204      0.2287
     77  O         -1.0640  -23.4650   27.6790 O.2   204  LEU204     -0.2864
     78  CB        -0.1080  -26.0200   29.0690 C.3   204  LEU204      0.0297
     79  CG         0.3870  -27.4750   29.0610 C.3   204  LEU204      0.0022
     80  CD1        1.7950  -27.5530   29.6180 C.3   204  LEU204      0.0001
     81  CD2       -0.5490  -28.4090   29.8320 C.3   204  LEU204      0.0001
     82  N          1.2140  -21.7580   31.2990 N.3   207  PRO207     -0.2116
     83  CA         2.4240  -22.3340   31.8740 C.3   207  PRO207      0.1372
     84  C          3.5390  -21.3010   32.0250 C.2   207  PRO207      0.2244
     85  O          3.4540  -20.2020   31.4730 O.2   207  PRO207     -0.2868
     86  CB         2.8310  -23.3820   30.8340 C.3   207  PRO207      0.0268
     87  CG         2.3590  -22.8200   29.5460 C.3   207  PRO207      0.0207
     88  CD         1.1000  -22.0520   29.8560 C.3   207  PRO207      0.0892
     89  N          8.3510  -12.7190   28.0250 N.3   233  GLN233     -0.1245
     90  CA         8.5810  -12.7950   26.5800 C.3   233  GLN233      0.1566
     91  C          7.7370  -11.8080   25.7850 C.2   233  GLN233      0.2260
     92  O          6.6200  -11.4690   26.1790 O.2   233  GLN233     -0.2867
     93  CB         8.2630  -14.2050   26.0610 C.3   233  GLN233      0.0367
     94  CG         9.1550  -15.3220   26.5880 C.3   233  GLN233      0.0905
     95  CD         8.6430  -16.7020   26.2060 C.2   233  GLN233      0.2608
     96  OE1        7.8890  -16.8550   25.2410 O.2   233  GLN233     -0.2717
     97  NE2        9.0570  -17.7170   26.9600 N.am  233  GLN233     -0.0878
     98  N          7.5280  -14.3680   21.5520 N.3   236  HIS236     -0.1241
     99  CA         8.3440  -15.5610   21.8140 C.3   236  HIS236      0.1621
    100  C          9.8380  -15.2770   22.0230 C.2   236  HIS236      0.2264
    101  O         10.6450  -16.2050   22.1130 O.2   236  HIS236     -0.2867
    102  CB         8.1200  -16.6320   20.7320 C.3   236  HIS236      0.0745
    103  CG         6.6750  -16.9070   20.4580 C.ar  236  HIS236      0.0817
    104  ND1        5.9000  -17.6990   21.2770 N.ar  236  HIS236     -0.2268
    105  CD2        5.8560  -16.4720   19.4710 C.ar  236  HIS236      0.1154
    106  CE1        4.6690  -17.7510   20.8000 C.ar  236  HIS236      0.1986
    107  NE2        4.6160  -17.0160   19.7040 N.ar  236  HIS236     -0.2212
    108  N          7.6320  -26.7250   29.7880 N.3   278  LEU278     -0.1245
    109  CA         6.5090  -25.9310   30.2490 C.3   278  LEU278      0.1561
    110  C          6.1850  -26.4230   31.6520 C.2   278  LEU278      0.2260
    111  O          6.1240  -27.6300   31.8990 O.2   278  LEU278     -0.2867
    112  CB         5.3020  -26.0660   29.3200 C.3   278  LEU278      0.0270
    113  CG         5.4490  -25.5430   27.8840 C.3   278  LEU278      0.0019
    114  CD1        4.1750  -25.8210   27.1220 C.3   278  LEU278      0.0001
    115  CD2        5.7850  -24.0460   27.8290 C.3   278  LEU278      0.0001
    116  N          9.3150  -29.9050   26.1700 N.3   287  ILE287     -0.1245
    117  CA         8.8620  -29.4790   24.8400 C.3   287  ILE287      0.1561
    118  C          9.9660  -29.5240   23.7800 C.2   287  ILE287      0.2260
    119  O          9.7330  -29.9700   22.6460 O.2   287  ILE287     -0.2867
    120  CB         8.1600  -28.0910   24.8530 C.3   287  ILE287      0.0252
    121  CG1        8.9710  -27.0530   25.6480 C.3   287  ILE287      0.0019
    122  CG2        6.7380  -28.2360   25.4060 C.3   287  ILE287      0.0019
    123  CD1        8.5840  -25.5930   25.3650 C.3   287  ILE287      0.0001
    124  N          4.0300  -17.3000   30.7650 N.3   437  ILE437     -0.1231
    125  CA         4.5980  -16.9610   29.4500 C.3   437  ILE437      0.1692
    126  C          3.8270  -15.8850   28.6750 C.2   437  ILE437      0.2592
    127  O          4.3510  -15.3150   27.7110 O.2   437  ILE437     -0.2718
    128  CB         4.8000  -18.2180   28.5500 C.3   437  ILE437      0.0266
    129  CG1        3.4630  -18.9230   28.2710 C.3   437  ILE437      0.0019
    130  CG2        5.8360  -19.1590   29.1710 C.3   437  ILE437      0.0020
    131  CD1        3.5390  -20.0130   27.2110 C.3   437  ILE437      0.0001
    132  N          2.5930  -15.6150   29.0960 N.am  438  HIS438     -0.1976
    133  CA         1.7370  -14.6400   28.4180 C.3   438  HIS438      0.1656
    134  C          1.7190  -13.2820   29.1130 C.2   438  HIS438      0.2291
    135  O          1.1410  -12.3250   28.5880 O.2   438  HIS438     -0.2864
    136  CB         0.3010  -15.1690   28.2960 C.3   438  HIS438      0.0771
    137  CG         0.2100  -16.5600   27.7500 C.ar  438  HIS438      0.0820
    138  ND1        0.6540  -16.8950   26.4890 N.ar  438  HIS438     -0.2267
    139  CD2       -0.2800  -17.6990   28.2930 C.ar  438  HIS438      0.1154
    140  CE1        0.4390  -18.1820   26.2790 C.ar  438  HIS438      0.1986
    141  NE2       -0.1270  -18.6920   27.3580 N.ar  438  HIS438     -0.2212
@<TRIPOS>BOND
     1    19    18    2
     2    29    30    1
     3    18    17    1
     4    32    31    2
     5    30    31    1
     6    30    33    1
     7    17    16    1
     8    17    20    1
     9    33    34    1
    10    20    21    1
    11    40    39    2
    12    28    27    2
    13    34    35    1
    14    37    38    1
    15    27    26    1
    16    39    38    1
    17    21    22    1
    18    10    11    2
    19    10     9    1
    20    38    41    1
    21   105   107   ar
    22   105   103   ar
    23    35    36    1
    24    26    25    1
    25   107   106   ar
    26     9     8    1
    27     9    12    1
    28    13    12    1
    29    13    15    1
    30    22    23    1
    31    41    43    1
    32    41    42    1
    33   103   102    1
    34   103   104   ar
    35   102    99    1
    36    44    45    1
    37   106   104   ar
    38    12    14    1
    39    23    24    1
    40    98    99    1
    41    99   100    1
    42   100   101    2
    43    45    48    1
    44    45    46    1
    45    47    46    2
    46    49    48    1
    47    49    50    1
    48   119   118    2
    49    50    51   ar
    50    50    52   ar
    51    46    53   am
    52   118   117    1
    53    68    70   ar
    54    68    67   ar
    55    70    72   ar
    56    53    54    1
    57    66    67    1
    58    66    63    1
    59    67    69   ar
    60    72    73    1
    61    72    71   ar
    62   117   120    1
    63   117   116    1
    64   120   122    1
    65   120   121    1
    66    62    55   am
    67    62    63    1
    68    54    55    1
    69    54    57    1
    70    69    71   ar
    71    55    56    2
    72    63    64    1
    73    96    95    2
    74   123   121    1
    75     4     3    2
    76    91    92    2
    77    91    90    1
    78    93    90    1
    79    93    94    1
    80    95    94    1
    81    95    97   am
    82   140   138   ar
    83   140   141   ar
    84    57    58    1
    85     5     6    1
    86     5     7    1
    87     5     2    1
    88   138   137   ar
    89    90    89    1
    90    64    74   am
    91    64    65    2
    92     3     2    1
    93    59    58    1
    94    59    60    1
    95    74    75    1
    96   114   113    1
    97   131   129    1
    98     2     1    1
    99   141   139   ar
   100    61    60    1
   101    77    76    2
   102   127   126    2
   103   137   139   ar
   104   137   136    1
   105   115   113    1
   106   113   112    1
   107   129   128    1
   108   136   133    1
   109    76    75    1
   110   133   132    1
   111   133   134    1
   112    75    78    1
   113   128   130    1
   114   128   125    1
   115   135   134    2
   116   126   132   am
   117   126   125    1
   118    79    78    1
   119    79    80    1
   120    79    81    1
   121   112   109    1
   122   125   124    1
   123    87    88    1
   124    87    86    1
   125   108   109    1
   126    88    82    1
   127   109   110    1
   128    86    83    1
   129    82    83    1
   130    85    84    2
   131   110   111    2
   132    83    84    1
