@<TRIPOS>MOLECULE
tmp/2w6nA00.pdb
 171 163 0 0 0
SMALL
GASTEIGER

@<TRIPOS>ATOM
      1  N          4.5880  -33.2670   27.4270 N.3   131  VAL131     -0.1245
      2  CA         3.2000  -32.8190   27.3450 C.3   131  VAL131      0.1561
      3  C          2.3590  -33.9720   26.7590 C.2   131  VAL131      0.2260
      4  O          2.7540  -34.5740   25.7740 O.2   131  VAL131     -0.2867
      5  CB         3.0240  -31.5640   26.4200 C.3   131  VAL131      0.0252
      6  CG1        1.5700  -31.0870   26.4410 C.3   131  VAL131      0.0019
      7  CG2        3.9450  -30.4070   26.8030 C.3   131  VAL131      0.0019
      8  N         -2.8210  -28.0430   20.5870 N.3   157  ILE157     -0.1245
      9  CA        -1.9860  -27.1530   19.8130 C.3   157  ILE157      0.1561
     10  C         -1.2530  -28.0050   18.7780 C.2   157  ILE157      0.2260
     11  O         -0.7730  -29.0940   19.0850 O.2   157  ILE157     -0.2867
     12  CB        -1.0110  -26.3310   20.7110 C.3   157  ILE157      0.0252
     13  CG1       -0.0420  -25.5090   19.8490 C.3   157  ILE157      0.0019
     14  CG2       -0.2190  -27.2400   21.6550 C.3   157  ILE157      0.0019
     15  CD1        0.6090  -24.3550   20.5890 C.3   157  ILE157      0.0001
     16  N          1.8850  -28.2400   16.2900 N.3   159  LYS159     -0.1245
     17  CA         3.2510  -27.7260   16.2250 C.3   159  LYS159      0.1561
     18  C          4.0090  -28.3730   15.0730 C.2   159  LYS159      0.2260
     19  O          3.7580  -29.5130   14.7310 O.2   159  LYS159     -0.2867
     20  CB         3.9840  -28.0210   17.5360 C.3   159  LYS159      0.0271
     21  CG         3.4160  -27.3110   18.7620 C.3   159  LYS159      0.0035
     22  CD         4.2440  -27.6650   19.9950 C.3   159  LYS159      0.0206
     23  CE         4.0000  -26.7150   21.1400 C.3   159  LYS159      0.1093
     24  NZ         4.9780  -26.9690   22.2560 N.3   159  LYS159     -0.1314
     25  N          8.8150  -21.1860   19.9290 N.3   166  GLY166     -0.1225
     26  CA         7.5130  -20.5460   19.7620 C.3   166  GLY166      0.1811
     27  C          7.0500  -20.3760   18.3200 C.2   166  GLY166      0.2280
     28  O          5.9970  -19.8010   18.0920 O.2   166  GLY166     -0.2866
     29  N          3.2910  -22.7590   15.1570 N.3   169  MET169     -0.1230
     30  CA         2.2760  -23.4490   15.9580 C.3   169  MET169      0.1702
     31  C          0.9610  -22.7040   16.0110 C.2   169  MET169      0.2592
     32  O          0.9140  -21.4960   15.8040 O.2   169  MET169     -0.2718
     33  CB         2.8020  -23.7310   17.3760 C.3   169  MET169      0.0401
     34  CG         3.4350  -22.5390   18.0830 C.3   169  MET169      0.0596
     35  SD         4.2120  -22.9840   19.6520 S.3   169  MET169     -0.1393
     36  CE         5.7200  -23.7870   19.1350 C.3   169  MET169      0.0692
     37  N         -0.1230  -23.4380   16.2560 N.am  170  ARG170     -0.1966
     38  CA        -1.4210  -22.8090   16.4520 C.3   170  ARG170      0.1729
     39  C         -2.3770  -23.6440   17.2810 C.2   170  ARG170      0.2616
     40  O         -2.4140  -24.8740   17.2020 O.2   170  ARG170     -0.2715
     41  CB        -2.0720  -22.3740   15.1320 C.3   170  ARG170      0.0348
     42  CG        -2.1540  -23.4020   14.0790 C.3   170  ARG170      0.0492
     43  CD        -3.1980  -23.0370   13.0120 C.3   170  ARG170      0.2205
     44  NE        -3.0740  -21.6790   12.4620 N.pl3 170  ARG170     -0.0865
     45  CZ        -2.1130  -21.2660   11.6320 C.cat 170  ARG170      0.5346
     46  NH1       -1.1310  -22.0790   11.2610 N.pl3 170  ARG170      0.1354
     47  NH2       -2.1200  -20.0170   11.1860 N.pl3 170  ARG170      0.1354
     48  N         -3.1490  -22.9270   18.0790 N.am  171  VAL171     -0.1977
     49  CA        -4.0180  -23.4920   19.0860 C.3   171  VAL171      0.1596
     50  C         -5.3720  -23.8240   18.4670 C.2   171  VAL171      0.2287
     51  O         -5.9010  -23.0500   17.6690 O.2   171  VAL171     -0.2864
     52  CB        -4.1940  -22.4810   20.2390 C.3   171  VAL171      0.0276
     53  CG1       -5.1330  -23.0250   21.3300 C.3   171  VAL171      0.0022
     54  CG2       -2.8260  -22.1120   20.8170 C.3   171  VAL171      0.0022
     55  N         -0.0600  -31.4670   20.7300 N.3   201  GLU201     -0.1231
     56  CA         0.0320  -31.5050   22.1780 C.3   201  GLU201      0.1699
     57  C         -1.2350  -30.9300   22.7980 C.2   201  GLU201      0.2592
     58  O         -1.9590  -30.1440   22.1740 O.2   201  GLU201     -0.2718
     59  CB         1.2370  -30.6750   22.6690 C.3   201  GLU201      0.0402
     60  CG         2.6080  -31.2450   22.3200 C.3   201  GLU201      0.1161
     61  CD         3.7760  -30.3760   22.8070 C.2   201  GLU201      0.3649
     62  OE1        4.9300  -30.8720   22.8420 O.co2 201  GLU201     -0.2457
     63  OE2        3.5640  -29.1900   23.1370 O.co2 201  GLU201     -0.2457
     64  N         -1.4910  -31.3280   24.0370 N.am  202  LYS202     -0.1966
     65  CA        -2.4300  -30.6240   24.9010 C.3   202  LYS202      0.1728
     66  C         -1.9400  -29.1810   25.0250 C.2   202  LYS202      0.2616
     67  O         -0.7510  -28.9510   25.2870 O.2   202  LYS202     -0.2715
     68  CB        -2.4570  -31.2690   26.2990 C.3   202  LYS202      0.0311
     69  CG        -3.3880  -30.5680   27.3000 C.3   202  LYS202      0.0038
     70  CD        -4.8290  -30.9130   27.0260 C.3   202  LYS202      0.0206
     71  CE        -5.8080  -29.9420   27.6950 C.3   202  LYS202      0.1093
     72  NZ        -7.1710  -30.4770   27.6140 N.3   202  LYS202     -0.1314
     73  N         -2.8390  -28.2210   24.8230 N.am  203  TYR203     -0.1960
     74  CA        -2.4950  -26.8200   24.9780 C.3   203  TYR203      0.1771
     75  C         -2.5630  -26.4670   26.4490 C.2   203  TYR203      0.2619
     76  O         -3.6000  -26.6790   27.0880 O.2   203  TYR203     -0.2715
     77  CB        -3.4480  -25.9070   24.2050 C.3   203  TYR203      0.0574
     78  CG        -3.1190  -24.4360   24.3610 C.ar  203  TYR203     -0.0198
     79  CD1       -1.8850  -23.9370   23.9290 C.ar  203  TYR203     -0.0009
     80  CD2       -4.0230  -23.5450   24.9540 C.ar  203  TYR203     -0.0009
     81  CE1       -1.5610  -22.6010   24.0730 C.ar  203  TYR203      0.0417
     82  CE2       -3.7080  -22.1980   25.0930 C.ar  203  TYR203      0.0417
     83  CZ        -2.4720  -21.7370   24.6530 C.ar  203  TYR203      0.1957
     84  OH        -2.1420  -20.4100   24.7890 O.3   203  TYR203     -0.2866
     85  N         -1.4750  -25.9090   26.9730 N.am  204  LEU204     -0.1977
     86  CA        -1.4430  -25.4310   28.3510 C.3   204  LEU204      0.1596
     87  C         -1.7180  -23.9290   28.3360 C.2   204  LEU204      0.2287
     88  O         -1.0280  -23.1860   27.6480 O.2   204  LEU204     -0.2864
     89  CB        -0.0870  -25.7390   28.9940 C.3   204  LEU204      0.0297
     90  CG         0.4570  -27.1730   28.9000 C.3   204  LEU204      0.0022
     91  CD1        1.7680  -27.2790   29.6630 C.3   204  LEU204      0.0001
     92  CD2       -0.5180  -28.2100   29.4040 C.3   204  LEU204      0.0001
     93  N          1.0780  -21.4570   31.3490 N.3   207  PRO207     -0.2116
     94  CA         2.2710  -22.0570   31.9330 C.3   207  PRO207      0.1372
     95  C          3.3650  -21.0260   32.1740 C.2   207  PRO207      0.2244
     96  O          3.3160  -19.9230   31.6380 O.2   207  PRO207     -0.2868
     97  CB         2.7180  -23.0300   30.8470 C.3   207  PRO207      0.0268
     98  CG         2.3760  -22.3370   29.5960 C.3   207  PRO207      0.0207
     99  CD         1.0860  -21.5730   29.8810 C.3   207  PRO207      0.0892
    100  N          7.5760  -20.7360   31.6210 N.3   209  HIS209     -0.1241
    101  CA         8.6400  -21.3090   30.8120 C.3   209  HIS209      0.1621
    102  C          9.8720  -21.5050   31.7020 C.2   209  HIS209      0.2264
    103  O         10.5090  -20.5390   32.1220 O.2   209  HIS209     -0.2867
    104  CB         8.9630  -20.3790   29.6410 C.3   209  HIS209      0.0745
    105  CG         9.8040  -21.0070   28.5690 C.ar  209  HIS209      0.0817
    106  ND1       10.5590  -20.2630   27.6890 N.ar  209  HIS209     -0.2268
    107  CD2        9.9830  -22.3010   28.2140 C.ar  209  HIS209      0.1154
    108  CE1       11.1830  -21.0700   26.8500 C.ar  209  HIS209      0.1986
    109  NE2       10.8510  -22.3140   27.1470 N.ar  209  HIS209     -0.2212
    110  N          8.4350  -12.5530   28.6150 N.3   233  GLN233     -0.1245
    111  CA         8.7560  -12.6080   27.2050 C.3   233  GLN233      0.1566
    112  C          7.6480  -11.9640   26.3650 C.2   233  GLN233      0.2260
    113  O          6.5150  -11.7730   26.8320 O.2   233  GLN233     -0.2867
    114  CB         8.9750  -14.0680   26.7970 C.3   233  GLN233      0.0367
    115  CG         7.7240  -14.9580   26.8670 C.3   233  GLN233      0.0905
    116  CD         6.9260  -14.9500   25.5730 C.2   233  GLN233      0.2608
    117  OE1        7.5040  -14.9160   24.4950 O.2   233  GLN233     -0.2717
    118  NE2        5.5920  -14.9780   25.6780 N.am  233  GLN233     -0.0878
    119  N          7.3280  -14.7700   21.6500 N.3   236  HIS236     -0.1241
    120  CA         8.4610  -15.7140   21.6580 C.3   236  HIS236      0.1621
    121  C          9.8620  -15.0640   21.5880 C.2   236  HIS236      0.2264
    122  O         10.7880  -15.5700   20.9540 O.2   236  HIS236     -0.2867
    123  CB         8.2800  -16.8730   20.6450 C.3   236  HIS236      0.0745
    124  CG         7.7490  -16.4660   19.3030 C.ar  236  HIS236      0.0817
    125  ND1        6.3980  -16.3980   19.0270 N.ar  236  HIS236     -0.2268
    126  CD2        8.3850  -16.1400   18.1510 C.ar  236  HIS236      0.1154
    127  CE1        6.2270  -16.0290   17.7670 C.ar  236  HIS236      0.1986
    128  NE2        7.4170  -15.8690   17.2130 N.ar  236  HIS236     -0.2212
    129  N          7.4350  -26.5500   29.9140 N.3   278  LEU278     -0.1245
    130  CA         6.3190  -25.7680   30.4140 C.3   278  LEU278      0.1561
    131  C          5.9990  -26.2820   31.8230 C.2   278  LEU278      0.2260
    132  O          5.9850  -27.4950   32.0720 O.2   278  LEU278     -0.2867
    133  CB         5.1100  -25.8840   29.4970 C.3   278  LEU278      0.0270
    134  CG         5.3310  -25.4280   28.0510 C.3   278  LEU278      0.0019
    135  CD1        4.0670  -25.6410   27.2280 C.3   278  LEU278      0.0001
    136  CD2        5.7580  -23.9810   28.0030 C.3   278  LEU278      0.0001
    137  N          9.1970  -29.7160   26.3530 N.3   287  ILE287     -0.1231
    138  CA         8.7580  -29.3340   24.9960 C.3   287  ILE287      0.1692
    139  C          9.8300  -29.4170   23.9280 C.2   287  ILE287      0.2591
    140  O          9.5390  -29.8120   22.7900 O.2   287  ILE287     -0.2718
    141  CB         8.0710  -27.9510   24.9390 C.3   287  ILE287      0.0266
    142  CG1        8.8470  -26.8970   25.7210 C.3   287  ILE287      0.0019
    143  CG2        6.6310  -28.0870   25.4430 C.3   287  ILE287      0.0020
    144  CD1        8.5130  -25.4680   25.3130 C.3   287  ILE287      0.0001
    145  N         11.0550  -29.0230   24.2720 N.am  288  GLU288     -0.1979
    146  CA        12.1560  -29.0600   23.3290 C.3   288  GLU288      0.1602
    147  C         13.4950  -28.9090   24.0130 C.2   288  GLU288      0.2287
    148  O         13.5750  -28.3970   25.1270 O.2   288  GLU288     -0.2864
    149  CB        11.9970  -27.9690   22.2670 C.3   288  GLU288      0.0415
    150  CG        11.7750  -26.5800   22.7880 C.3   288  GLU288      0.1163
    151  CD        11.2090  -25.6570   21.7020 C.2   288  GLU288      0.3649
    152  OE1       12.0080  -24.9940   21.0190 O.co2 288  GLU288     -0.2457
    153  OE2        9.9760  -25.6280   21.5170 O.co2 288  GLU288     -0.2457
    154  N          3.8110  -16.9080   31.0420 N.3   437  ILE437     -0.1231
    155  CA         4.3660  -16.4790   29.7530 C.3   437  ILE437      0.1692
    156  C          3.5530  -15.3890   29.0500 C.2   437  ILE437      0.2592
    157  O          4.0490  -14.7700   28.1110 O.2   437  ILE437     -0.2718
    158  CB         4.5880  -17.6760   28.7600 C.3   437  ILE437      0.0266
    159  CG1        3.2810  -18.4160   28.4880 C.3   437  ILE437      0.0019
    160  CG2        5.6610  -18.6360   29.2990 C.3   437  ILE437      0.0020
    161  CD1        3.3290  -19.3160   27.2780 C.3   437  ILE437      0.0001
    162  N          2.3200  -15.1620   29.5050 N.am  438  HIS438     -0.1976
    163  CA         1.4140  -14.1920   28.8890 C.3   438  HIS438      0.1656
    164  C          1.3880  -12.8410   29.5800 C.2   438  HIS438      0.2291
    165  O          0.7500  -11.9080   29.0840 O.2   438  HIS438     -0.2864
    166  CB        -0.0220  -14.7280   28.8870 C.3   438  HIS438      0.0771
    167  CG        -0.1640  -16.0550   28.2220 C.ar  438  HIS438      0.0820
    168  ND1        0.0840  -16.2360   26.8800 N.ar  438  HIS438     -0.2267
    169  CD2       -0.5100  -17.2670   28.7130 C.ar  438  HIS438      0.1154
    170  CE1       -0.1210  -17.5050   26.5700 C.ar  438  HIS438      0.1986
    171  NE2       -0.4750  -18.1520   27.6640 N.ar  438  HIS438     -0.2212
@<TRIPOS>BOND
     1    47    45    1
     2    46    45    1
     3    45    44    2
     4    44    43    1
     5    43    42    1
     6    42    41    1
     7    19    18    2
     8    18    17    1
     9    41    38    1
    10    29    30    1
    11    32    31    2
    12    30    31    1
    13    30    33    1
    14    31    37   am
    15    17    16    1
    16    17    20    1
    17    37    38    1
    18    38    39    1
    19    40    39    2
    20   128   127   ar
    21   128   126   ar
    22    39    48   am
    23    33    34    1
    24    20    21    1
    25    51    50    2
    26   127   125   ar
    27    48    49    1
    28    34    35    1
    29    28    27    2
    30   126   124   ar
    31    27    26    1
    32    50    49    1
    33    21    22    1
    34    10    11    2
    35    10     9    1
    36   125   124   ar
    37    49    52    1
    38    36    35    1
    39   124   123    1
    40    26    25    1
    41     9     8    1
    42     9    12    1
    43    13    15    1
    44    13    12    1
    45    22    23    1
    46    52    54    1
    47    52    53    1
    48   123   120    1
    49    12    14    1
    50    55    56    1
    51   122   121    2
    52   152   151   ar
    53    23    24    1
    54   153   151   ar
    55   121   120    1
    56   119   120    1
    57   151   150    1
    58    58    57    2
    59    56    59    1
    60    56    57    1
    61   149   150    1
    62   149   146    1
    63    60    59    1
    64    60    61    1
    65   140   139    2
    66    57    64   am
    67    61    62   ar
    68    61    63   ar
    69   146   147    1
    70   146   145    1
    71   139   145   am
    72   139   138    1
    73    79    81   ar
    74    79    78   ar
    75   147   148    2
    76    64    65    1
    77    81    83   ar
    78    77    78    1
    79    77    74    1
    80    78    80   ar
    81   117   116    2
    82    83    84    1
    83    83    82   ar
    84    73    74    1
    85    73    66   am
    86    65    66    1
    87    65    68    1
    88   141   138    1
    89   141   143    1
    90   141   142    1
    91    80    82   ar
    92    74    75    1
    93   138   137    1
    94    66    67    2
    95   144   142    1
    96   116   118   am
    97   116   115    1
    98     4     3    2
    99    68    69    1
   100   112   113    2
   101   112   111    1
   102     5     6    1
   103     5     7    1
   104     5     2    1
   105    75    85   am
   106    75    76    2
   107   170   168   ar
   108   170   171   ar
   109     3     2    1
   110   114   115    1
   111   114   111    1
   112   108   109   ar
   113   108   106   ar
   114   168   167   ar
   115    85    86    1
   116    70    69    1
   117    70    71    1
   118   109   107   ar
   119   111   110    1
   120   135   134    1
   121   161   159    1
   122     2     1    1
   123    72    71    1
   124    88    87    2
   125   171   169   ar
   126   106   105   ar
   127   136   134    1
   128   134   133    1
   129   157   156    2
   130   107   105   ar
   131   167   169   ar
   132   167   166    1
   133    87    86    1
   134    86    89    1
   135   159   158    1
   136   105   104    1
   137   158   160    1
   138   158   155    1
   139   166   163    1
   140   163   162    1
   141   163   164    1
   142    90    89    1
   143    90    92    1
   144    90    91    1
   145   156   162   am
   146   156   155    1
   147   165   164    2
   148   133   130    1
   149    98    99    1
   150    98    97    1
   151   104   101    1
   152   155   154    1
   153    99    93    1
   154   129   130    1
   155   130   131    1
   156   101   100    1
   157   101   102    1
   158    97    94    1
   159    93    94    1
   160    96    95    2
   161   102   103    2
   162   131   132    2
   163    94    95    1
