@<TRIPOS>MOLECULE
tmp/2w6oA00.pdb
 138 130 0 0 0
SMALL
GASTEIGER

@<TRIPOS>ATOM
      1  N         14.3020   13.5420   -9.8750 N.3   131  VAL131     -0.1245
      2  CA        15.7200   13.8400   -9.6910 C.3   131  VAL131      0.1561
      3  C         16.4000   13.7590  -11.0600 C.2   131  VAL131      0.2260
      4  O         16.1750   12.8050  -11.7990 O.2   131  VAL131     -0.2867
      5  CB        16.4160   12.8170   -8.7260 C.3   131  VAL131      0.0252
      6  CG1       17.8280   13.2550   -8.3670 C.3   131  VAL131      0.0019
      7  CG2       15.6070   12.6090   -7.4590 C.3   131  VAL131      0.0019
      8  N         24.3070    9.4980   -6.9650 N.3   157  ILE157     -0.1245
      9  CA        24.0170    8.3140   -6.1660 C.3   157  ILE157      0.1561
     10  C         23.5880    7.1430   -7.0340 C.2   157  ILE157      0.2260
     11  O         22.5690    7.2120   -7.7170 O.2   157  ILE157     -0.2867
     12  CB        22.9790    8.6070   -5.0300 C.3   157  ILE157      0.0252
     13  CG1       22.6090    7.3170   -4.2770 C.3   157  ILE157      0.0019
     14  CG2       21.7400    9.3480   -5.5730 C.3   157  ILE157      0.0019
     15  CD1       22.0880    7.5450   -2.8770 C.3   157  ILE157      0.0001
     16  N         21.8270    3.8440   -7.6020 N.3   159  LYS159     -0.1245
     17  CA        20.6970    3.1790   -6.9800 C.3   159  LYS159      0.1561
     18  C         20.3680    1.8940   -7.7300 C.2   159  LYS159      0.2260
     19  O         20.7180    1.7440   -8.8950 O.2   159  LYS159     -0.2867
     20  CB        19.4780    4.0940   -7.0080 C.3   159  LYS159      0.0271
     21  CG        19.5540    5.3070   -6.1110 C.3   159  LYS159      0.0035
     22  CD        18.2710    6.0980   -6.2460 C.3   159  LYS159      0.0206
     23  CE        18.1330    7.0960   -5.1320 C.3   159  LYS159      0.1093
     24  NZ        16.8860    7.9090   -5.2490 N.3   159  LYS159     -0.1314
     25  N         14.5700    2.5700   -0.9790 N.3   165  GLY165     -0.1210
     26  CA        14.6270    2.9320    0.4430 C.3   165  GLY165      0.1956
     27  C         15.9270    2.5480    1.1290 C.2   165  GLY165      0.2612
     28  O         15.9160    1.8900    2.1760 O.2   165  GLY165     -0.2717
     29  N         17.0470    2.9480    0.5260 N.am  166  GLY166     -0.1956
     30  CA        18.3770    2.6630    1.0590 C.3   166  GLY166      0.1869
     31  C         18.9100    1.2840    0.7070 C.2   166  GLY166      0.2309
     32  O         20.0890    0.9920    0.9580 O.2   166  GLY166     -0.2863
     33  N         22.1590    0.8240   -2.6240 N.3   169  MET169     -0.1245
     34  CA        22.4490    2.1420   -3.2070 C.3   169  MET169      0.1570
     35  C         23.5150    2.9020   -2.4170 C.2   169  MET169      0.2261
     36  O         23.4590    2.9430   -1.1880 O.2   169  MET169     -0.2867
     37  CB        21.1680    2.9900   -3.3770 C.3   169  MET169      0.0387
     38  CG        20.3140    3.2160   -2.1370 C.3   169  MET169      0.0595
     39  SD        18.9340    4.3330   -2.4840 S.3   169  MET169     -0.1393
     40  CE        17.6420    3.1920   -2.9640 C.3   169  MET169      0.0692
     41  N         21.4950    9.1260  -10.1490 N.3   201  GLU201     -0.1231
     42  CA        20.7060   10.3030   -9.8190 C.3   201  GLU201      0.1699
     43  C         21.5750   11.3240   -9.1080 C.2   201  GLU201      0.2592
     44  O         22.5780   10.9610   -8.4860 O.2   201  GLU201     -0.2718
     45  CB        19.5190    9.9280   -8.9280 C.3   201  GLU201      0.0402
     46  CG        18.3010    9.4030   -9.6820 C.3   201  GLU201      0.1161
     47  CD        17.0270    9.3800   -8.8370 C.2   201  GLU201      0.3649
     48  OE1       15.9220    9.4510   -9.4190 O.co2 201  GLU201     -0.2457
     49  OE2       17.1210    9.2910   -7.5980 O.co2 201  GLU201     -0.2457
     50  N         21.1980   12.5960   -9.2030 N.am  202  LYS202     -0.1966
     51  CA        21.8000   13.6240   -8.3620 C.3   202  LYS202      0.1728
     52  C         21.5600   13.2570   -6.8970 C.2   202  LYS202      0.2616
     53  O         20.4420   12.8930   -6.5210 O.2   202  LYS202     -0.2715
     54  CB        21.2070   14.9990   -8.6700 C.3   202  LYS202      0.0311
     55  CG        21.7830   16.1490   -7.8450 C.3   202  LYS202      0.0038
     56  CD        23.1220   16.6110   -8.3820 C.3   202  LYS202      0.0206
     57  CE        23.7410   17.6740   -7.4950 C.3   202  LYS202      0.1093
     58  NZ        24.9980   18.1960   -8.0790 N.3   202  LYS202     -0.1314
     59  N         22.6120   13.3230   -6.0840 N.am  203  TYR203     -0.1960
     60  CA        22.4670   13.1270   -4.6520 C.3   203  TYR203      0.1771
     61  C         22.1200   14.4640   -4.0120 C.2   203  TYR203      0.2619
     62  O         22.8920   15.4280   -4.0850 O.2   203  TYR203     -0.2715
     63  CB        23.7400   12.5310   -4.0420 C.3   203  TYR203      0.0574
     64  CG        23.6890   12.3300   -2.5380 C.ar  203  TYR203     -0.0198
     65  CD1       22.8670   11.3530   -1.9710 C.ar  203  TYR203     -0.0009
     66  CD2       24.4750   13.1060   -1.6830 C.ar  203  TYR203     -0.0009
     67  CE1       22.8190   11.1620   -0.5890 C.ar  203  TYR203      0.0417
     68  CE2       24.4380   12.9220   -0.3070 C.ar  203  TYR203      0.0417
     69  CZ        23.6050   11.9490    0.2350 C.ar  203  TYR203      0.1957
     70  OH        23.5610   11.7600    1.6030 O.3   203  TYR203     -0.2866
     71  N         20.9390   14.5280   -3.4110 N.am  204  LEU204     -0.1977
     72  CA        20.5330   15.7240   -2.6950 C.3   204  LEU204      0.1596
     73  C         21.1280   15.6820   -1.2830 C.2   204  LEU204      0.2287
     74  O         20.9970   14.6830   -0.5760 O.2   204  LEU204     -0.2864
     75  CB        18.9980   15.8580   -2.6830 C.3   204  LEU204      0.0297
     76  CG        18.2900   15.8040   -4.0560 C.3   204  LEU204      0.0022
     77  CD1       16.7880   15.8980   -3.8970 C.3   204  LEU204      0.0001
     78  CD2       18.8010   16.8750   -5.0400 C.3   204  LEU204      0.0001
     79  N         17.6890   16.9280    1.8820 N.3   207  PRO207     -0.2116
     80  CA        16.2620   17.0190    1.5770 C.3   207  PRO207      0.1372
     81  C         15.3270   16.6870    2.7480 C.2   207  PRO207      0.2244
     82  O         15.7040   15.9770    3.6910 O.2   207  PRO207     -0.2868
     83  CB        16.0910   15.9920    0.4640 C.3   207  PRO207      0.0268
     84  CG        17.1080   14.9410    0.7830 C.3   207  PRO207      0.0207
     85  CD        18.2550   15.6270    1.4690 C.3   207  PRO207      0.0892
     86  N         13.7000   10.0640   10.7110 N.3   233  GLN233     -0.1245
     87  CA        13.8780    8.6520   10.3660 C.3   233  GLN233      0.1566
     88  C         15.2780    8.1070   10.6900 C.2   233  GLN233      0.2260
     89  O         16.2390    8.8660   10.8170 O.2   233  GLN233     -0.2867
     90  CB        13.4950    8.3960    8.8930 C.3   233  GLN233      0.0367
     91  CG        14.5640    8.6790    7.8510 C.3   233  GLN233      0.0905
     92  CD        14.0380    8.5480    6.4110 C.2   233  GLN233      0.2608
     93  OE1       14.5570    7.7560    5.6260 O.2   233  GLN233     -0.2717
     94  NE2       13.0080    9.3260    6.0690 N.am  233  GLN233     -0.0878
     95  N         17.0360    4.9520    7.2690 N.3   236  HIS236     -0.1241
     96  CA        15.9820    5.0030    6.2460 C.3   236  HIS236      0.1621
     97  C         14.6250    4.4240    6.6510 C.2   236  HIS236      0.2264
     98  O         13.8000    4.0960    5.7900 O.2   236  HIS236     -0.2867
     99  CB        16.4900    4.4720    4.8990 C.3   236  HIS236      0.0745
    100  CG        17.7120    5.1880    4.4200 C.ar  236  HIS236      0.0817
    101  ND1       17.6880    6.5080    4.0230 N.ar  236  HIS236     -0.2268
    102  CD2       19.0050    4.7930    4.3410 C.ar  236  HIS236      0.1154
    103  CE1       18.9090    6.8860    3.6880 C.ar  236  HIS236      0.1986
    104  NE2       19.7260    5.8640    3.8710 N.ar  236  HIS236     -0.2212
    105  N         11.5800   13.6080   -2.4960 N.3   278  LEU278     -0.1245
    106  CA        12.5120   14.4010   -1.7240 C.3   278  LEU278      0.1561
    107  C         12.1730   15.8660   -1.9970 C.2   278  LEU278      0.2260
    108  O         11.8060   16.2290   -3.1260 O.2   278  LEU278     -0.2867
    109  CB        13.9680   14.0880   -2.0810 C.3   278  LEU278      0.0270
    110  CG        14.5220   12.6760   -1.8380 C.3   278  LEU278      0.0019
    111  CD1       15.9840   12.6180   -2.2400 C.3   278  LEU278      0.0001
    112  CD2       14.3570   12.2180   -0.4010 C.3   278  LEU278      0.0001
    113  N         10.9060    9.9300   -6.1330 N.3   287  ILE287     -0.1245
    114  CA        11.9300    8.8980   -5.8950 C.3   287  ILE287      0.1561
    115  C         11.3800    7.4570   -5.8970 C.2   287  ILE287      0.2260
    116  O         12.1250    6.5090   -6.1690 O.2   287  ILE287     -0.2867
    117  CB        12.7530    9.1470   -4.5970 C.3   287  ILE287      0.0252
    118  CG1       11.8450    9.4080   -3.3860 C.3   287  ILE287      0.0019
    119  CG2       13.7610   10.2820   -4.8010 C.3   287  ILE287      0.0019
    120  CD1       12.5550    9.3290   -2.0570 C.3   287  ILE287      0.0001
    121  N         16.0470   14.7300    6.3600 N.3   437  ILE437     -0.1231
    122  CA        16.1310   13.2700    6.5470 C.3   437  ILE437      0.1692
    123  C         17.3820   12.7820    7.2990 C.2   437  ILE437      0.2592
    124  O         17.4820   11.6060    7.6360 O.2   437  ILE437     -0.2718
    125  CB        15.9070   12.4460    5.2290 C.3   437  ILE437      0.0266
    126  CG1       16.9910   12.7310    4.1880 C.3   437  ILE437      0.0019
    127  CG2       14.5290   12.6990    4.6560 C.3   437  ILE437      0.0020
    128  CD1       17.2560   11.5530    3.2540 C.3   437  ILE437      0.0001
    129  N         18.3170   13.6840    7.5800 N.am  438  HIS438     -0.1976
    130  CA        19.4870   13.3330    8.3760 C.3   438  HIS438      0.1656
    131  C         19.3440   13.7470    9.8330 C.2   438  HIS438      0.2291
    132  O         20.1510   13.3430   10.6750 O.2   438  HIS438     -0.2864
    133  CB        20.7600   13.9500    7.7880 C.3   438  HIS438      0.0771
    134  CG        20.9940   13.5930    6.3560 C.ar  438  HIS438      0.0820
    135  ND1       21.4200   12.3450    5.9620 N.ar  438  HIS438     -0.2267
    136  CD2       20.8410   14.3170    5.2220 C.ar  438  HIS438      0.1154
    137  CE1       21.5250   12.3160    4.6450 C.ar  438  HIS438      0.1986
    138  NE2       21.1760   13.5000    4.1710 N.ar  438  HIS438     -0.2212
@<TRIPOS>BOND
     1     4     3    2
     2     3     2    1
     3    41    42    1
     4     1     2    1
     5    42    43    1
     6    42    45    1
     7     2     5    1
     8    46    45    1
     9    46    47    1
    10    48    47   ar
    11    50    43   am
    12    50    51    1
    13    43    44    2
    14    19    18    2
    15    47    49   ar
    16     5     6    1
    17     5     7    1
    18    54    51    1
    19    54    55    1
    20    56    55    1
    21    56    57    1
    22    51    52    1
    23    58    57    1
    24    18    17    1
    25    11    10    2
    26    16    17    1
    27    10     9    1
    28    20    17    1
    29    20    21    1
    30     8     9    1
    31    52    53    2
    32    52    59   am
    33    22    21    1
    34    22    23    1
    35   116   115    2
    36     9    12    1
    37   113   114    1
    38    59    60    1
    39   115   114    1
    40   114   117    1
    41    14    12    1
    42    24    23    1
    43    78    76    1
    44    12    13    1
    45   119   117    1
    46    60    63    1
    47    60    61    1
    48   117   118    1
    49    13    15    1
    50    62    61    2
    51    76    77    1
    52    76    75    1
    53    63    64    1
    54    61    71   am
    55    71    72    1
    56   118   120    1
    57    37    34    1
    58    37    38    1
    59    34    33    1
    60    34    35    1
    61   108   107    2
    62    40    39    1
    63    72    75    1
    64    72    73    1
    65    64    65   ar
    66    64    66   ar
    67   105   106    1
    68    39    38    1
    69    35    36    2
    70   111   110    1
    71   109   110    1
    72   109   106    1
    73   107   106    1
    74    65    67   ar
    75   110   112    1
    76    66    68   ar
    77    73    74    2
    78    25    26    1
    79    67    69   ar
    80    68    69   ar
    81    69    70    1
    82    26    27    1
    83    83    84    1
    84    83    80    1
    85    29    30    1
    86    29    27   am
    87    31    32    2
    88    31    30    1
    89    84    85    1
    90    27    28    2
    91    85    79    1
    92    80    79    1
    93    80    81    1
    94    81    82    2
    95   128   126    1
    96   103   104   ar
    97   103   101   ar
    98   104   102   ar
    99   101   100   ar
   100   138   137   ar
   101   138   136   ar
   102   126   125    1
   103   102   100   ar
   104   100    99    1
   105   137   135   ar
   106   127   125    1
   107    99    96    1
   108   136   134   ar
   109   125   122    1
   110    93    92    2
   111    98    97    2
   112   135   134   ar
   113    94    92   am
   114    96    97    1
   115    96    95    1
   116   134   133    1
   117   121   122    1
   118    92    91    1
   119   122   123    1
   120   123   129   am
   121   123   124    2
   122   129   130    1
   123   133   130    1
   124    91    90    1
   125   130   131    1
   126    90    87    1
   127   131   132    2
   128    87    88    1
   129    87    86    1
   130    88    89    2
