@<TRIPOS>MOLECULE
tmp/2w6pA00.pdb
 153 145 0 0 0
SMALL
GASTEIGER

@<TRIPOS>ATOM
      1  N          4.6810  -33.4250   27.5840 N.3   131  VAL131     -0.1245
      2  CA         3.2940  -32.9730   27.4680 C.3   131  VAL131      0.1561
      3  C          2.4780  -34.1180   26.8710 C.2   131  VAL131      0.2260
      4  O          2.9280  -34.7630   25.9190 O.2   131  VAL131     -0.2867
      5  CB         3.1520  -31.7230   26.5600 C.3   131  VAL131      0.0252
      6  CG1        1.7220  -31.2030   26.5790 C.3   131  VAL131      0.0019
      7  CG2        4.1040  -30.6140   26.9920 C.3   131  VAL131      0.0019
      8  N         -2.6440  -28.1590   20.6380 N.3   157  ILE157     -0.1245
      9  CA        -1.7780  -27.2970   19.8550 C.3   157  ILE157      0.1561
     10  C         -1.0370  -28.1400   18.8080 C.2   157  ILE157      0.2260
     11  O         -0.5240  -29.2180   19.1080 O.2   157  ILE157     -0.2867
     12  CB        -0.8120  -26.4850   20.7700 C.3   157  ILE157      0.0252
     13  CG1        0.0820  -25.5670   19.9290 C.3   157  ILE157      0.0019
     14  CG2        0.0170  -27.4130   21.6610 C.3   157  ILE157      0.0019
     15  CD1        0.8570  -24.5250   20.7440 C.3   157  ILE157      0.0001
     16  N          2.0600  -28.5290   16.2350 N.3   159  LYS159     -0.1245
     17  CA         3.4400  -28.0580   16.1960 C.3   159  LYS159      0.1561
     18  C          4.2320  -28.7300   15.0750 C.2   159  LYS159      0.2260
     19  O          4.0910  -29.9220   14.8420 O.2   159  LYS159     -0.2867
     20  CB         4.1410  -28.3580   17.5260 C.3   159  LYS159      0.0271
     21  CG         3.5560  -27.6700   18.7440 C.3   159  LYS159      0.0035
     22  CD         4.3980  -27.9780   19.9760 C.3   159  LYS159      0.0206
     23  CE         3.9300  -27.2140   21.2040 C.3   159  LYS159      0.1093
     24  NZ         4.8290  -27.4890   22.3620 N.3   159  LYS159     -0.1314
     25  N          8.7570  -21.2280   19.5630 N.3   166  GLY166     -0.1225
     26  CA         7.5250  -20.5470   19.1700 C.3   166  GLY166      0.1811
     27  C          7.1970  -20.6100   17.6940 C.2   166  GLY166      0.2280
     28  O          6.1030  -20.2230   17.2860 O.2   166  GLY166     -0.2866
     29  N          3.6180  -23.2050   15.1240 N.3   169  MET169     -0.1245
     30  CA         2.5490  -23.8170   15.9340 C.3   169  MET169      0.1570
     31  C          1.2460  -23.0250   15.9740 C.2   169  MET169      0.2261
     32  O          1.2360  -21.8150   15.7440 O.2   169  MET169     -0.2867
     33  CB         3.0350  -24.1400   17.3580 C.3   169  MET169      0.0387
     34  CG         3.8330  -23.0670   18.0720 C.3   169  MET169      0.0595
     35  SD         4.5950  -23.6970   19.6000 S.3   169  MET169     -0.1393
     36  CE         5.9260  -24.6900   18.9510 C.3   169  MET169      0.0692
     37  N         -0.0270  -31.7040   20.8160 N.3   201  GLU201     -0.1231
     38  CA         0.1350  -31.7300   22.2730 C.3   201  GLU201      0.1699
     39  C         -1.0690  -31.0730   22.9180 C.2   201  GLU201      0.2592
     40  O         -1.7900  -30.3200   22.2670 O.2   201  GLU201     -0.2718
     41  CB         1.3990  -30.9720   22.7090 C.3   201  GLU201      0.0402
     42  CG         2.6850  -31.7650   22.6020 C.3   201  GLU201      0.1161
     43  CD         3.9200  -30.9720   23.0200 C.2   201  GLU201      0.3649
     44  OE1        3.7970  -29.7750   23.3490 O.co2 201  GLU201     -0.2457
     45  OE2        5.0210  -31.5550   23.0190 O.co2 201  GLU201     -0.2457
     46  N         -1.2780  -31.3670   24.1970 N.am  202  LYS202     -0.1966
     47  CA        -2.2350  -30.6390   25.0180 C.3   202  LYS202      0.1728
     48  C         -1.7590  -29.2000   25.1120 C.2   202  LYS202      0.2616
     49  O         -0.5810  -28.9600   25.3550 O.2   202  LYS202     -0.2715
     50  CB        -2.3020  -31.2500   26.4280 C.3   202  LYS202      0.0311
     51  CG        -3.3320  -30.6070   27.3720 C.3   202  LYS202      0.0038
     52  CD        -4.7350  -31.1440   27.1010 C.3   202  LYS202      0.0206
     53  CE        -5.8200  -30.4560   27.9270 C.3   202  LYS202      0.1093
     54  NZ        -6.3720  -29.2560   27.2360 N.3   202  LYS202     -0.1314
     55  N         -2.6640  -28.2430   24.9240 N.am  203  TYR203     -0.1960
     56  CA        -2.3100  -26.8420   25.0960 C.3   203  TYR203      0.1771
     57  C         -2.5070  -26.4330   26.5520 C.2   203  TYR203      0.2619
     58  O         -3.6420  -26.3390   27.0260 O.2   203  TYR203     -0.2715
     59  CB        -3.1350  -25.9430   24.1780 C.3   203  TYR203      0.0574
     60  CG        -2.7740  -24.4800   24.3020 C.ar  203  TYR203     -0.0198
     61  CD1       -1.4950  -24.0280   23.9670 C.ar  203  TYR203     -0.0009
     62  CD2       -3.6990  -23.5510   24.7640 C.ar  203  TYR203     -0.0009
     63  CE1       -1.1560  -22.6840   24.0860 C.ar  203  TYR203      0.0417
     64  CE2       -3.3710  -22.2050   24.8800 C.ar  203  TYR203      0.0417
     65  CZ        -2.1020  -21.7810   24.5420 C.ar  203  TYR203      0.1957
     66  OH        -1.7780  -20.4500   24.6630 O.3   203  TYR203     -0.2866
     67  N         -1.4030  -26.1960   27.2620 N.am  204  LEU204     -0.1977
     68  CA        -1.4700  -25.7210   28.6490 C.3   204  LEU204      0.1596
     69  C         -1.8910  -24.2480   28.6470 C.2   204  LEU204      0.2287
     70  O         -1.4090  -23.4520   27.8400 O.2   204  LEU204     -0.2864
     71  CB        -0.1280  -25.9150   29.3770 C.3   204  LEU204      0.0297
     72  CG         0.2910  -27.3300   29.8080 C.3   204  LEU204      0.0022
     73  CD1        0.4480  -28.2700   28.6370 C.3   204  LEU204      0.0001
     74  CD2        1.5900  -27.2750   30.6040 C.3   204  LEU204      0.0001
     75  N          1.0050  -21.8180   31.7730 N.3   207  PRO207     -0.2116
     76  CA         2.2390  -22.3670   32.2900 C.3   207  PRO207      0.1372
     77  C          3.3090  -21.2930   32.4430 C.2   207  PRO207      0.2244
     78  O          3.1590  -20.1880   31.9260 O.2   207  PRO207     -0.2868
     79  CB         2.6480  -23.3670   31.2020 C.3   207  PRO207      0.0268
     80  CG         2.1520  -22.7670   29.9540 C.3   207  PRO207      0.0207
     81  CD         0.8800  -22.0300   30.3190 C.3   207  PRO207      0.0892
     82  N          7.5980  -20.8750   31.8000 N.3   209  HIS209     -0.1241
     83  CA         8.6930  -21.4040   31.0000 C.3   209  HIS209      0.1621
     84  C          9.9220  -21.5630   31.8880 C.2   209  HIS209      0.2264
     85  O         10.5700  -20.5790   32.2660 O.2   209  HIS209     -0.2867
     86  CB         8.9840  -20.4660   29.8290 C.3   209  HIS209      0.0745
     87  CG         9.8510  -21.0660   28.7660 C.ar  209  HIS209      0.0817
     88  ND1        9.7710  -22.3930   28.3980 N.ar  209  HIS209     -0.2268
     89  CD2       10.7840  -20.5090   27.9600 C.ar  209  HIS209      0.1154
     90  CE1       10.6350  -22.6310   27.4290 C.ar  209  HIS209      0.1986
     91  NE2       11.2630  -21.5050   27.1460 N.ar  209  HIS209     -0.2212
     92  N          8.3850  -12.6480   28.7390 N.3   233  GLN233     -0.1245
     93  CA         8.7050  -12.6930   27.3290 C.3   233  GLN233      0.1566
     94  C          7.6000  -12.0500   26.4960 C.2   233  GLN233      0.2260
     95  O          6.4600  -11.9220   26.9480 O.2   233  GLN233     -0.2867
     96  CB         8.9330  -14.1480   26.9050 C.3   233  GLN233      0.0367
     97  CG         7.7070  -15.0480   27.0460 C.3   233  GLN233      0.0905
     98  CD         6.8050  -15.0150   25.8210 C.2   233  GLN233      0.2608
     99  OE1        7.2820  -14.8930   24.6970 O.2   233  GLN233     -0.2717
    100  NE2        5.4990  -15.1460   26.0360 N.am  233  GLN233     -0.0878
    101  N          7.5300  -14.8940   22.1030 N.3   236  HIS236     -0.1241
    102  CA         8.6240  -15.8760   22.1980 C.3   236  HIS236      0.1621
    103  C         10.0470  -15.3110   22.3120 C.2   236  HIS236      0.2264
    104  O         11.0060  -16.0790   22.3670 O.2   236  HIS236     -0.2867
    105  CB         8.5270  -16.9090   21.0800 C.3   236  HIS236      0.0745
    106  CG         7.3140  -17.7730   21.1900 C.ar  236  HIS236      0.0817
    107  ND1        7.3170  -18.9760   21.8680 N.ar  236  HIS236     -0.2268
    108  CD2        6.0530  -17.5990   20.7310 C.ar  236  HIS236      0.1154
    109  CE1        6.1120  -19.5130   21.8000 C.ar  236  HIS236      0.1986
    110  NE2        5.3280  -18.6980   21.1180 N.ar  236  HIS236     -0.2212
    111  N          7.5680  -26.6440   30.2070 N.3   278  LEU278     -0.1245
    112  CA         6.4500  -25.9000   30.7590 C.3   278  LEU278      0.1561
    113  C          6.2350  -26.3910   32.1890 C.2   278  LEU278      0.2260
    114  O          6.2790  -27.6020   32.4620 O.2   278  LEU278     -0.2867
    115  CB         5.1880  -26.1080   29.9270 C.3   278  LEU278      0.0270
    116  CG         5.3290  -25.7940   28.4360 C.3   278  LEU278      0.0019
    117  CD1        4.0870  -26.2390   27.6680 C.3   278  LEU278      0.0001
    118  CD2        5.6170  -24.3150   28.2210 C.3   278  LEU278      0.0001
    119  N          9.1620  -29.8010   26.5410 N.3   287  ILE287     -0.1231
    120  CA         8.7470  -29.4450   25.1770 C.3   287  ILE287      0.1692
    121  C          9.8740  -29.5200   24.1290 C.2   287  ILE287      0.2591
    122  O          9.6410  -29.9830   23.0070 O.2   287  ILE287     -0.2718
    123  CB         8.0250  -28.0690   25.1270 C.3   287  ILE287      0.0266
    124  CG1        8.8090  -26.9960   25.8910 C.3   287  ILE287      0.0019
    125  CG2        6.6230  -28.2040   25.7060 C.3   287  ILE287      0.0020
    126  CD1        8.3480  -25.5760   25.5870 C.3   287  ILE287      0.0001
    127  N         11.0780  -29.0580   24.4820 N.am  288  GLU288     -0.1979
    128  CA        12.1760  -28.8960   23.5230 C.3   288  GLU288      0.1602
    129  C         13.5310  -28.9320   24.2220 C.2   288  GLU288      0.2287
    130  O         13.6400  -28.5140   25.3750 O.2   288  GLU288     -0.2864
    131  CB        12.1080  -27.5180   22.8300 C.3   288  GLU288      0.0415
    132  CG        10.8040  -27.1520   22.1420 C.3   288  GLU288      0.1163
    133  CD        10.8100  -25.7210   21.6380 C.2   288  GLU288      0.3649
    134  OE1        9.7650  -25.0490   21.7860 O.co2 288  GLU288     -0.2457
    135  OE2       11.8620  -25.2550   21.1250 O.co2 288  GLU288     -0.2457
    136  N          3.7710  -17.1420   31.3640 N.3   437  ILE437     -0.1231
    137  CA         4.3200  -16.7360   30.0650 C.3   437  ILE437      0.1692
    138  C          3.5150  -15.6190   29.3710 C.2   437  ILE437      0.2592
    139  O          4.0590  -14.8830   28.5540 O.2   437  ILE437     -0.2718
    140  CB         4.5090  -17.9470   29.0950 C.3   437  ILE437      0.0266
    141  CG1        3.1720  -18.6390   28.7990 C.3   437  ILE437      0.0019
    142  CG2        5.5320  -18.9420   29.6480 C.3   437  ILE437      0.0020
    143  CD1        2.6140  -18.2680   27.4720 C.3   437  ILE437      0.0001
    144  N          2.2390  -15.4850   29.7270 N.am  438  HIS438     -0.1976
    145  CA         1.3640  -14.4780   29.1340 C.3   438  HIS438      0.1656
    146  C          1.4600  -13.1010   29.7780 C.2   438  HIS438      0.2291
    147  O          0.9430  -12.1360   29.2190 O.2   438  HIS438     -0.2864
    148  CB        -0.1010  -14.9260   29.2220 C.3   438  HIS438      0.0771
    149  CG        -0.3570  -16.2760   28.6380 C.ar  438  HIS438      0.0820
    150  ND1       -0.1700  -16.5530   27.3020 N.ar  438  HIS438     -0.2267
    151  CD2       -0.7810  -17.4250   29.2090 C.ar  438  HIS438      0.1154
    152  CE1       -0.4750  -17.8180   27.0750 C.ar  438  HIS438      0.1986
    153  NE2       -0.8370  -18.3720   28.2180 N.ar  438  HIS438     -0.2212
@<TRIPOS>BOND
     1    19    18    2
     2    18    17    1
     3    29    30    1
     4    32    31    2
     5    30    31    1
     6    30    33    1
     7    17    16    1
     8    17    20    1
     9    28    27    2
    10    33    34    1
    11    20    21    1
    12    27    26    1
    13    34    35    1
    14    21    22    1
    15    10    11    2
    16    10     9    1
    17    36    35    1
    18    26    25    1
    19     9     8    1
    20     9    12    1
    21    13    15    1
    22    13    12    1
    23    22    23    1
    24   108   110   ar
    25   108   106   ar
    26    12    14    1
    27    37    38    1
    28   105   106    1
    29   105   102    1
    30   110   109   ar
    31   135   133   ar
    32   106   107   ar
    33    23    24    1
    34   133   134   ar
    35   133   132    1
    36   109   107   ar
    37   101   102    1
    38   132   131    1
    39   102   103    1
    40    40    39    2
    41    38    41    1
    42    38    39    1
    43   103   104    2
    44    42    41    1
    45    42    43    1
    46   131   128    1
    47    39    46   am
    48   122   121    2
    49    45    43   ar
    50    43    44   ar
    51   128   129    1
    52   128   127    1
    53    61    63   ar
    54    61    60   ar
    55    63    65   ar
    56   121   127   am
    57   121   120    1
    58    59    60    1
    59    59    56    1
    60    46    47    1
    61   129   130    2
    62    60    62   ar
    63    65    66    1
    64    65    64   ar
    65    99    98    2
    66    62    64   ar
    67    55    56    1
    68    55    48   am
    69    47    48    1
    70    47    50    1
    71    56    57    1
    72    48    49    2
    73   123   120    1
    74   123   125    1
    75   123   124    1
    76   120   119    1
    77   126   124    1
    78    98   100   am
    79    98    97    1
    80     4     3    2
    81    50    51    1
    82    94    95    2
    83    94    93    1
    84    57    58    2
    85    57    67   am
    86     5     6    1
    87     5     7    1
    88     5     2    1
    89     3     2    1
    90    96    97    1
    91    96    93    1
    92   152   150   ar
    93   152   153   ar
    94    52    51    1
    95    52    53    1
    96    91    90   ar
    97    91    89   ar
    98    54    53    1
    99    67    68    1
   100   150   149   ar
   101    93    92    1
   102    90    88   ar
   103     2     1    1
   104   143   141    1
   105   117   116    1
   106    70    69    2
   107    89    87   ar
   108   153   151   ar
   109   118   116    1
   110    88    87   ar
   111   116   115    1
   112   139   138    2
   113    73    72    1
   114   149   151   ar
   115   149   148    1
   116    69    68    1
   117    68    71    1
   118    87    86    1
   119   141   140    1
   120   140   142    1
   121   140   137    1
   122   145   148    1
   123   145   144    1
   124   145   146    1
   125   147   146    2
   126   138   144   am
   127   138   137    1
   128    71    72    1
   129    72    74    1
   130    86    83    1
   131   115   112    1
   132    80    81    1
   133    80    79    1
   134   137   136    1
   135   111   112    1
   136    81    75    1
   137   112   113    1
   138    83    82    1
   139    83    84    1
   140    79    76    1
   141    75    76    1
   142    84    85    2
   143    78    77    2
   144   113   114    2
   145    76    77    1
