@<TRIPOS>MOLECULE
tmp/2w6qB00.pdb
 143 136 0 0 0
SMALL
GASTEIGER

@<TRIPOS>ATOM
      1  N         53.6660   -7.0810   68.1840 N.3   131  VAL131     -0.1245
      2  CA        55.1060   -7.1150   67.9210 C.3   131  VAL131      0.1561
      3  C         55.8600   -6.9290   69.2400 C.2   131  VAL131      0.2260
      4  O         55.5490   -6.0030   70.0010 O.2   131  VAL131     -0.2867
      5  CB        55.5620   -6.0180   66.9130 C.3   131  VAL131      0.0252
      6  CG1       57.0000   -6.2720   66.4550 C.3   131  VAL131      0.0019
      7  CG2       54.6350   -5.9540   65.7030 C.3   131  VAL131      0.0019
      8  N         62.3310   -0.7330   65.3450 N.3   157  ILE157     -0.1245
      9  CA        61.7030    0.4220   64.7030 C.3   157  ILE157      0.1561
     10  C         61.0450    1.3530   65.7280 C.2   157  ILE157      0.2260
     11  O         60.3450    0.9010   66.6370 O.2   157  ILE157     -0.2867
     12  CB        60.7140    0.0030   63.5590 C.3   157  ILE157      0.0252
     13  CG1       60.1980    1.2350   62.8020 C.3   157  ILE157      0.0019
     14  CG2       59.5700   -0.8690   64.0930 C.3   157  ILE157      0.0019
     15  CD1       59.7460    0.9550   61.3830 C.3   157  ILE157      0.0001
     16  N         58.3230    4.2360   66.3160 N.3   159  LYS159     -0.1245
     17  CA        57.0770    4.7020   65.7000 C.3   159  LYS159      0.1561
     18  C         56.3810    5.7920   66.5110 C.2   159  LYS159      0.2260
     19  O         56.4140    5.7790   67.7400 O.2   159  LYS159     -0.2867
     20  CB        56.1110    3.5310   65.4830 C.3   159  LYS159      0.0271
     21  CG        56.4940    2.5990   64.3480 C.3   159  LYS159      0.0035
     22  CD        55.4920    1.4680   64.1950 C.3   159  LYS159      0.0206
     23  CE        55.8430    0.5920   63.0070 C.3   159  LYS159      0.1093
     24  NZ        54.9400   -0.5850   62.8860 N.3   159  LYS159     -0.1314
     25  N         54.1700    6.6970   56.6810 N.3   166  GLY166     -0.1225
     26  CA        55.6340    6.6210   56.7050 C.3   166  GLY166      0.1811
     27  C         56.3060    7.7150   57.5200 C.2   166  GLY166      0.2280
     28  O         57.4150    7.5230   58.0290 O.2   166  GLY166     -0.2866
     29  N         58.6340    7.5410   61.3790 N.3   169  MET169     -0.1230
     30  CA        59.0450    6.1530   61.5940 C.3   169  MET169      0.1702
     31  C         60.5010    5.9700   61.1900 C.2   169  MET169      0.2592
     32  O         60.9060    6.3890   60.1010 O.2   169  MET169     -0.2718
     33  CB        58.1590    5.1770   60.8110 C.3   169  MET169      0.0401
     34  CG        56.7930    4.9300   61.4300 C.3   169  MET169      0.0596
     35  SD        55.8820    3.5910   60.6390 S.3   169  MET169     -0.1393
     36  CE        54.2840    3.7640   61.4320 C.3   169  MET169      0.0692
     37  N         61.2830    5.3500   62.0720 N.am  170  ARG170     -0.1966
     38  CA        62.7040    5.1110   61.8110 C.3   170  ARG170      0.1729
     39  C         63.2070    3.7570   62.2960 C.2   170  ARG170      0.2616
     40  O         62.9890    3.3700   63.4450 O.2   170  ARG170     -0.2715
     41  CB        63.5670    6.2420   62.3800 C.3   170  ARG170      0.0348
     42  CG        63.8120    7.3500   61.3780 C.3   170  ARG170      0.0492
     43  CD        64.5760    8.5190   61.9650 C.3   170  ARG170      0.2205
     44  NE        64.7740    9.5560   60.9550 N.pl3 170  ARG170     -0.0865
     45  CZ        63.8980   10.5210   60.6800 C.cat 170  ARG170      0.5346
     46  NH1       62.7490   10.6030   61.3450 N.pl3 170  ARG170      0.1354
     47  NH2       64.1740   11.4120   59.7350 N.pl3 170  ARG170      0.1354
     48  N         63.8840    3.0510   61.3940 N.am  171  VAL171     -0.1977
     49  CA        64.5070    1.7680   61.6950 C.3   171  VAL171      0.1596
     50  C         65.9000    2.0000   62.2830 C.2   171  VAL171      0.2287
     51  O         66.7070    2.7510   61.7260 O.2   171  VAL171     -0.2864
     52  CB        64.6090    0.8720   60.4300 C.3   171  VAL171      0.0276
     53  CG1       65.0230   -0.5490   60.8000 C.3   171  VAL171      0.0022
     54  CG2       63.2910    0.8580   59.6710 C.3   171  VAL171      0.0022
     55  N         59.2000   -1.1750   68.5910 N.3   201  GLU201     -0.1231
     56  CA        58.9220   -2.5990   68.3950 C.3   201  GLU201      0.1699
     57  C         60.0070   -3.2140   67.5080 C.2   201  GLU201      0.2592
     58  O         60.7690   -2.4890   66.8620 O.2   201  GLU201     -0.2718
     59  CB        57.5080   -2.8350   67.8280 C.3   201  GLU201      0.0402
     60  CG        57.0660   -1.8560   66.7440 C.3   201  GLU201      0.1161
     61  CD        55.6760   -2.1520   66.1800 C.2   201  GLU201      0.3649
     62  OE1       54.7070   -2.3140   66.9590 O.co2 201  GLU201     -0.2457
     63  OE2       55.5560   -2.1990   64.9380 O.co2 201  GLU201     -0.2457
     64  N         60.0940   -4.5420   67.5020 N.am  202  LYS202     -0.1966
     65  CA        61.0320   -5.2520   66.6330 C.3   202  LYS202      0.1728
     66  C         60.7360   -4.9870   65.1610 C.2   202  LYS202      0.2616
     67  O         59.5780   -5.0380   64.7340 O.2   202  LYS202     -0.2715
     68  CB        60.9810   -6.7600   66.8900 C.3   202  LYS202      0.0311
     69  CG        62.1120   -7.5270   66.2190 C.3   202  LYS202      0.0038
     70  CD        62.1160   -8.9890   66.5980 C.3   202  LYS202      0.0206
     71  CE        63.4210   -9.6380   66.1630 C.3   202  LYS202      0.1093
     72  NZ        63.3800  -11.1200   66.3280 N.3   202  LYS202     -0.1314
     73  N         61.7840   -4.7000   64.3930 N.am  203  TYR203     -0.1960
     74  CA        61.6550   -4.5910   62.9470 C.3   203  TYR203      0.1771
     75  C         61.7070   -5.9900   62.3420 C.2   203  TYR203      0.2619
     76  O         62.7710   -6.6150   62.2830 O.2   203  TYR203     -0.2715
     77  CB        62.7500   -3.6950   62.3600 C.3   203  TYR203      0.0574
     78  CG        62.4950   -3.2730   60.9280 C.ar  203  TYR203     -0.0198
     79  CD1       61.4330   -2.4240   60.6120 C.ar  203  TYR203     -0.0009
     80  CD2       63.3160   -3.7160   59.8890 C.ar  203  TYR203     -0.0009
     81  CE1       61.1870   -2.0300   59.2970 C.ar  203  TYR203      0.0417
     82  CE2       63.0800   -3.3240   58.5630 C.ar  203  TYR203      0.0417
     83  CZ        62.0130   -2.4790   58.2790 C.ar  203  TYR203      0.1957
     84  OH        61.7630   -2.0810   56.9830 O.3   203  TYR203     -0.2866
     85  N         60.5460   -6.4900   61.9230 N.am  204  LEU204     -0.1977
     86  CA        60.4620   -7.8060   61.2890 C.3   204  LEU204      0.1596
     87  C         61.0000   -7.7120   59.8660 C.2   204  LEU204      0.2287
     88  O         60.5490   -6.8790   59.0720 O.2   204  LEU204     -0.2864
     89  CB        59.0300   -8.3510   61.3120 C.3   204  LEU204      0.0297
     90  CG        58.3130   -8.4330   62.6670 C.3   204  LEU204      0.0022
     91  CD1       56.8770   -8.8970   62.4760 C.3   204  LEU204      0.0001
     92  CD2       59.0420   -9.3270   63.6690 C.3   204  LEU204      0.0001
     93  N         58.2570   -9.7890   56.6650 N.3   207  PRO207     -0.2116
     94  CA        56.8690  -10.0930   56.9990 C.3   207  PRO207      0.1372
     95  C         55.9140   -9.8740   55.8250 C.2   207  PRO207      0.2244
     96  O         56.2130   -9.1030   54.9120 O.2   207  PRO207     -0.2868
     97  CB        56.5600   -9.0770   58.0970 C.3   207  PRO207      0.0268
     98  CG        57.3960   -7.8740   57.7340 C.3   207  PRO207      0.0207
     99  CD        58.5470   -8.3540   56.8600 C.3   207  PRO207      0.0892
    100  N         54.5440    2.4370   51.5220 N.3   236  HIS236     -0.1241
    101  CA        53.5860    1.9800   52.5500 C.3   236  HIS236      0.1621
    102  C         52.1060    2.1550   52.1650 C.2   236  HIS236      0.2264
    103  O         51.2170    2.0470   53.0160 O.2   236  HIS236     -0.2867
    104  CB        53.8940    2.6100   53.9200 C.3   236  HIS236      0.0745
    105  CG        55.3570    2.6780   54.2280 C.ar  236  HIS236      0.0817
    106  ND1       56.0920    1.5720   54.5920 N.ar  236  HIS236     -0.2268
    107  CD2       56.2280    3.7150   54.1920 C.ar  236  HIS236      0.1154
    108  CE1       57.3520    1.9240   54.7710 C.ar  236  HIS236      0.1986
    109  NE2       57.4610    3.2210   54.5410 N.ar  236  HIS236     -0.2212
    110  N         51.3990   -7.8940   60.8850 N.3   278  LEU278     -0.1245
    111  CA        52.5410   -8.4010   60.1460 C.3   278  LEU278      0.1561
    112  C         52.5960   -9.9000   60.3990 C.2   278  LEU278      0.2260
    113  O         52.4320  -10.3520   61.5380 O.2   278  LEU278     -0.2867
    114  CB        53.8400   -7.7240   60.5850 C.3   278  LEU278      0.0270
    115  CG        53.9550   -6.2140   60.3580 C.3   278  LEU278      0.0019
    116  CD1       55.2730   -5.7210   60.9240 C.3   278  LEU278      0.0001
    117  CD2       53.8290   -5.8280   58.8830 C.3   278  LEU278      0.0001
    118  N         49.8580   -4.5690   64.3900 N.3   287  ILE287     -0.1245
    119  CA        50.4490   -3.2410   64.2270 C.3   287  ILE287      0.1561
    120  C         49.4280   -2.1160   64.3920 C.2   287  ILE287      0.2260
    121  O         49.7280   -1.1040   65.0250 O.2   287  ILE287     -0.2867
    122  CB        51.2470   -3.0880   62.9110 C.3   287  ILE287      0.0252
    123  CG1       50.4830   -3.6910   61.7260 C.3   287  ILE287      0.0019
    124  CG2       52.6470   -3.7220   63.0730 C.3   287  ILE287      0.0019
    125  CD1       50.9290   -3.1920   60.3600 C.3   287  ILE287      0.0001
    126  N         56.2370   -7.5770   52.3290 N.3   437  ILE437     -0.1231
    127  CA        55.8710   -6.1650   52.2300 C.3   437  ILE437      0.1692
    128  C         56.9340   -5.3150   51.5370 C.2   437  ILE437      0.2592
    129  O         56.6740   -4.1630   51.1780 O.2   437  ILE437     -0.2718
    130  CB        55.5210   -5.5470   53.6160 C.3   437  ILE437      0.0266
    131  CG1       56.7570   -5.4850   54.5290 C.3   437  ILE437      0.0019
    132  CG2       54.3490   -6.2950   54.2640 C.3   437  ILE437      0.0020
    133  CD1       56.5810   -4.5910   55.7570 C.3   437  ILE437      0.0001
    134  N         58.1290   -5.8820   51.3640 N.am  438  HIS438     -0.1976
    135  CA        59.2340   -5.1760   50.7210 C.3   438  HIS438      0.1656
    136  C         59.3400   -5.5010   49.2300 C.2   438  HIS438      0.2291
    137  O         60.1220   -4.8760   48.5280 O.2   438  HIS438     -0.2864
    138  CB        60.5770   -5.4840   51.4170 C.3   438  HIS438      0.0771
    139  CG        60.5620   -5.2640   52.9000 C.ar  438  HIS438      0.0820
    140  ND1       60.3790   -4.0220   53.4700 N.ar  438  HIS438     -0.2267
    141  CD2       60.7090   -6.1330   53.9290 C.ar  438  HIS438      0.1154
    142  CE1       60.4110   -4.1360   54.7860 C.ar  438  HIS438      0.1986
    143  NE2       60.6100   -5.4070   55.0910 N.ar  438  HIS438     -0.2212
@<TRIPOS>BOND
     1   137   136    2
     2   136   135    1
     3   135   134    1
     4   135   138    1
     5   129   128    2
     6   134   128   am
     7   138   139    1
     8   100   101    1
     9   128   127    1
    10   102   101    1
    11   102   103    2
    12   127   126    1
    13   127   130    1
    14   101   104    1
    15   139   140   ar
    16   139   141   ar
    17   140   142   ar
    18   130   132    1
    19   130   131    1
    20   104   105    1
    21   141   143   ar
    22   107   105   ar
    23   107   109   ar
    24   105   106   ar
    25   131   133    1
    26   109   108   ar
    27   106   108   ar
    28   142   143   ar
    29    96    95    2
    30    95    94    1
    31    93    99    1
    32    93    94    1
    33    25    26    1
    34    26    27    1
    35    99    98    1
    36    84    83    1
    37    94    97    1
    38    27    28    2
    39    98    97    1
    40    83    82   ar
    41    83    81   ar
    42    82    80   ar
    43   117   115    1
    44    88    87    2
    45    81    79   ar
    46    54    52    1
    47    47    45    1
    48    87    86    1
    49    80    78   ar
    50    32    31    2
    51   111   112    1
    52   111   114    1
    53   111   110    1
    54   115   114    1
    55   115   116    1
    56   125   123    1
    57   112   113    2
    58    52    53    1
    59    52    49    1
    60    79    78   ar
    61    35    34    1
    62    35    36    1
    63    45    44    2
    64    45    46    1
    65    33    34    1
    66    33    30    1
    67    78    77    1
    68    44    43    1
    69    31    30    1
    70    31    37   am
    71    86    89    1
    72    86    85    1
    73    89    90    1
    74    42    43    1
    75    42    41    1
    76    29    30    1
    77    15    13    1
    78    48    49    1
    79    48    39   am
    80    49    50    1
    81   123   122    1
    82    51    50    2
    83    38    37    1
    84    38    39    1
    85    38    41    1
    86    85    75   am
    87    76    75    2
    88    39    40    2
    89    75    74    1
    90    77    74    1
    91    91    90    1
    92    90    92    1
    93    13    12    1
    94    24    23    1
    95   122   124    1
    96   122   119    1
    97    74    73    1
    98    23    22    1
    99    12    14    1
   100    12     9    1
   101    22    21    1
   102   119   118    1
   103   119   120    1
   104    21    20    1
   105   120   121    2
   106    73    66   am
   107     9     8    1
   108     9    10    1
   109    67    66    2
   110    63    61   ar
   111    66    65    1
   112    20    17    1
   113    17    16    1
   114    17    18    1
   115     7     5    1
   116    10    11    2
   117    71    72    1
   118    71    70    1
   119    61    60    1
   120    61    62   ar
   121    69    70    1
   122    69    68    1
   123     6     5    1
   124    18    19    2
   125    65    68    1
   126    65    64    1
   127    60    59    1
   128    58    57    2
   129     5     2    1
   130    64    57   am
   131    57    56    1
   132    59    56    1
   133     2     1    1
   134     2     3    1
   135    56    55    1
   136     3     4    2
