@<TRIPOS>MOLECULE
tmp/2w6uB01.pdb
 106 101 0 0 0
SMALL
GASTEIGER

@<TRIPOS>ATOM
      1  N        -35.2560  -15.3160   17.1540 N.3   222  LEU222     -0.1231
      2  CA       -35.0170  -16.3320   18.1790 C.3   222  LEU222      0.1693
      3  C        -35.6560  -15.9520   19.4970 C.2   222  LEU222      0.2593
      4  O        -35.2060  -15.0300   20.1420 O.2   222  LEU222     -0.2718
      5  CB       -33.5300  -16.4940   18.4440 C.3   222  LEU222      0.0284
      6  CG       -32.5740  -16.7680   17.2870 C.3   222  LEU222      0.0019
      7  CD1      -31.1600  -16.9390   17.8550 C.3   222  LEU222      0.0001
      8  CD2      -33.0150  -17.9740   16.4450 C.3   222  LEU222      0.0001
      9  N        -36.6450  -16.7040   19.9470 N.am  223  GLY223     -0.1942
     10  CA       -37.1950  -16.4940   21.2900 C.3   223  GLY223      0.2014
     11  C        -37.0040  -17.6210   22.3090 C.2   223  GLY223      0.2638
     12  O        -36.6800  -18.7630   21.9520 O.2   223  GLY223     -0.2714
     13  N        -37.1900  -17.2830   23.5900 N.am  224  ALA224     -0.1977
     14  CA       -37.0530  -18.2170   24.7340 C.3   224  ALA224      0.1597
     15  C        -38.0830  -17.7880   25.7690 C.2   224  ALA224      0.2287
     16  O        -38.0970  -16.6280   26.1660 O.2   224  ALA224     -0.2864
     17  CB       -35.6790  -18.1420   25.3420 C.3   224  ALA224      0.0319
     18  N        -36.0960   11.4390   22.1440 N.3   663  ALA663     -0.1231
     19  CA       -34.9990   10.9370   22.9850 C.3   663  ALA663      0.1694
     20  C        -35.0750    9.4200   23.2640 C.2   663  ALA663      0.2591
     21  O        -34.0470    8.7340   23.3650 O.2   663  ALA663     -0.2718
     22  CB       -34.8960   11.7590   24.3080 C.3   663  ALA663      0.0304
     23  N        -36.2890    8.8990   23.3710 N.am  664  LEU664     -0.1980
     24  CA       -36.4870    7.5110   23.6480 C.3   664  LEU664      0.1596
     25  C        -37.1510    6.8670   22.4640 C.2   664  LEU664      0.2287
     26  O        -38.0580    6.1160   22.6680 O.2   664  LEU664     -0.2864
     27  CB       -37.4370    7.3980   24.8390 C.3   664  LEU664      0.0297
     28  CG       -36.9530    7.6660   26.2660 C.3   664  LEU664      0.0022
     29  CD1      -38.1090    8.1090   27.1610 C.3   664  LEU664      0.0001
     30  CD2      -36.2930    6.4020   26.8360 C.3   664  LEU664      0.0001
     31  N        -36.2870    4.6790   20.1440 N.3   666  LYS666     -0.1231
     32  CA       -36.0340    3.2650   19.9400 C.3   666  LYS666      0.1693
     33  C        -36.8890    2.3280   20.8930 C.2   666  LYS666      0.2591
     34  O        -36.8450    1.1020   20.7960 O.2   666  LYS666     -0.2718
     35  CB       -34.5060    3.0410   19.9560 C.3   666  LYS666      0.0285
     36  CG       -33.7530    3.8030   18.7790 C.3   666  LYS666      0.0035
     37  CD       -32.2160    4.1090   19.1150 C.3   666  LYS666      0.0206
     38  CE       -31.3450    4.6670   17.9390 C.3   666  LYS666      0.1093
     39  NZ       -31.8680    5.9070   17.2570 N.3   666  LYS666     -0.1314
     40  N        -37.7010    2.9190   21.7700 N.am  667  LEU667     -0.1980
     41  CA       -38.5080    2.1680   22.7160 C.3   667  LEU667      0.1596
     42  C        -39.9360    2.0200   22.2340 C.2   667  LEU667      0.2287
     43  O        -40.5380    2.9930   21.7850 O.2   667  LEU667     -0.2864
     44  CB       -38.5080    2.8280   24.0920 C.3   667  LEU667      0.0297
     45  CG       -39.3420    2.1160   25.1640 C.3   667  LEU667      0.0022
     46  CD1      -39.0550    0.6120   25.1870 C.3   667  LEU667      0.0001
     47  CD2      -39.1960    2.7300   26.5580 C.3   667  LEU667      0.0001
     48  N        -42.7510   -5.0020   25.7440 N.3   706  ALA706     -0.1245
     49  CA       -41.7180   -3.9640   25.4550 C.3   706  ALA706      0.1562
     50  C        -40.7300   -4.4130   24.3770 C.2   706  ALA706      0.2260
     51  O        -40.2850   -5.5590   24.3850 O.2   706  ALA706     -0.2867
     52  CB       -40.9670   -3.5460   26.7020 C.3   706  ALA706      0.0290
     53  N        -37.0750   -2.9480   22.2310 N.3   708  TYR708     -0.1241
     54  CA       -36.1220   -1.8540   22.0230 C.3   708  TYR708      0.1605
     55  C        -35.2570   -2.1440   20.7910 C.2   708  TYR708      0.2264
     56  O        -34.8090   -3.2580   20.5650 O.2   708  TYR708     -0.2867
     57  CB       -35.3100   -1.5730   23.2780 C.3   708  TYR708      0.0534
     58  CG       -34.5300   -0.2910   23.2280 C.ar  708  TYR708     -0.0201
     59  CD1      -33.2450   -0.2680   22.6450 C.ar  708  TYR708     -0.0009
     60  CD2      -35.0460    0.9080   23.7590 C.ar  708  TYR708     -0.0009
     61  CE1      -32.5030    0.9090   22.5660 C.ar  708  TYR708      0.0417
     62  CE2      -34.3100    2.0980   23.6860 C.ar  708  TYR708      0.0417
     63  CZ       -33.0360    2.0810   23.0770 C.ar  708  TYR708      0.1957
     64  OH       -32.2440    3.2020   22.9790 O.3   708  TYR708     -0.2866
     65  N        -34.7250   -6.1490   20.4250 N.3   716  ALA716     -0.1231
     66  CA       -35.0240   -7.0650   21.5550 C.3   716  ALA716      0.1694
     67  C        -36.4010   -6.7800   22.2390 C.2   716  ALA716      0.2593
     68  O        -36.7070   -5.6150   22.6390 O.2   716  ALA716     -0.2718
     69  CB       -33.8990   -7.0580   22.5860 C.3   716  ALA716      0.0304
     70  N        -37.2170   -7.8350   22.3650 N.am  717  SER717     -0.1938
     71  CA       -38.5080   -7.7420   23.0230 C.3   717  SER717      0.2055
     72  C        -38.6210   -8.5270   24.3300 C.2   717  SER717      0.2642
     73  O        -37.8820   -9.4940   24.5770 O.2   717  SER717     -0.2714
     74  CB       -39.5970   -8.2580   22.0960 C.3   717  SER717      0.2130
     75  OG       -39.7360   -7.4500   20.9440 O.3   717  SER717     -0.2179
     76  N        -39.5870   -8.1160   25.1470 N.am  718  VAL718     -0.1977
     77  CA       -40.0890   -8.9250   26.2410 C.3   718  VAL718      0.1596
     78  C        -41.6440   -8.9530   26.2730 C.2   718  VAL718      0.2287
     79  O        -42.3300   -7.8920   26.1580 O.2   718  VAL718     -0.2864
     80  CB       -39.5150   -8.4860   27.5960 C.3   718  VAL718      0.0276
     81  CG1      -39.9520   -7.0640   27.9850 C.3   718  VAL718      0.0022
     82  CG2      -39.9520   -9.4450   28.6360 C.3   718  VAL718      0.0022
     83  N        -39.0270  -14.0620   25.9510 N.3   748  PHE748     -0.1227
     84  CA       -37.8910  -13.2230   25.5190 C.3   748  PHE748      0.1736
     85  C        -37.5330  -13.4570   24.0530 C.2   748  PHE748      0.2596
     86  O        -37.4740  -14.6100   23.5800 O.2   748  PHE748     -0.2718
     87  CB       -36.6770  -13.3810   26.4340 C.3   748  PHE748      0.0547
     88  CG       -36.9090  -12.8090   27.7900 C.ar  748  PHE748     -0.0202
     89  CD1      -37.5360  -13.5480   28.7650 C.ar  748  PHE748     -0.0042
     90  CD2      -36.5810  -11.4940   28.0660 C.ar  748  PHE748     -0.0042
     91  CE1      -37.7800  -13.0230   29.9940 C.ar  748  PHE748     -0.0003
     92  CE2      -36.8550  -10.9590   29.3040 C.ar  748  PHE748     -0.0003
     93  CZ       -37.4560  -11.7430   30.2700 C.ar  748  PHE748     -0.0000
     94  N        -37.2950  -12.3510   23.3400 N.am  749  SER749     -0.1938
     95  CA       -37.2860  -12.3600   21.8810 C.3   749  SER749      0.2055
     96  C        -36.2250  -11.4740   21.2370 C.2   749  SER749      0.2643
     97  O        -36.1200  -10.3180   21.6130 O.2   749  SER749     -0.2714
     98  CB       -38.6200  -11.8720   21.4230 C.3   749  SER749      0.2130
     99  OG       -38.8850  -12.6060   20.2920 O.3   749  SER749     -0.2179
    100  N        -35.4650  -12.0190   20.2770 N.am  750  THR750     -0.1950
    101  CA       -34.5060  -11.2820   19.4280 C.3   750  THR750      0.1897
    102  C        -34.7650  -11.4200   17.9310 C.2   750  THR750      0.2313
    103  O        -34.7180  -12.5210   17.3570 O.2   750  THR750     -0.2863
    104  CB       -33.0980  -11.7630   19.6260 C.3   750  THR750      0.1794
    105  OG1      -32.8000  -11.7680   21.0200 O.3   750  THR750     -0.2208
    106  CG2      -32.1570  -10.8290   18.9380 C.3   750  THR750      0.0378
@<TRIPOS>BOND
     1     8     6    1
     2     1     2    1
     3    39    38    1
     4     6     7    1
     5     6     5    1
     6   103   102    2
     7   102   101    1
     8    38    37    1
     9     2     5    1
    10     2     3    1
    11    36    37    1
    12    36    35    1
    13   106   104    1
    14   101   104    1
    15   101   100    1
    16     3     9   am
    17     3     4    2
    18   104   105    1
    19    32    35    1
    20    32    31    1
    21    32    33    1
    22     9    10    1
    23   100    96   am
    24    99    98    1
    25    65    66    1
    26    56    55    2
    27    55    54    1
    28    34    33    2
    29    33    40   am
    30    75    74    1
    31    96    97    2
    32    96    95    1
    33    10    11    1
    34    98    95    1
    35    66    67    1
    36    66    69    1
    37    40    41    1
    38    43    42    2
    39    95    94    1
    40    12    11    2
    41    54    53    1
    42    54    57    1
    43    74    71    1
    44    18    19    1
    45    42    41    1
    46    67    70   am
    47    67    68    2
    48    11    13   am
    49    70    71    1
    50    25    26    2
    51    25    24    1
    52    61    59   ar
    53    61    63   ar
    54    59    58   ar
    55    41    44    1
    56    64    63    1
    57    19    20    1
    58    19    22    1
    59    71    72    1
    60    63    62   ar
    61    58    57    1
    62    58    60   ar
    63    20    21    2
    64    20    23   am
    65    94    85   am
    66    23    24    1
    67    86    85    2
    68    13    14    1
    69    24    27    1
    70    62    60   ar
    71    85    84    1
    72    44    45    1
    73    72    73    2
    74    72    76   am
    75    50    51    2
    76    50    49    1
    77    14    17    1
    78    14    15    1
    79    27    28    1
    80    76    77    1
    81    45    46    1
    82    45    47    1
    83    49    48    1
    84    49    52    1
    85    84    83    1
    86    84    87    1
    87    15    16    2
    88    79    78    2
    89    77    78    1
    90    77    80    1
    91    28    30    1
    92    28    29    1
    93    87    88    1
    94    80    81    1
    95    80    82    1
    96    88    90   ar
    97    88    89   ar
    98    90    92   ar
    99    89    91   ar
   100    92    93   ar
   101    91    93   ar
