@<TRIPOS>MOLECULE
tmp/2w6uA00.pdb
 106 102 0 0 0
SMALL
GASTEIGER

@<TRIPOS>ATOM
      1  N        -17.1310  -31.1650   32.9050 N.3   234  PHE234     -0.1241
      2  CA       -17.3410  -30.3740   31.6640 C.3   234  PHE234      0.1605
      3  C        -18.2350  -29.1190   31.8450 C.2   234  PHE234      0.2264
      4  O        -19.2220  -29.1610   32.5690 O.2   234  PHE234     -0.2867
      5  CB       -17.9560  -31.2310   30.5260 C.3   234  PHE234      0.0534
      6  CG       -18.5790  -30.3890   29.4260 C.ar  234  PHE234     -0.0203
      7  CD1      -17.7830  -29.8300   28.4220 C.ar  234  PHE234     -0.0042
      8  CD2      -19.9460  -30.0770   29.4500 C.ar  234  PHE234     -0.0042
      9  CE1      -18.3530  -29.0100   27.4330 C.ar  234  PHE234     -0.0003
     10  CE2      -20.5240  -29.2520   28.4690 C.ar  234  PHE234     -0.0003
     11  CZ       -19.7300  -28.7240   27.4540 C.ar  234  PHE234     -0.0000
     12  N        -15.3220  -22.7040   27.2030 N.3   254  VAL254     -0.1231
     13  CA       -15.4790  -24.1580   27.1830 C.3   254  VAL254      0.1692
     14  C        -14.3730  -24.7640   28.0160 C.2   254  VAL254      0.2593
     15  O        -13.1780  -24.4300   27.8550 O.2   254  VAL254     -0.2718
     16  CB       -15.2790  -24.7850   25.7280 C.3   254  VAL254      0.0266
     17  CG1      -15.5360  -26.2640   25.7380 C.3   254  VAL254      0.0020
     18  CG2      -16.2410  -24.2450   24.7350 C.3   254  VAL254      0.0020
     19  N        -14.7520  -25.7190   28.8450 N.am  255  SER255     -0.1938
     20  CA       -13.8260  -26.2200   29.7840 C.3   255  SER255      0.2055
     21  C        -14.1330  -27.5920   30.3800 C.2   255  SER255      0.2644
     22  O        -15.3080  -27.9160   30.6610 O.2   255  SER255     -0.2714
     23  CB       -13.8240  -25.2280   30.8960 C.3   255  SER255      0.2130
     24  OG       -12.9900  -25.6940   31.9050 O.3   255  SER255     -0.2179
     25  N        -13.0840  -28.3860   30.6230 N.am  256  GLY256     -0.1940
     26  CA       -13.2740  -29.6360   31.3570 C.3   256  GLY256      0.1999
     27  C        -12.2120  -30.7050   31.1920 C.2   256  GLY256      0.2481
     28  O        -11.1180  -30.4020   30.6790 O.2   256  GLY256     -0.2729
     29  N        -12.5180  -31.9660   31.6220 N.am  257  PRO257     -0.2715
     30  CA       -11.6290  -33.1300   31.4180 C.3   257  PRO257      0.1536
     31  C        -11.5750  -33.5330   29.9380 C.2   257  PRO257      0.2598
     32  O        -12.5830  -33.4780   29.2470 O.2   257  PRO257     -0.2715
     33  CB       -12.2670  -34.2320   32.2720 C.3   257  PRO257      0.0310
     34  CG       -13.6740  -33.8740   32.3050 C.3   257  PRO257      0.0237
     35  CD       -13.7600  -32.3690   32.2890 C.3   257  PRO257      0.0939
     36  N        -10.3620  -33.8480   29.5000 N.am  258  LEU258     -0.1978
     37  CA        -9.9970  -34.1680   28.1290 C.3   258  LEU258      0.1596
     38  C         -9.5250  -35.6110   28.0480 C.2   258  LEU258      0.2287
     39  O         -9.1680  -36.0760   26.9900 O.2   258  LEU258     -0.2864
     40  CB        -8.8530  -33.2800   27.6410 C.3   258  LEU258      0.0297
     41  CG        -9.0880  -31.9850   26.8510 C.3   258  LEU258      0.0022
     42  CD1       -7.7990  -31.1570   26.8850 C.3   258  LEU258      0.0001
     43  CD2       -9.5740  -32.2050   25.3740 C.3   258  LEU258      0.0001
     44  N         -8.6540  -28.9110   30.0840 N.3   266  GLY266     -0.1210
     45  CA        -8.4330  -27.7370   29.2710 C.3   266  GLY266      0.1956
     46  C         -9.5690  -26.7640   29.2970 C.2   266  GLY266      0.2612
     47  O        -10.6820  -27.1110   29.6170 O.2   266  GLY266     -0.2717
     48  N         -9.2800  -25.5290   28.9800 N.am  267  ARG267     -0.1965
     49  CA       -10.3290  -24.5740   28.8790 C.3   267  ARG267      0.1729
     50  C        -10.0510  -23.7030   27.6520 C.2   267  ARG267      0.2616
     51  O         -8.8900  -23.4780   27.3030 O.2   267  ARG267     -0.2715
     52  CB       -10.4330  -23.7740   30.1950 C.3   267  ARG267      0.0348
     53  CG       -11.5640  -22.7300   30.1910 C.3   267  ARG267      0.0492
     54  CD       -12.0450  -22.4490   31.5870 C.3   267  ARG267      0.2205
     55  NE       -13.1470  -21.4730   31.6590 N.pl3 267  ARG267     -0.0865
     56  CZ       -13.6070  -21.0060   32.8150 C.cat 267  ARG267      0.5346
     57  NH1      -13.0850  -21.4590   33.9200 N.pl3 267  ARG267      0.1354
     58  NH2      -14.5720  -20.1170   32.8790 N.pl3 267  ARG267      0.1354
     59  N        -11.0800  -23.2100   26.9840 N.am  268  ALA268     -0.1977
     60  CA       -10.8220  -22.4320   25.7680 C.3   268  ALA268      0.1597
     61  C        -11.8640  -21.3540   25.6440 C.2   268  ALA268      0.2287
     62  O        -13.0690  -21.5440   25.9240 O.2   268  ALA268     -0.2864
     63  CB       -10.7850  -23.3450   24.4320 C.3   268  ALA268      0.0319
     64  N         -5.9810  -20.3950   25.3810 N.3   291  GLY291     -0.1210
     65  CA        -6.1190  -21.8330   25.5900 C.3   291  GLY291      0.1956
     66  C         -5.1440  -22.3730   26.5990 C.2   291  GLY291      0.2612
     67  O         -3.9470  -22.0220   26.5690 O.2   291  GLY291     -0.2717
     68  N         -5.6260  -23.2500   27.4700 N.am  292  ILE292     -0.1965
     69  CA        -4.8410  -23.7060   28.6210 C.3   292  ILE292      0.1727
     70  C         -5.0530  -25.2300   28.7860 C.2   292  ILE292      0.2616
     71  O         -6.1700  -25.7180   28.7570 O.2   292  ILE292     -0.2715
     72  CB        -5.2300  -22.8340   29.9090 C.3   292  ILE292      0.0290
     73  CG1       -4.3570  -23.1660   31.1330 C.3   292  ILE292      0.0022
     74  CG2       -6.7480  -22.9370   30.2250 C.3   292  ILE292      0.0023
     75  CD1       -4.2940  -22.0800   32.2570 C.3   292  ILE292      0.0001
     76  N         -3.9790  -25.9870   28.8900 N.am  293  LEU293     -0.1977
     77  CA        -4.0890  -27.4170   29.1250 C.3   293  LEU293      0.1596
     78  C         -3.3910  -27.6660   30.4490 C.2   293  LEU293      0.2287
     79  O         -2.3240  -27.1030   30.6760 O.2   293  LEU293     -0.2864
     80  CB        -3.3960  -28.2000   28.0280 C.3   293  LEU293      0.0297
     81  CG        -3.9340  -28.1980   26.6020 C.3   293  LEU293      0.0022
     82  CD1       -2.9220  -28.7830   25.6490 C.3   293  LEU293      0.0001
     83  CD2       -5.1840  -28.9700   26.4830 C.3   293  LEU293      0.0001
     84  N          0.3450  -25.6050   30.5780 N.3   305  VAL305     -0.1231
     85  CA         0.9240  -24.8520   29.4460 C.3   305  VAL305      0.1692
     86  C         -0.1900  -24.1110   28.7280 C.2   305  VAL305      0.2593
     87  O         -1.2980  -24.6070   28.6610 O.2   305  VAL305     -0.2718
     88  CB         1.8700  -25.6940   28.4470 C.3   305  VAL305      0.0266
     89  CG1        2.3060  -27.0420   28.9910 C.3   305  VAL305      0.0020
     90  CG2        1.2570  -25.8470   27.0960 C.3   305  VAL305      0.0020
     91  N          0.0500  -22.9180   28.2230 N.am  306  GLY306     -0.1942
     92  CA        -1.0630  -22.2290   27.6020 C.3   306  GLY306      0.2014
     93  C         -0.6820  -20.9990   26.8410 C.2   306  GLY306      0.2638
     94  O          0.4590  -20.5500   26.9480 O.2   306  GLY306     -0.2714
     95  N         -1.6270  -20.4780   26.0520 N.am  307  ALA307     -0.1977
     96  CA        -1.4230  -19.2520   25.2680 C.3   307  ALA307      0.1597
     97  C         -2.6900  -18.3680   25.2020 C.2   307  ALA307      0.2287
     98  O         -3.8610  -18.8780   25.2270 O.2   307  ALA307     -0.2864
     99  CB        -0.9460  -19.5860   23.8830 C.3   307  ALA307      0.0319
    100  N          2.7960  -16.9580   25.5270 N.3   355  VAL355     -0.1245
    101  CA         2.9200  -18.3800   25.6300 C.3   355  VAL355      0.1561
    102  C          3.5510  -18.5640   26.9810 C.2   355  VAL355      0.2260
    103  O          4.5640  -17.9600   27.3020 O.2   355  VAL355     -0.2867
    104  CB         3.7090  -18.9760   24.4750 C.3   355  VAL355      0.0252
    105  CG1        3.7120  -20.5060   24.5210 C.3   355  VAL355      0.0019
    106  CG2        3.0420  -18.5540   23.2100 C.3   355  VAL355      0.0019
@<TRIPOS>BOND
     1   106   104    1
     2    99    96    1
     3    63    60    1
     4   104   105    1
     5   104   101    1
     6    18    16    1
     7    97    98    2
     8    97    96    1
     9    96    95    1
    10    43    41    1
    11    64    65    1
    12   100   101    1
    13    65    66    1
    14   101   102    1
    15    61    60    1
    16    61    62    2
    17    82    81    1
    18    16    17    1
    19    16    13    1
    20    60    59    1
    21    95    93   am
    22    83    81    1
    23    67    66    2
    24    66    68   am
    25    81    80    1
    26    93    94    2
    27    93    92    1
    28    41    42    1
    29    41    40    1
    30   102   103    2
    31    59    50   am
    32    39    38    2
    33    90    88    1
    34    13    12    1
    35    13    14    1
    36    51    50    2
    37     9    11   ar
    38     9     7   ar
    39    11    10   ar
    40    68    69    1
    41    92    91    1
    42    40    37    1
    43    50    49    1
    44    15    14    2
    45    14    19   am
    46    80    77    1
    47    38    37    1
    48    37    36    1
    49    91    86   am
    50     7     6   ar
    51    88    89    1
    52    88    85    1
    53    10     8   ar
    54    69    70    1
    55    69    72    1
    56    87    86    2
    57    86    85    1
    58    71    70    2
    59    70    76   am
    60    19    20    1
    61    49    48    1
    62    49    52    1
    63    76    77    1
    64    48    46   am
    65    77    78    1
    66    32    31    2
    67    45    46    1
    68    45    44    1
    69    46    47    2
    70     6     8   ar
    71     6     5    1
    72    85    84    1
    73    36    31   am
    74    20    21    1
    75    20    23    1
    76    72    74    1
    77    72    73    1
    78    31    30    1
    79    53    52    1
    80    53    54    1
    81    21    25   am
    82    21    22    2
    83    78    79    2
    84     5     2    1
    85    25    26    1
    86    28    27    2
    87    23    24    1
    88    73    75    1
    89    27    26    1
    90    27    29   am
    91    30    29    1
    92    30    33    1
    93    54    55    1
    94    29    35    1
    95    55    56    2
    96     2     3    1
    97     2     1    1
    98     3     4    2
    99    33    34    1
   100    35    34    1
   101    56    58    1
   102    56    57    1
