@<TRIPOS>MOLECULE
tmp/2w6uB00.pdb
 156 156 0 0 0
SMALL
GASTEIGER

@<TRIPOS>ATOM
      1  N        -56.1320  -29.5190   21.8850 N.3   143  ARG143     -0.1245
      2  CA       -57.3230  -29.0660   21.1810 C.3   143  ARG143      0.1563
      3  C        -58.0310  -27.9750   21.9760 C.2   143  ARG143      0.2260
      4  O        -58.0030  -27.9900   23.1720 O.2   143  ARG143     -0.2867
      5  CB       -58.3180  -30.2080   20.9300 C.3   143  ARG143      0.0307
      6  CG       -57.7940  -31.6210   20.5670 C.3   143  ARG143      0.0489
      7  CD       -58.9850  -32.5190   20.3760 C.3   143  ARG143      0.2205
      8  NE       -59.4030  -33.2480   21.5830 N.pl3 143  ARG143     -0.0865
      9  CZ       -60.5180  -33.9950   21.6770 C.cat 143  ARG143      0.5346
     10  NH1      -61.3920  -34.0870   20.6590 N.pl3 143  ARG143      0.1354
     11  NH2      -60.7710  -34.6660   22.8000 N.pl3 143  ARG143      0.1354
     12  N        -63.0080  -34.3980   17.1160 N.3   169  GLY169     -0.1210
     13  CA       -62.6160  -35.6610   17.7320 C.3   169  GLY169      0.1956
     14  C        -61.4320  -36.2890   17.0170 C.2   169  GLY169      0.2611
     15  O        -60.7190  -37.1100   17.5820 O.2   169  GLY169     -0.2717
     16  N        -61.2240  -35.8740   15.7700 N.am  170  TYR170     -0.1976
     17  CA       -60.0840  -36.2410   14.9540 C.3   170  TYR170      0.1639
     18  C        -59.3470  -34.9650   14.5990 C.2   170  TYR170      0.2290
     19  O        -59.1570  -34.6830   13.4070 O.2   170  TYR170     -0.2864
     20  CB       -60.5650  -36.9150   13.6680 C.3   170  TYR170      0.0560
     21  CG       -61.4880  -38.0410   13.9550 C.ar  170  TYR170     -0.0198
     22  CD1      -62.8800  -37.8420   14.0200 C.ar  170  TYR170     -0.0009
     23  CD2      -60.9770  -39.3170   14.2240 C.ar  170  TYR170     -0.0009
     24  CE1      -63.7430  -38.9080   14.3120 C.ar  170  TYR170      0.0417
     25  CE2      -61.8310  -40.4060   14.5140 C.ar  170  TYR170      0.0417
     26  CZ       -63.2080  -40.1970   14.5530 C.ar  170  TYR170      0.1957
     27  OH       -64.0280  -41.2720   14.8600 O.3   170  TYR170     -0.2866
     28  N        -56.0980  -36.0990   27.2890 N.3   301  TRP301     -0.1227
     29  CA       -57.2710  -36.4170   26.5100 C.3   301  TRP301      0.1737
     30  C        -58.3570  -36.2210   27.5050 C.2   301  TRP301      0.2596
     31  O        -58.2840  -36.7760   28.6240 O.2   301  TRP301     -0.2718
     32  CB       -57.2440  -37.8800   26.1000 C.3   301  TRP301      0.0564
     33  CG       -58.2300  -38.3230   25.0710 C.ar  301  TRP301      0.0003
     34  CD1      -58.9400  -37.5310   24.2270 C.ar  301  TRP301      0.0946
     35  CD2      -58.5790  -39.6920   24.7310 C.ar  301  TRP301      0.0152
     36  NE1      -59.7500  -38.3140   23.4050 N.ar  301  TRP301     -0.2442
     37  CE2      -59.5430  -39.6400   23.7010 C.ar  301  TRP301      0.0810
     38  CE3      -58.1740  -40.9360   25.1990 C.ar  301  TRP301      0.0012
     39  CZ2      -60.0910  -40.7910   23.1230 C.ar  301  TRP301      0.0191
     40  CZ3      -58.7230  -42.0470   24.6510 C.ar  301  TRP301      0.0001
     41  CH2      -59.6780  -41.9750   23.6050 C.ar  301  TRP301      0.0015
     42  N        -59.3440  -35.3940   27.1190 N.am  302  SER302     -0.1952
     43  CA       -60.5300  -35.1980   27.9470 C.3   302  SER302      0.1924
     44  C        -60.2140  -34.3660   29.2420 C.2   302  SER302      0.2314
     45  O        -60.2090  -34.8890   30.3760 O.2   302  SER302     -0.2863
     46  CB       -61.1690  -36.5600   28.2470 C.3   302  SER302      0.2116
     47  OG       -62.1510  -36.5040   29.2530 O.3   302  SER302     -0.2180
     48  N        -51.0040  -36.5190   20.6320 N.3   330  TRP330     -0.1241
     49  CA       -51.9320  -36.0970   19.5490 C.3   330  TRP330      0.1605
     50  C        -51.2460  -35.3160   18.4180 C.2   330  TRP330      0.2264
     51  O        -51.5490  -34.1260   18.1520 O.2   330  TRP330     -0.2867
     52  CB       -53.0880  -35.2600   20.0720 C.3   330  TRP330      0.0550
     53  CG       -54.2980  -35.3530   19.1940 C.ar  330  TRP330      0.0003
     54  CD1      -54.3420  -35.3200   17.8230 C.ar  330  TRP330      0.0946
     55  CD2      -55.6360  -35.5080   19.6270 C.ar  330  TRP330      0.0152
     56  NE1      -55.6240  -35.4550   17.3750 N.ar  330  TRP330     -0.2442
     57  CE2      -56.4460  -35.5700   18.4610 C.ar  330  TRP330      0.0810
     58  CE3      -56.2360  -35.6160   20.8900 C.ar  330  TRP330      0.0012
     59  CZ2      -57.8310  -35.7340   18.5210 C.ar  330  TRP330      0.0191
     60  CZ3      -57.5940  -35.7870   20.9620 C.ar  330  TRP330      0.0001
     61  CH2      -58.3940  -35.8440   19.7740 C.ar  330  TRP330      0.0015
     62  N        -53.5290  -41.9470   21.9630 N.3   366  LEU366     -0.1245
     63  CA       -53.7780  -41.1960   23.1650 C.3   366  LEU366      0.1561
     64  C        -53.8410  -42.1280   24.3540 C.2   366  LEU366      0.2260
     65  O        -54.1870  -43.3030   24.2040 O.2   366  LEU366     -0.2867
     66  CB       -55.0790  -40.4490   23.0150 C.3   366  LEU366      0.0270
     67  CG       -55.2240  -39.7960   21.6570 C.3   366  LEU366      0.0019
     68  CD1      -56.6230  -39.2980   21.5420 C.3   366  LEU366      0.0001
     69  CD2      -54.2960  -38.6300   21.4590 C.3   366  LEU366      0.0001
     70  N        -59.1850  -40.9600   32.7800 N.3   370  MET370     -0.1245
     71  CA       -60.5870  -40.5320   32.7580 C.3   370  MET370      0.1570
     72  C        -61.5200  -41.4410   33.5820 C.2   370  MET370      0.2261
     73  O        -61.1850  -42.6330   33.8600 O.2   370  MET370     -0.2867
     74  CB       -61.1130  -40.3350   31.3440 C.3   370  MET370      0.0387
     75  CG       -60.6810  -41.3550   30.3400 C.3   370  MET370      0.0595
     76  SD       -61.2330  -40.8100   28.7070 S.3   370  MET370     -0.1393
     77  CE       -60.7550  -39.1090   28.8660 C.3   370  MET370      0.0692
     78  N        -57.6170  -44.7200   30.2060 N.3   383  VAL383     -0.1245
     79  CA       -58.3250  -45.0890   28.9630 C.3   383  VAL383      0.1561
     80  C        -57.3180  -44.8450   27.8500 C.2   383  VAL383      0.2260
     81  O        -56.7950  -43.7440   27.7080 O.2   383  VAL383     -0.2867
     82  CB       -59.6000  -44.1960   28.7540 C.3   383  VAL383      0.0252
     83  CG1      -60.1130  -44.2490   27.3280 C.3   383  VAL383      0.0019
     84  CG2      -60.6840  -44.5660   29.7570 C.3   383  VAL383      0.0019
     85  N        -56.4100  -45.3420   23.5970 N.3   385  GLN385     -0.1245
     86  CA       -56.9430  -45.5880   22.2450 C.3   385  GLN385      0.1566
     87  C        -56.0650  -44.8920   21.2260 C.2   385  GLN385      0.2260
     88  O        -55.3990  -43.8870   21.5460 O.2   385  GLN385     -0.2867
     89  CB       -58.3730  -45.0670   22.1090 C.3   385  GLN385      0.0367
     90  CG       -59.3560  -45.7080   23.1090 C.3   385  GLN385      0.0905
     91  CD       -60.8470  -45.2680   22.9630 C.2   385  GLN385      0.2608
     92  OE1      -61.2540  -44.6440   21.9770 O.2   385  GLN385     -0.2717
     93  NE2      -61.6580  -45.6320   23.9620 N.am  385  GLN385     -0.0878
     94  N        -55.8090  -43.2200   17.2980 N.3   387  TYR387     -0.1241
     95  CA       -56.4300  -42.8030   16.0410 C.3   387  TYR387      0.1605
     96  C        -55.3630  -42.2760   15.1560 C.2   387  TYR387      0.2264
     97  O        -54.5520  -41.4340   15.5710 O.2   387  TYR387     -0.2867
     98  CB       -57.4940  -41.7110   16.2550 C.3   387  TYR387      0.0534
     99  CG       -58.5150  -42.1520   17.2320 C.ar  387  TYR387     -0.0201
    100  CD1      -59.6000  -42.9460   16.8200 C.ar  387  TYR387     -0.0009
    101  CD2      -58.3610  -41.8620   18.5730 C.ar  387  TYR387     -0.0009
    102  CE1      -60.5110  -43.4290   17.7320 C.ar  387  TYR387      0.0417
    103  CE2      -59.2640  -42.3210   19.5000 C.ar  387  TYR387      0.0417
    104  CZ       -60.3340  -43.1040   19.0810 C.ar  387  TYR387      0.1957
    105  OH       -61.2280  -43.5470   20.0170 O.3   387  TYR387     -0.2866
    106  N        -58.8060  -49.9740   19.3280 N.3   430  TRP430     -0.1241
    107  CA       -59.1820  -50.0300   20.7380 C.3   430  TRP430      0.1605
    108  C        -59.2740  -51.3800   21.4090 C.2   430  TRP430      0.2264
    109  O        -59.7160  -51.4720   22.5510 O.2   430  TRP430     -0.2867
    110  CB       -60.4130  -49.1830   20.9970 C.3   430  TRP430      0.0550
    111  CG       -61.4540  -49.4760   20.0520 C.ar  430  TRP430      0.0003
    112  CD1      -62.0690  -50.6810   19.8570 C.ar  430  TRP430      0.0946
    113  CD2      -62.0530  -48.5690   19.1440 C.ar  430  TRP430      0.0152
    114  NE1      -63.0270  -50.5650   18.8730 N.ar  430  TRP430     -0.2442
    115  CE2      -63.0280  -49.2760   18.4210 C.ar  430  TRP430      0.0810
    116  CE3      -61.8620  -47.2330   18.8660 C.ar  430  TRP430      0.0012
    117  CZ2      -63.7890  -48.6910   17.4380 C.ar  430  TRP430      0.0191
    118  CZ3      -62.6420  -46.6480   17.8920 C.ar  430  TRP430      0.0001
    119  CH2      -63.5900  -47.3770   17.1940 C.ar  430  TRP430      0.0015
    120  N        -75.5150  -38.9810   13.3390 N.3   538  TRP538     -0.1241
    121  CA       -76.3490  -39.7020   14.3550 C.3   538  TRP538      0.1605
    122  C        -77.6580  -38.9900   14.7770 C.2   538  TRP538      0.2264
    123  O        -78.5370  -39.5630   15.4270 O.2   538  TRP538     -0.2867
    124  CB       -75.5010  -40.0760   15.5830 C.3   538  TRP538      0.0550
    125  CG       -74.7140  -38.8960   16.1760 C.ar  538  TRP538      0.0003
    126  CD1      -75.1910  -37.9220   17.0430 C.ar  538  TRP538      0.0946
    127  CD2      -73.3210  -38.5770   15.9510 C.ar  538  TRP538      0.0152
    128  NE1      -74.1820  -37.0270   17.3670 N.ar  538  TRP538     -0.2442
    129  CE2      -73.0270  -37.4000   16.7150 C.ar  538  TRP538      0.0810
    130  CE3      -72.2850  -39.1760   15.1940 C.ar  538  TRP538      0.0012
    131  CZ2      -71.7330  -36.8010   16.7290 C.ar  538  TRP538      0.0191
    132  CZ3      -70.9840  -38.5790   15.2180 C.ar  538  TRP538      0.0001
    133  CH2      -70.7280  -37.4100   15.9790 C.ar  538  TRP538      0.0015
    134  N        -66.2840  -30.7430   30.4060 N.3   734  PHE734     -0.1227
    135  CA       -66.0760  -31.5780   29.2200 C.3   734  PHE734      0.1736
    136  C        -65.8350  -33.0000   29.6610 C.2   734  PHE734      0.2595
    137  O        -64.7410  -33.2570   30.1990 O.2   734  PHE734     -0.2718
    138  CB       -64.8870  -31.1270   28.3900 C.3   734  PHE734      0.0547
    139  CG       -64.7060  -31.9330   27.1430 C.ar  734  PHE734     -0.0202
    140  CD1      -65.5730  -31.7940   26.0840 C.ar  734  PHE734     -0.0042
    141  CD2      -63.6760  -32.8390   27.0320 C.ar  734  PHE734     -0.0042
    142  CE1      -65.4090  -32.5510   24.9160 C.ar  734  PHE734     -0.0003
    143  CE2      -63.5030  -33.5700   25.8670 C.ar  734  PHE734     -0.0003
    144  CZ       -64.3810  -33.4310   24.8070 C.ar  734  PHE734     -0.0000
    145  N        -66.8170  -33.8980   29.4240 N.am  735  TYR735     -0.1976
    146  CA       -66.7570  -35.2810   29.9290 C.3   735  TYR735      0.1639
    147  C        -66.3380  -35.2270   31.3800 C.2   735  TYR735      0.2290
    148  O        -65.4310  -35.9410   31.8150 O.2   735  TYR735     -0.2864
    149  CB       -65.7610  -36.1280   29.1620 C.3   735  TYR735      0.0560
    150  CG       -66.2020  -36.5640   27.7820 C.ar  735  TYR735     -0.0198
    151  CD1      -67.1550  -37.5460   27.6120 C.ar  735  TYR735     -0.0009
    152  CD2      -65.6290  -35.9990   26.6280 C.ar  735  TYR735     -0.0009
    153  CE1      -67.5320  -37.9600   26.3240 C.ar  735  TYR735      0.0417
    154  CE2      -66.0030  -36.3990   25.3310 C.ar  735  TYR735      0.0417
    155  CZ       -66.9480  -37.3900   25.1870 C.ar  735  TYR735      0.1957
    156  OH       -67.3310  -37.8190   23.9260 O.3   735  TYR735     -0.2866
@<TRIPOS>BOND
     1   120   121    1
     2    19    18    2
     3    20    21    1
     4    20    17    1
     5    21    22   ar
     6    21    23   ar
     7    22    24   ar
     8    23    25   ar
     9    24    26   ar
    10   121   122    1
    11   121   124    1
    12    25    26   ar
    13    26    27    1
    14    18    17    1
    15   122   123    2
    16    17    16    1
    17    96    97    2
    18    96    95    1
    19   130   132   ar
    20   130   127   ar
    21   132   133   ar
    22   124   125    1
    23    16    14   am
    24   127   125   ar
    25   127   129   ar
    26   133   131   ar
    27    95    98    1
    28    95    94    1
    29   125   126   ar
    30    98    99    1
    31   129   131   ar
    32   129   128   ar
    33   100    99   ar
    34   100   102   ar
    35    14    15    2
    36    14    13    1
    37   126   128   ar
    38    12    13    1
    39   119   117   ar
    40   119   118   ar
    41    99   101   ar
    42    56    54   ar
    43    56    57   ar
    44   117   115   ar
    45   102   104   ar
    46    54    53   ar
    47   118   116   ar
    48    51    50    2
    49    50    49    1
    50   115   114   ar
    51   115   113   ar
    52    57    59   ar
    53    57    55   ar
    54    59    61   ar
    55   101   103   ar
    56   116   113   ar
    57   114   112   ar
    58   104   103   ar
    59   104   105    1
    60   113   111   ar
    61    53    55   ar
    62    53    52    1
    63   106   107    1
    64    49    52    1
    65    49    48    1
    66    55    58   ar
    67    61    60   ar
    68   112   111   ar
    69   111   110    1
    70     7     6    1
    71     7     8    1
    72     6     5    1
    73    10     9    1
    74   107   110    1
    75   107   108    1
    76    58    60   ar
    77     5     2    1
    78     2     1    1
    79     2     3    1
    80    87    88    2
    81    87    86    1
    82   108   109    2
    83    69    67    1
    84    68    67    1
    85     8     9    2
    86    67    66    1
    87     9    11    1
    88    62    63    1
    89     3     4    2
    90    92    91    2
    91    89    86    1
    92    89    90    1
    93    86    85    1
    94    91    90    1
    95    91    93   am
    96    66    63    1
    97    39    41   ar
    98    39    37   ar
    99    63    64    1
   100    36    37   ar
   101    36    34   ar
   102    41    40   ar
   103    37    35   ar
   104   156   155    1
   105    65    64    2
   106    34    33   ar
   107    40    38   ar
   108    35    33   ar
   109    35    38   ar
   110   144   142   ar
   111   144   143   ar
   112   142   140   ar
   113    33    32    1
   114   155   154   ar
   115   155   153   ar
   116   154   152   ar
   117   143   141   ar
   118   140   139   ar
   119    32    29    1
   120   153   151   ar
   121    29    28    1
   122    29    30    1
   123   152   150   ar
   124   141   139   ar
   125    42    30   am
   126    42    43    1
   127   139   138    1
   128    83    82    1
   129    30    31    2
   130   151   150   ar
   131    81    80    2
   132   150   149    1
   133    80    79    1
   134    43    46    1
   135    43    44    1
   136    46    47    1
   137   138   135    1
   138    76    77    1
   139    76    75    1
   140    82    79    1
   141    82    84    1
   142    79    78    1
   143   149   146    1
   144   135   136    1
   145   135   134    1
   146    44    45    2
   147   145   136   am
   148   145   146    1
   149   136   137    2
   150   146   147    1
   151    75    74    1
   152    74    71    1
   153   147   148    2
   154    71    70    1
   155    71    72    1
   156    72    73    2
