@<TRIPOS>MOLECULE
tmp/2w6uB02.pdb
 151 150 0 0 0
SMALL
GASTEIGER

@<TRIPOS>ATOM
      1  N        -62.1380  -21.7870   24.7910 N.3   137  SER137     -0.1217
      2  CA       -62.3440  -22.7870   25.8470 C.3   137  SER137      0.1889
      3  C        -61.4870  -23.9750   25.5210 C.2   137  SER137      0.2288
      4  O        -61.0260  -24.1080   24.3900 O.2   137  SER137     -0.2866
      5  CB       -63.8110  -23.2050   26.0040 C.3   137  SER137      0.2089
      6  OG       -64.4720  -23.5200   24.7610 O.3   137  SER137     -0.2183
      7  N        -60.6870  -28.1990   25.2680 N.3   139  TYR139     -0.1241
      8  CA       -60.9660  -29.6340   25.3500 C.3   139  TYR139      0.1605
      9  C        -59.8380  -30.3530   26.1070 C.2   139  TYR139      0.2264
     10  O        -60.0770  -30.9760   27.1820 O.2   139  TYR139     -0.2867
     11  CB       -61.0950  -30.2590   23.9680 C.3   139  TYR139      0.0534
     12  CG       -62.2670  -29.7520   23.1220 C.ar  139  TYR139     -0.0201
     13  CD1      -63.6070  -30.0330   23.4740 C.ar  139  TYR139     -0.0009
     14  CD2      -62.0310  -29.0470   21.9370 C.ar  139  TYR139     -0.0009
     15  CE1      -64.6700  -29.5860   22.6990 C.ar  139  TYR139      0.0417
     16  CE2      -63.0990  -28.5890   21.1620 C.ar  139  TYR139      0.0417
     17  CZ       -64.4020  -28.8670   21.5500 C.ar  139  TYR139      0.1957
     18  OH       -65.4120  -28.3980   20.7570 O.3   139  TYR139     -0.2866
     19  N        -56.1320  -29.5190   21.8850 N.3   143  ARG143     -0.1245
     20  CA       -57.3230  -29.0660   21.1810 C.3   143  ARG143      0.1563
     21  C        -58.0310  -27.9750   21.9760 C.2   143  ARG143      0.2260
     22  O        -58.0030  -27.9900   23.1720 O.2   143  ARG143     -0.2867
     23  CB       -58.3180  -30.2080   20.9300 C.3   143  ARG143      0.0307
     24  CG       -57.7940  -31.6210   20.5670 C.3   143  ARG143      0.0489
     25  CD       -58.9850  -32.5190   20.3760 C.3   143  ARG143      0.2205
     26  NE       -59.4030  -33.2480   21.5830 N.pl3 143  ARG143     -0.0865
     27  CZ       -60.5180  -33.9950   21.6770 C.cat 143  ARG143      0.5346
     28  NH1      -61.3920  -34.0870   20.6590 N.pl3 143  ARG143      0.1354
     29  NH2      -60.7710  -34.6660   22.8000 N.pl3 143  ARG143      0.1354
     30  N        -61.5150  -24.8510   21.8050 N.3   145  ASN145     -0.1240
     31  CA       -62.7870  -24.5370   21.2270 C.3   145  ASN145      0.1653
     32  C        -62.8960  -23.0560   20.9980 C.2   145  ASN145      0.2266
     33  O        -62.5340  -22.2960   21.8840 O.2   145  ASN145     -0.2867
     34  CB       -63.8950  -24.9150   22.1740 C.3   145  ASN145      0.1155
     35  CG       -65.2530  -24.5340   21.6250 C.2   145  ASN145      0.2627
     36  OD1      -65.8010  -25.2440   20.7560 O.2   145  ASN145     -0.2716
     37  ND2      -65.7920  -23.4010   22.0860 N.am  145  ASN145     -0.0877
     38  N        -65.5200  -19.9580   20.4740 N.3   147  TYR147     -0.1241
     39  CA       -66.8670  -19.4110   20.3690 C.3   147  TYR147      0.1605
     40  C        -66.9060  -18.0020   19.7480 C.2   147  TYR147      0.2264
     41  O        -66.0440  -17.1390   20.0930 O.2   147  TYR147     -0.2867
     42  CB       -67.3950  -19.1790   21.7560 C.3   147  TYR147      0.0534
     43  CG       -67.7080  -20.3400   22.5960 C.ar  147  TYR147     -0.0201
     44  CD1      -68.7330  -21.2400   22.2480 C.ar  147  TYR147     -0.0009
     45  CD2      -67.0440  -20.5160   23.7940 C.ar  147  TYR147     -0.0009
     46  CE1      -69.0530  -22.3050   23.0860 C.ar  147  TYR147      0.0417
     47  CE2      -67.3460  -21.5560   24.6200 C.ar  147  TYR147      0.0417
     48  CZ       -68.3500  -22.4200   24.2680 C.ar  147  TYR147      0.1957
     49  OH       -68.6180  -23.4110   25.1120 O.3   147  TYR147     -0.2866
     50  N        -69.8330  -22.5810   18.5890 N.3   152  SER152     -0.1217
     51  CA       -68.4880  -23.1090   18.3350 C.3   152  SER152      0.1889
     52  C        -68.1900  -22.8440   16.8920 C.2   152  SER152      0.2288
     53  O        -68.9490  -23.2460   16.0360 O.2   152  SER152     -0.2866
     54  CB       -68.4260  -24.6180   18.5490 C.3   152  SER152      0.2089
     55  OG       -68.6530  -24.9850   19.9040 O.3   152  SER152     -0.2183
     56  N        -63.7380  -32.3580   15.2240 N.3   168  VAL168     -0.1231
     57  CA       -62.6420  -32.1810   16.2120 C.3   168  VAL168      0.1692
     58  C        -62.1730  -33.3670   17.0230 C.2   168  VAL168      0.2592
     59  O        -61.0720  -33.3270   17.5750 O.2   168  VAL168     -0.2718
     60  CB       -62.8780  -31.0460   17.2330 C.3   168  VAL168      0.0266
     61  CG1      -62.8530  -29.6970   16.5340 C.3   168  VAL168      0.0020
     62  CG2      -64.1200  -31.2400   18.0640 C.3   168  VAL168      0.0020
     63  N        -63.0080  -34.3980   17.1160 N.am  169  GLY169     -0.1957
     64  CA       -62.6160  -35.6610   17.7320 C.3   169  GLY169      0.1869
     65  C        -61.4320  -36.2890   17.0170 C.2   169  GLY169      0.2309
     66  O        -60.7190  -37.1100   17.5820 O.2   169  GLY169     -0.2863
     67  N        -56.0980  -36.0990   27.2890 N.3   301  TRP301     -0.1241
     68  CA       -57.2710  -36.4170   26.5100 C.3   301  TRP301      0.1605
     69  C        -58.3570  -36.2210   27.5050 C.2   301  TRP301      0.2264
     70  O        -58.2840  -36.7760   28.6240 O.2   301  TRP301     -0.2867
     71  CB       -57.2440  -37.8800   26.1000 C.3   301  TRP301      0.0550
     72  CG       -58.2300  -38.3230   25.0710 C.ar  301  TRP301      0.0003
     73  CD1      -58.9400  -37.5310   24.2270 C.ar  301  TRP301      0.0946
     74  CD2      -58.5790  -39.6920   24.7310 C.ar  301  TRP301      0.0152
     75  NE1      -59.7500  -38.3140   23.4050 N.ar  301  TRP301     -0.2442
     76  CE2      -59.5430  -39.6400   23.7010 C.ar  301  TRP301      0.0810
     77  CE3      -58.1740  -40.9360   25.1990 C.ar  301  TRP301      0.0012
     78  CZ2      -60.0910  -40.7910   23.1230 C.ar  301  TRP301      0.0191
     79  CZ3      -58.7230  -42.0470   24.6510 C.ar  301  TRP301      0.0001
     80  CH2      -59.6780  -41.9750   23.6050 C.ar  301  TRP301      0.0015
     81  N        -74.7170  -33.9050   11.6060 N.3   536  ASP536     -0.1239
     82  CA       -73.8350  -35.0470   11.9190 C.3   536  ASP536      0.1674
     83  C        -74.6460  -36.2880   11.8220 C.2   536  ASP536      0.2266
     84  O        -75.8220  -36.2960   12.1630 O.2   536  ASP536     -0.2867
     85  CB       -73.3390  -35.0160   13.3630 C.3   536  ASP536      0.1410
     86  CG       -72.0820  -34.1890   13.5600 C.2   536  ASP536      0.3668
     87  OD1      -71.4860  -33.6750   12.5890 O.co2 536  ASP536     -0.2456
     88  OD2      -71.6790  -34.0460   14.7320 O.co2 536  ASP536     -0.2456
     89  N        -75.5150  -38.9810   13.3390 N.3   538  TRP538     -0.1227
     90  CA       -76.3490  -39.7020   14.3550 C.3   538  TRP538      0.1737
     91  C        -77.6580  -38.9900   14.7770 C.2   538  TRP538      0.2595
     92  O        -78.5370  -39.5630   15.4270 O.2   538  TRP538     -0.2718
     93  CB       -75.5010  -40.0760   15.5830 C.3   538  TRP538      0.0564
     94  CG       -74.7140  -38.8960   16.1760 C.ar  538  TRP538      0.0003
     95  CD1      -75.1910  -37.9220   17.0430 C.ar  538  TRP538      0.0946
     96  CD2      -73.3210  -38.5770   15.9510 C.ar  538  TRP538      0.0152
     97  NE1      -74.1820  -37.0270   17.3670 N.ar  538  TRP538     -0.2442
     98  CE2      -73.0270  -37.4000   16.7150 C.ar  538  TRP538      0.0810
     99  CE3      -72.2850  -39.1760   15.1940 C.ar  538  TRP538      0.0012
    100  CZ2      -71.7330  -36.8010   16.7290 C.ar  538  TRP538      0.0191
    101  CZ3      -70.9840  -38.5790   15.2180 C.ar  538  TRP538      0.0001
    102  CH2      -70.7280  -37.4100   15.9790 C.ar  538  TRP538      0.0015
    103  N        -77.7660  -37.7280   14.3940 N.am  539  TYR539     -0.1976
    104  CA       -78.9220  -36.8930   14.6880 C.3   539  TYR539      0.1639
    105  C        -80.1920  -37.2210   13.8610 C.2   539  TYR539      0.2290
    106  O        -80.5710  -36.4750   12.9470 O.2   539  TYR539     -0.2864
    107  CB       -78.5170  -35.4430   14.4620 C.3   539  TYR539      0.0560
    108  CG       -77.5210  -34.9010   15.4450 C.ar  539  TYR539     -0.0198
    109  CD1      -77.6750  -35.1060   16.8030 C.ar  539  TYR539     -0.0009
    110  CD2      -76.4420  -34.1360   15.0170 C.ar  539  TYR539     -0.0009
    111  CE1      -76.7810  -34.5720   17.6910 C.ar  539  TYR539      0.0417
    112  CE2      -75.5450  -33.5990   15.9030 C.ar  539  TYR539      0.0417
    113  CZ       -75.7260  -33.8200   17.2290 C.ar  539  TYR539      0.1957
    114  OH       -74.8540  -33.2780   18.1200 O.3   539  TYR539     -0.2866
    115  N        -71.0650  -21.6090   29.1460 N.3   646  TRP646     -0.1241
    116  CA       -69.6030  -21.5030   29.3560 C.3   646  TRP646      0.1605
    117  C        -68.9250  -20.3300   28.6160 C.2   646  TRP646      0.2264
    118  O        -67.9250  -19.7880   29.1120 O.2   646  TRP646     -0.2867
    119  CB       -68.8970  -22.8190   28.9930 C.3   646  TRP646      0.0550
    120  CG       -67.4270  -22.9190   29.4460 C.ar  646  TRP646      0.0003
    121  CD1      -66.3410  -23.2210   28.6670 C.ar  646  TRP646      0.0946
    122  CD2      -66.9100  -22.7340   30.7810 C.ar  646  TRP646      0.0152
    123  NE1      -65.1740  -23.2400   29.4370 N.ar  646  TRP646     -0.2442
    124  CE2      -65.5070  -22.9420   30.7290 C.ar  646  TRP646      0.0810
    125  CE3      -67.4990  -22.4200   32.0140 C.ar  646  TRP646      0.0012
    126  CZ2      -64.7000  -22.8380   31.8540 C.ar  646  TRP646      0.0191
    127  CZ3      -66.6990  -22.3050   33.1210 C.ar  646  TRP646      0.0001
    128  CH2      -65.3140  -22.5190   33.0390 C.ar  646  TRP646      0.0015
    129  N        -66.2840  -30.7430   30.4060 N.3   734  PHE734     -0.1227
    130  CA       -66.0760  -31.5780   29.2200 C.3   734  PHE734      0.1736
    131  C        -65.8350  -33.0000   29.6610 C.2   734  PHE734      0.2595
    132  O        -64.7410  -33.2570   30.1990 O.2   734  PHE734     -0.2718
    133  CB       -64.8870  -31.1270   28.3900 C.3   734  PHE734      0.0547
    134  CG       -64.7060  -31.9330   27.1430 C.ar  734  PHE734     -0.0202
    135  CD1      -65.5730  -31.7940   26.0840 C.ar  734  PHE734     -0.0042
    136  CD2      -63.6760  -32.8390   27.0320 C.ar  734  PHE734     -0.0042
    137  CE1      -65.4090  -32.5510   24.9160 C.ar  734  PHE734     -0.0003
    138  CE2      -63.5030  -33.5700   25.8670 C.ar  734  PHE734     -0.0003
    139  CZ       -64.3810  -33.4310   24.8070 C.ar  734  PHE734     -0.0000
    140  N        -66.8170  -33.8980   29.4240 N.am  735  TYR735     -0.1976
    141  CA       -66.7570  -35.2810   29.9290 C.3   735  TYR735      0.1639
    142  C        -66.3380  -35.2270   31.3800 C.2   735  TYR735      0.2290
    143  O        -65.4310  -35.9410   31.8150 O.2   735  TYR735     -0.2864
    144  CB       -65.7610  -36.1280   29.1620 C.3   735  TYR735      0.0560
    145  CG       -66.2020  -36.5640   27.7820 C.ar  735  TYR735     -0.0198
    146  CD1      -67.1550  -37.5460   27.6120 C.ar  735  TYR735     -0.0009
    147  CD2      -65.6290  -35.9990   26.6280 C.ar  735  TYR735     -0.0009
    148  CE1      -67.5320  -37.9600   26.3240 C.ar  735  TYR735      0.0417
    149  CE2      -66.0030  -36.3990   25.3310 C.ar  735  TYR735      0.0417
    150  CZ       -66.9480  -37.3900   25.1870 C.ar  735  TYR735      0.1957
    151  OH       -67.3310  -37.8190   23.9260 O.3   735  TYR735     -0.2866
@<TRIPOS>BOND
     1    81    82    1
     2    83    82    1
     3    83    84    2
     4    82    85    1
     5    87    86   ar
     6   106   105    2
     7    89    90    1
     8    85    86    1
     9    86    88   ar
    10   105   104    1
    11    90    91    1
    12    90    93    1
    13   103   104    1
    14   103    91   am
    15   107   104    1
    16   107   108    1
    17    91    92    2
    18   110   108   ar
    19   110   112   ar
    20    99   101   ar
    21    99    96   ar
    22   101   102   ar
    23    56    57    1
    24   108   109   ar
    25    93    94    1
    26   112   113   ar
    27    96    94   ar
    28    96    98   ar
    29   102   100   ar
    30    53    52    2
    31    94    95   ar
    32    57    58    1
    33    57    60    1
    34    61    60    1
    35    98   100   ar
    36    98    97   ar
    37   109   111   ar
    38    52    51    1
    39    65    66    2
    40    65    64    1
    41    58    63   am
    42    58    59    2
    43    95    97   ar
    44    63    64    1
    45   113   111   ar
    46   113   114    1
    47    60    62    1
    48    51    54    1
    49    51    50    1
    50    54    55    1
    51    40    41    2
    52    40    39    1
    53    39    38    1
    54    39    42    1
    55    25    24    1
    56    25    26    1
    57    24    23    1
    58    28    27    1
    59    36    35    2
    60    18    17    1
    61    23    20    1
    62    32    31    1
    63    32    33    2
    64    16    17   ar
    65    16    14   ar
    66    20    19    1
    67    20    21    1
    68    31    30    1
    69    31    34    1
    70    17    15   ar
    71    26    27    2
    72    35    37   am
    73    35    34    1
    74    27    29    1
    75    42    43    1
    76    14    12   ar
    77    21    22    2
    78    44    43   ar
    79    44    46   ar
    80    43    45   ar
    81    15    13   ar
    82    46    48   ar
    83    12    13   ar
    84    12    11    1
    85    78    80   ar
    86    78    76   ar
    87    75    76   ar
    88    75    73   ar
    89    80    79   ar
    90    76    74   ar
    91    45    47   ar
    92   151   150    1
    93    11     8    1
    94    73    72   ar
    95    48    47   ar
    96    48    49    1
    97     4     3    2
    98    79    77   ar
    99    74    72   ar
   100    74    77   ar
   101     6     5    1
   102     1     2    1
   103   139   137   ar
   104   139   138   ar
   105   137   135   ar
   106    72    71    1
   107   150   149   ar
   108   150   148   ar
   109     7     8    1
   110   149   147   ar
   111     8     9    1
   112     3     2    1
   113     2     5    1
   114   138   136   ar
   115   135   134   ar
   116    71    68    1
   117     9    10    2
   118   148   146   ar
   119    68    67    1
   120    68    69    1
   121   147   145   ar
   122   136   134   ar
   123   134   133    1
   124    69    70    2
   125   146   145   ar
   126   145   144    1
   127   133   130    1
   128   117   118    2
   129   117   116    1
   130   121   123   ar
   131   121   120   ar
   132   119   116    1
   133   119   120    1
   134   115   116    1
   135   144   141    1
   136   130   131    1
   137   130   129    1
   138   140   131   am
   139   140   141    1
   140   123   124   ar
   141   120   122   ar
   142   131   132    2
   143   141   142    1
   144   124   122   ar
   145   124   126   ar
   146   122   125   ar
   147   142   143    2
   148   126   128   ar
   149   125   127   ar
   150   128   127   ar
