@<TRIPOS>MOLECULE
tmp/2w6zA00.pdb
 141 133 0 0 0
SMALL
GASTEIGER

@<TRIPOS>ATOM
      1  N          4.9920  -33.6030   27.4400 N.3   131  VAL131     -0.1245
      2  CA         3.5940  -33.2180   27.2700 C.3   131  VAL131      0.1561
      3  C          2.8440  -34.3990   26.6360 C.2   131  VAL131      0.2260
      4  O          3.3260  -34.9740   25.6530 O.2   131  VAL131     -0.2867
      5  CB         3.4310  -31.9900   26.3290 C.3   131  VAL131      0.0252
      6  CG1        2.0080  -31.4650   26.3940 C.3   131  VAL131      0.0019
      7  CG2        4.4030  -30.8670   26.6820 C.3   131  VAL131      0.0019
      8  N         -2.4680  -28.4500   20.6790 N.3   157  ILE157     -0.1245
      9  CA        -1.6580  -27.5320   19.8700 C.3   157  ILE157      0.1561
     10  C         -0.9410  -28.3140   18.7690 C.2   157  ILE157      0.2260
     11  O         -0.3970  -29.3850   19.0240 O.2   157  ILE157     -0.2867
     12  CB        -0.6690  -26.7200   20.7600 C.3   157  ILE157      0.0252
     13  CG1        0.0700  -25.6540   19.9370 C.3   157  ILE157      0.0019
     14  CG2        0.3290  -27.6360   21.4620 C.3   157  ILE157      0.0019
     15  CD1        0.7310  -24.5740   20.7970 C.3   157  ILE157      0.0001
     16  N          2.1280  -28.5690   16.1700 N.3   159  LYS159     -0.1245
     17  CA         3.5050  -28.0930   16.1950 C.3   159  LYS159      0.1561
     18  C          4.3040  -28.7400   15.0590 C.2   159  LYS159      0.2260
     19  O          4.1600  -29.9280   14.7760 O.2   159  LYS159     -0.2867
     20  CB         4.1620  -28.4280   17.5460 C.3   159  LYS159      0.0271
     21  CG         3.4820  -27.7900   18.7600 C.3   159  LYS159      0.0035
     22  CD         4.0500  -28.2960   20.0900 C.3   159  LYS159      0.0206
     23  CE         5.4190  -27.6920   20.4180 C.3   159  LYS159      0.1093
     24  NZ         5.8930  -27.9910   21.8110 N.3   159  LYS159     -0.1314
     25  N          8.6000  -21.5180   19.8590 N.3   166  GLY166     -0.1225
     26  CA         7.3390  -20.8330   19.5950 C.3   166  GLY166      0.1811
     27  C          7.0620  -20.5930   18.1250 C.2   166  GLY166      0.2280
     28  O          6.0760  -19.9400   17.7870 O.2   166  GLY166     -0.2866
     29  N          3.2980  -22.8970   15.2930 N.3   169  MET169     -0.1245
     30  CA         2.3040  -23.6800   16.0410 C.3   169  MET169      0.1570
     31  C          0.9140  -23.0540   16.1150 C.2   169  MET169      0.2261
     32  O          0.7570  -21.8410   16.0210 O.2   169  MET169     -0.2867
     33  CB         2.8160  -24.0820   17.4380 C.3   169  MET169      0.0387
     34  CG         3.4880  -23.0150   18.2690 C.3   169  MET169      0.0595
     35  SD         4.4080  -23.7560   19.6550 S.3   169  MET169     -0.1393
     36  CE         5.8620  -24.3800   18.8120 C.3   169  MET169      0.0692
     37  N         -3.0230  -23.4050   18.1540 N.3   171  VAL171     -0.1245
     38  CA        -3.8780  -23.9180   19.2140 C.3   171  VAL171      0.1561
     39  C         -5.2260  -24.3020   18.6220 C.2   171  VAL171      0.2260
     40  O         -5.7940  -23.5550   17.8210 O.2   171  VAL171     -0.2867
     41  CB        -4.1000  -22.8650   20.3190 C.3   171  VAL171      0.0252
     42  CG1       -4.9500  -23.4320   21.4460 C.3   171  VAL171      0.0019
     43  CG2       -2.7620  -22.3790   20.8630 C.3   171  VAL171      0.0019
     44  N          0.1660  -31.9070   20.6040 N.3   201  GLU201     -0.1231
     45  CA         0.4360  -31.9400   22.0410 C.3   201  GLU201      0.1699
     46  C         -0.7560  -31.3630   22.7630 C.2   201  GLU201      0.2592
     47  O         -1.5260  -30.5980   22.1850 O.2   201  GLU201     -0.2718
     48  CB         1.6610  -31.0820   22.4000 C.3   201  GLU201      0.0402
     49  CG         2.9610  -31.8140   22.3430 C.3   201  GLU201      0.1161
     50  CD         4.1390  -31.0230   22.8790 C.2   201  GLU201      0.3649
     51  OE1        5.2030  -31.6520   23.0410 O.co2 201  GLU201     -0.2457
     52  OE2        4.0220  -29.8030   23.1370 O.co2 201  GLU201     -0.2457
     53  N         -0.8990  -31.7150   24.0320 N.am  202  LYS202     -0.1966
     54  CA        -1.8440  -31.0240   24.9090 C.3   202  LYS202      0.1728
     55  C         -1.4360  -29.5620   25.0050 C.2   202  LYS202      0.2616
     56  O         -0.2610  -29.2640   25.1790 O.2   202  LYS202     -0.2715
     57  CB        -1.8280  -31.6420   26.3120 C.3   202  LYS202      0.0311
     58  CG        -2.8200  -31.0340   27.3020 C.3   202  LYS202      0.0038
     59  CD        -4.2560  -31.4180   27.0180 C.3   202  LYS202      0.0206
     60  CE        -5.1510  -31.0650   28.2030 C.3   202  LYS202      0.1093
     61  NZ        -6.5360  -31.5880   28.0410 N.3   202  LYS202     -0.1314
     62  N         -2.4040  -28.6520   24.9040 N.am  203  TYR203     -0.1960
     63  CA        -2.1190  -27.2370   25.0670 C.3   203  TYR203      0.1771
     64  C         -2.2100  -26.8500   26.5450 C.2   203  TYR203      0.2619
     65  O         -3.2640  -27.0030   27.1710 O.2   203  TYR203     -0.2715
     66  CB        -3.0870  -26.3810   24.2450 C.3   203  TYR203      0.0574
     67  CG        -2.8460  -24.9010   24.4120 C.ar  203  TYR203     -0.0198
     68  CD1       -1.6840  -24.3110   23.9250 C.ar  203  TYR203     -0.0009
     69  CD2       -3.7660  -24.0910   25.0820 C.ar  203  TYR203     -0.0009
     70  CE1       -1.4490  -22.9580   24.0890 C.ar  203  TYR203      0.0417
     71  CE2       -3.5380  -22.7300   25.2420 C.ar  203  TYR203      0.0417
     72  CZ        -2.3810  -22.1720   24.7440 C.ar  203  TYR203      0.1957
     73  OH        -2.1530  -20.8240   24.9080 O.3   203  TYR203     -0.2866
     74  N         -1.1010  -26.3540   27.0940 N.am  204  LEU204     -0.1977
     75  CA        -1.0600  -25.8810   28.4760 C.3   204  LEU204      0.1596
     76  C         -1.4340  -24.4080   28.4930 C.2   204  LEU204      0.2287
     77  O         -0.8150  -23.5970   27.8040 O.2   204  LEU204     -0.2864
     78  CB         0.3310  -26.0990   29.0830 C.3   204  LEU204      0.0297
     79  CG         0.8550  -27.5420   29.0320 C.3   204  LEU204      0.0022
     80  CD1        2.1660  -27.6470   29.7900 C.3   204  LEU204      0.0001
     81  CD2       -0.1570  -28.5320   29.5860 C.3   204  LEU204      0.0001
     82  N          1.3500  -21.9970   31.6190 N.3   207  PRO207     -0.2116
     83  CA         2.5830  -22.5630   32.1520 C.3   207  PRO207      0.1372
     84  C          3.6390  -21.4860   32.4030 C.2   207  PRO207      0.2244
     85  O          3.4960  -20.3620   31.9350 O.2   207  PRO207     -0.2868
     86  CB         3.0360  -23.4920   31.0220 C.3   207  PRO207      0.0268
     87  CG         2.6090  -22.7860   29.8020 C.3   207  PRO207      0.0207
     88  CD         1.2850  -22.1360   30.1550 C.3   207  PRO207      0.0892
     89  N          7.3240  -14.9710   22.2310 N.3   236  HIS236     -0.1241
     90  CA         8.2200  -16.1050   22.4860 C.3   236  HIS236      0.1621
     91  C          9.7060  -15.7490   22.6050 C.2   236  HIS236      0.2264
     92  O         10.5530  -16.6410   22.6880 O.2   236  HIS236     -0.2867
     93  CB         8.0000  -17.2030   21.4390 C.3   236  HIS236      0.0745
     94  CG         6.5610  -17.5850   21.2840 C.ar  236  HIS236      0.0817
     95  ND1        5.9390  -18.4910   22.1160 N.ar  236  HIS236     -0.2268
     96  CD2        5.6120  -17.1480   20.4250 C.ar  236  HIS236      0.1154
     97  CE1        4.6710  -18.6090   21.7640 C.ar  236  HIS236      0.1986
     98  NE2        4.4480  -17.8050   20.7400 N.ar  236  HIS236     -0.2212
     99  N          7.9140  -26.7330   30.0690 N.3   278  LEU278     -0.1245
    100  CA         6.7910  -25.9730   30.5850 C.3   278  LEU278      0.1561
    101  C          6.4630  -26.5350   31.9690 C.2   278  LEU278      0.2260
    102  O          6.4400  -27.7510   32.1690 O.2   278  LEU278     -0.2867
    103  CB         5.5910  -26.0560   29.6430 C.3   278  LEU278      0.0270
    104  CG         5.8290  -25.4990   28.2390 C.3   278  LEU278      0.0019
    105  CD1        4.6180  -25.7570   27.3670 C.3   278  LEU278      0.0001
    106  CD2        6.1680  -24.0210   28.2460 C.3   278  LEU278      0.0001
    107  N          9.6020  -29.7220   26.3390 N.3   287  ILE287     -0.1231
    108  CA         9.1980  -29.2790   24.9970 C.3   287  ILE287      0.1692
    109  C         10.3410  -29.3920   23.9900 C.2   287  ILE287      0.2591
    110  O         10.1210  -29.8740   22.8660 O.2   287  ILE287     -0.2718
    111  CB         8.5270  -27.8810   24.9940 C.3   287  ILE287      0.0266
    112  CG1        9.3560  -26.8460   25.7490 C.3   287  ILE287      0.0019
    113  CG2        7.1350  -27.9880   25.6250 C.3   287  ILE287      0.0020
    114  CD1        8.8390  -25.4190   25.6070 C.3   287  ILE287      0.0001
    115  N         11.5470  -28.9910   24.3950 N.am  288  GLU288     -0.1979
    116  CA        12.7120  -29.0560   23.5030 C.3   288  GLU288      0.1602
    117  C         14.0690  -28.9620   24.2200 C.2   288  GLU288      0.2287
    118  O         14.1630  -28.4950   25.3520 O.2   288  GLU288     -0.2864
    119  CB        12.6010  -27.9830   22.4210 C.3   288  GLU288      0.0415
    120  CG        12.3890  -26.5790   22.9160 C.3   288  GLU288      0.1163
    121  CD        11.7890  -25.6720   21.8350 C.2   288  GLU288      0.3649
    122  OE1       12.5240  -25.2830   20.9030 O.co2 288  GLU288     -0.2457
    123  OE2       10.5750  -25.3470   21.9200 O.co2 288  GLU288     -0.2457
    124  N          4.0330  -17.3600   31.2130 N.3   437  ILE437     -0.1231
    125  CA         4.5530  -16.9920   29.8940 C.3   437  ILE437      0.1692
    126  C          3.7010  -15.9460   29.1600 C.2   437  ILE437      0.2592
    127  O          4.1250  -15.4180   28.1400 O.2   437  ILE437     -0.2718
    128  CB         4.7720  -18.2470   28.9810 C.3   437  ILE437      0.0266
    129  CG1        3.4510  -18.9640   28.6790 C.3   437  ILE437      0.0019
    130  CG2        5.7600  -19.2210   29.6290 C.3   437  ILE437      0.0020
    131  CD1        3.5320  -19.9040   27.4990 C.3   437  ILE437      0.0001
    132  N          2.5180  -15.6430   29.6870 N.am  438  HIS438     -0.1976
    133  CA         1.6140  -14.6710   29.0700 C.3   438  HIS438      0.1656
    134  C          1.6560  -13.2990   29.7340 C.2   438  HIS438      0.2291
    135  O          1.0600  -12.3370   29.2270 O.2   438  HIS438     -0.2864
    136  CB         0.1760  -15.1780   29.1300 C.3   438  HIS438      0.0771
    137  CG        -0.0160  -16.5250   28.5130 C.ar  438  HIS438      0.0820
    138  ND1        0.2950  -16.7910   27.1980 N.ar  438  HIS438     -0.2267
    139  CD2       -0.4960  -17.6780   29.0290 C.ar  438  HIS438      0.1154
    140  CE1        0.0200  -18.0550   26.9350 C.ar  438  HIS438      0.1986
    141  NE2       -0.4600  -18.6160   28.0290 N.ar  438  HIS438     -0.2212
@<TRIPOS>BOND
     1    19    18    2
     2    18    17    1
     3    29    30    1
     4    32    31    2
     5    30    31    1
     6    30    33    1
     7    16    17    1
     8    17    20    1
     9    33    34    1
    10    20    21    1
    11    28    27    2
    12    40    39    2
    13    27    26    1
    14    37    38    1
    15    34    35    1
    16    39    38    1
    17    21    22    1
    18    10    11    2
    19    10     9    1
    20    36    35    1
    21    38    41    1
    22    26    25    1
    23     9     8    1
    24     9    12    1
    25    13    12    1
    26    13    15    1
    27    22    23    1
    28    41    43    1
    29    41    42    1
    30    23    24    1
    31    96    98   ar
    32    96    94   ar
    33    44    45    1
    34    98    97   ar
    35    12    14    1
    36   122   121   ar
    37    94    93    1
    38    94    95   ar
    39    93    90    1
    40    97    95   ar
    41   121   123   ar
    42   121   120    1
    43    45    48    1
    44    45    46    1
    45    47    46    2
    46    89    90    1
    47    49    48    1
    48    49    50    1
    49   119   120    1
    50   119   116    1
    51    90    91    1
    52    91    92    2
    53    46    53   am
    54   110   109    2
    55    50    51   ar
    56    50    52   ar
    57   116   117    1
    58   116   115    1
    59    68    70   ar
    60    68    67   ar
    61   109   115   am
    62   109   108    1
    63    53    54    1
    64    70    72   ar
    65   117   118    2
    66    66    67    1
    67    66    63    1
    68    67    69   ar
    69    72    73    1
    70    72    71   ar
    71    62    55   am
    72    62    63    1
    73    54    55    1
    74    54    57    1
    75   111   108    1
    76   111   113    1
    77   111   112    1
    78   108   107    1
    79    55    56    2
    80    63    64    1
    81    69    71   ar
    82   114   112    1
    83     4     3    2
    84    57    58    1
    85     5     6    1
    86     5     7    1
    87     5     2    1
    88    64    74   am
    89    64    65    2
    90     3     2    1
    91   140   138   ar
    92   140   141   ar
    93    59    58    1
    94    59    60    1
    95    74    75    1
    96   138   137   ar
    97     2     1    1
    98   105   104    1
    99   131   129    1
   100    77    76    2
   101   141   139   ar
   102    61    60    1
   103   127   126    2
   104   104   106    1
   105   104   103    1
   106    75    76    1
   107    75    78    1
   108   137   139   ar
   109   137   136    1
   110   129   128    1
   111   128   130    1
   112   128   125    1
   113    79    78    1
   114    79    81    1
   115    79    80    1
   116   133   136    1
   117   133   132    1
   118   133   134    1
   119   126   132   am
   120   126   125    1
   121   135   134    2
   122   103   100    1
   123    87    88    1
   124    87    86    1
   125   125   124    1
   126    99   100    1
   127    88    82    1
   128   100   101    1
   129    86    83    1
   130    82    83    1
   131    85    84    2
   132   101   102    2
   133    83    84    1
