@<TRIPOS>MOLECULE
tmp/2w70A00.pdb
 156 147 0 0 0
SMALL
GASTEIGER

@<TRIPOS>ATOM
      1  N          4.7900  -33.4740   27.5350 N.3   131  VAL131     -0.1245
      2  CA         3.3920  -33.0600   27.4110 C.3   131  VAL131      0.1561
      3  C          2.5920  -34.2260   26.8120 C.2   131  VAL131      0.2260
      4  O          3.0350  -34.8440   25.8450 O.2   131  VAL131     -0.2867
      5  CB         3.2160  -31.8040   26.5010 C.3   131  VAL131      0.0252
      6  CG1        1.7860  -31.3070   26.5580 C.3   131  VAL131      0.0019
      7  CG2        4.1620  -30.6630   26.8990 C.3   131  VAL131      0.0019
      8  N         -2.6300  -28.1860   20.7600 N.3   157  ILE157     -0.1245
      9  CA        -1.8000  -27.2790   19.9850 C.3   157  ILE157      0.1561
     10  C         -1.0420  -28.0890   18.9370 C.2   157  ILE157      0.2260
     11  O         -0.5380  -29.1840   19.2190 O.2   157  ILE157     -0.2867
     12  CB        -0.8530  -26.4510   20.8880 C.3   157  ILE157      0.0252
     13  CG1       -0.0190  -25.4730   20.0510 C.3   157  ILE157      0.0019
     14  CG2        0.0340  -27.3560   21.7370 C.3   157  ILE157      0.0019
     15  CD1        0.6700  -24.4130   20.8870 C.3   157  ILE157      0.0001
     16  N          2.0940  -28.2760   16.3840 N.3   159  LYS159     -0.1245
     17  CA         3.4590  -27.7660   16.3200 C.3   159  LYS159      0.1561
     18  C          4.2170  -28.4060   15.1600 C.2   159  LYS159      0.2260
     19  O          3.9710  -29.5540   14.8190 O.2   159  LYS159     -0.2867
     20  CB         4.1990  -28.0760   17.6290 C.3   159  LYS159      0.0271
     21  CG         3.5990  -27.4410   18.8770 C.3   159  LYS159      0.0035
     22  CD         4.4300  -27.8040   20.1090 C.3   159  LYS159      0.0206
     23  CE         4.0160  -27.0160   21.3420 C.3   159  LYS159      0.1093
     24  NZ         4.9630  -27.2470   22.4640 N.3   159  LYS159     -0.1314
     25  N         11.2800  -22.8200   19.4390 N.3   165  GLY165     -0.1210
     26  CA        11.1580  -21.4920   20.0450 C.3   165  GLY165      0.1956
     27  C          9.7550  -20.9130   20.0600 C.2   165  GLY165      0.2612
     28  O          9.5890  -19.6970   20.1310 O.2   165  GLY165     -0.2717
     29  N          8.7500  -21.7830   19.9940 N.am  166  GLY166     -0.1956
     30  CA         7.3520  -21.3670   20.0200 C.3   166  GLY166      0.1869
     31  C          6.8390  -20.7910   18.7120 C.2   166  GLY166      0.2309
     32  O          5.7590  -20.2000   18.6780 O.2   166  GLY166     -0.2863
     33  N          3.0020  -22.0950   15.5980 N.3   169  MET169     -0.1245
     34  CA         2.1060  -23.0750   16.2100 C.3   169  MET169      0.1570
     35  C          0.6820  -22.5590   16.1660 C.2   169  MET169      0.2261
     36  O          0.4660  -21.3570   16.0810 O.2   169  MET169     -0.2867
     37  CB         2.4810  -23.2880   17.6730 C.3   169  MET169      0.0387
     38  CG         3.9700  -23.4300   17.9310 C.3   169  MET169      0.0595
     39  SD         4.3210  -23.6960   19.6770 S.3   169  MET169     -0.1393
     40  CE         3.7190  -22.1760   20.3970 C.3   169  MET169      0.0692
     41  N          0.0430  -31.6540   20.8350 N.3   201  GLU201     -0.1231
     42  CA         0.2210  -31.7130   22.2850 C.3   201  GLU201      0.1699
     43  C         -1.0170  -31.1500   22.9520 C.2   201  GLU201      0.2592
     44  O         -1.7550  -30.3680   22.3540 O.2   201  GLU201     -0.2718
     45  CB         1.4330  -30.8770   22.7230 C.3   201  GLU201      0.0402
     46  CG         2.7730  -31.5000   22.3760 C.3   201  GLU201      0.1161
     47  CD         3.9680  -30.7240   22.9220 C.2   201  GLU201      0.3649
     48  OE1        5.0840  -31.2940   22.9300 O.co2 201  GLU201     -0.2457
     49  OE2        3.8100  -29.5580   23.3290 O.co2 201  GLU201     -0.2457
     50  N         -1.2360  -31.5560   24.1940 N.am  202  LYS202     -0.1966
     51  CA        -2.2000  -30.8990   25.0560 C.3   202  LYS202      0.1728
     52  C         -1.7770  -29.4390   25.1820 C.2   202  LYS202      0.2616
     53  O         -0.5910  -29.1600   25.3730 O.2   202  LYS202     -0.2715
     54  CB        -2.1800  -31.5490   26.4430 C.3   202  LYS202      0.0311
     55  CG        -3.1180  -30.9210   27.4560 C.3   202  LYS202      0.0038
     56  CD        -4.5600  -31.1300   27.0570 C.3   202  LYS202      0.0206
     57  CE        -5.4990  -30.7670   28.1850 C.3   202  LYS202      0.1093
     58  NZ        -6.8990  -30.7230   27.7100 N.3   202  LYS202     -0.1314
     59  N         -2.7230  -28.5120   25.0740 N.am  203  TYR203     -0.1960
     60  CA        -2.4010  -27.1020   25.2390 C.3   203  TYR203      0.1771
     61  C         -2.5200  -26.6930   26.7060 C.2   203  TYR203      0.2619
     62  O         -3.6090  -26.7410   27.2830 O.2   203  TYR203     -0.2715
     63  CB        -3.2940  -26.2200   24.3690 C.3   203  TYR203      0.0574
     64  CG        -2.9760  -24.7520   24.5090 C.ar  203  TYR203     -0.0198
     65  CD1       -1.7440  -24.2460   24.0900 C.ar  203  TYR203     -0.0009
     66  CD2       -3.8910  -23.8690   25.0810 C.ar  203  TYR203     -0.0009
     67  CE1       -1.4400  -22.8990   24.2240 C.ar  203  TYR203      0.0417
     68  CE2       -3.5960  -22.5160   25.2130 C.ar  203  TYR203      0.0417
     69  CZ        -2.3690  -22.0410   24.7840 C.ar  203  TYR203      0.1957
     70  OH        -2.0690  -20.7040   24.9090 O.3   203  TYR203     -0.2866
     71  N         -1.3960  -26.2930   27.3020 N.am  204  LEU204     -0.1977
     72  CA        -1.3890  -25.7460   28.6610 C.3   204  LEU204      0.1596
     73  C         -1.7010  -24.2490   28.6390 C.2   204  LEU204      0.2287
     74  O         -1.0310  -23.4630   27.9600 O.2   204  LEU204     -0.2864
     75  CB        -0.0430  -25.9940   29.3470 C.3   204  LEU204      0.0297
     76  CG         0.4800  -27.4320   29.3590 C.3   204  LEU204      0.0022
     77  CD1        1.7370  -27.4870   30.2080 C.3   204  LEU204      0.0001
     78  CD2       -0.5380  -28.4220   29.8710 C.3   204  LEU204      0.0001
     79  N          1.1780  -21.8750   31.6460 N.3   207  PRO207     -0.2116
     80  CA         2.4190  -22.4150   32.1790 C.3   207  PRO207      0.1372
     81  C          3.4900  -21.3490   32.3770 C.2   207  PRO207      0.2244
     82  O          3.3670  -20.2340   31.8690 O.2   207  PRO207     -0.2868
     83  CB         2.8470  -23.4120   31.0950 C.3   207  PRO207      0.0268
     84  CG         2.3680  -22.7910   29.8460 C.3   207  PRO207      0.0207
     85  CD         1.0680  -22.1090   30.1940 C.3   207  PRO207      0.0892
     86  N          8.2130  -12.8580   28.4440 N.3   233  GLN233     -0.1245
     87  CA         8.4280  -12.9600   26.9980 C.3   233  GLN233      0.1566
     88  C          7.5690  -12.0020   26.1840 C.2   233  GLN233      0.2260
     89  O          6.5120  -11.5700   26.6320 O.2   233  GLN233     -0.2867
     90  CB         8.1020  -14.3790   26.5190 C.3   233  GLN233      0.0367
     91  CG         8.9410  -15.4560   27.1430 C.3   233  GLN233      0.0905
     92  CD         8.5440  -16.8510   26.7220 C.2   233  GLN233      0.2608
     93  OE1        7.7840  -17.0490   25.7590 O.2   233  GLN233     -0.2717
     94  NE2        9.0720  -17.8400   27.4340 N.am  233  GLN233     -0.0878
     95  N          7.2200  -14.8460   22.0290 N.3   236  HIS236     -0.1241
     96  CA         8.0450  -16.0260   22.3410 C.3   236  HIS236      0.1621
     97  C          9.5280  -15.7260   22.5490 C.2   236  HIS236      0.2264
     98  O         10.3300  -16.6530   22.6920 O.2   236  HIS236     -0.2867
     99  CB         7.8650  -17.1320   21.2920 C.3   236  HIS236      0.0745
    100  CG         6.4360  -17.5070   21.0710 C.ar  236  HIS236      0.0817
    101  ND1        5.6960  -18.1880   22.0120 N.ar  236  HIS236     -0.2268
    102  CD2        5.6030  -17.2740   20.0310 C.ar  236  HIS236      0.1154
    103  CE1        4.4680  -18.3650   21.5570 C.ar  236  HIS236      0.1986
    104  NE2        4.3860  -17.8220   20.3560 N.ar  236  HIS236     -0.2212
    105  N         14.1900  -27.5930   28.0110 N.3   276  GLU276     -0.1245
    106  CA        13.0810  -26.6480   28.2270 C.3   276  GLU276      0.1567
    107  C         11.8190  -27.3790   28.6680 C.2   276  GLU276      0.2260
    108  O         11.4030  -28.3530   28.0230 O.2   276  GLU276     -0.2867
    109  CB        12.7220  -25.8990   26.9420 C.3   276  GLU276      0.0388
    110  CG        13.7350  -24.9120   26.4340 C.3   276  GLU276      0.1160
    111  CD        13.2420  -24.1700   25.1880 C.2   276  GLU276      0.3649
    112  OE1       12.0280  -24.2390   24.8410 O.co2 276  GLU276     -0.2457
    113  OE2       14.0710  -23.5050   24.5500 O.co2 276  GLU276     -0.2457
    114  N          7.6560  -26.7520   30.1870 N.3   278  LEU278     -0.1245
    115  CA         6.5160  -26.0060   30.6950 C.3   278  LEU278      0.1561
    116  C          6.2500  -26.5340   32.1030 C.2   278  LEU278      0.2260
    117  O          6.2820  -27.7540   32.3410 O.2   278  LEU278     -0.2867
    118  CB         5.2890  -26.2020   29.8050 C.3   278  LEU278      0.0270
    119  CG         5.4560  -25.8060   28.3360 C.3   278  LEU278      0.0019
    120  CD1        4.2060  -26.1890   27.5490 C.3   278  LEU278      0.0001
    121  CD2        5.7700  -24.3310   28.1950 C.3   278  LEU278      0.0001
    122  N          9.3630  -29.8380   26.5110 N.3   287  ILE287     -0.1231
    123  CA         8.9370  -29.4240   25.1640 C.3   287  ILE287      0.1692
    124  C         10.0380  -29.5250   24.1080 C.2   287  ILE287      0.2591
    125  O          9.7760  -29.9780   22.9870 O.2   287  ILE287     -0.2718
    126  CB         8.2630  -28.0240   25.1470 C.3   287  ILE287      0.0266
    127  CG1        9.0440  -26.9920   25.9690 C.3   287  ILE287      0.0019
    128  CG2        6.8350  -28.1410   25.6590 C.3   287  ILE287      0.0020
    129  CD1        8.6160  -25.5640   25.6970 C.3   287  ILE287      0.0001
    130  N         11.2490  -29.0990   24.4510 N.am  288  GLU288     -0.1979
    131  CA        12.3740  -29.1590   23.5230 C.3   288  GLU288      0.1602
    132  C         13.7100  -28.9580   24.2190 C.2   288  GLU288      0.2287
    133  O         13.7720  -28.4560   25.3480 O.2   288  GLU288     -0.2864
    134  CB        12.2240  -28.1320   22.3930 C.3   288  GLU288      0.0415
    135  CG        12.0120  -26.6960   22.8000 C.3   288  GLU288      0.1163
    136  CD        11.4840  -25.8500   21.6310 C.2   288  GLU288      0.3649
    137  OE1       12.2660  -25.0630   21.0670 O.co2 288  GLU288     -0.2457
    138  OE2       10.2990  -26.0080   21.2510 O.co2 288  GLU288     -0.2457
    139  N          3.8500  -17.3870   31.1390 N.3   437  ILE437     -0.1231
    140  CA         4.4230  -17.0270   29.8320 C.3   437  ILE437      0.1692
    141  C          3.6390  -15.9510   29.0630 C.2   437  ILE437      0.2592
    142  O          4.1340  -15.4240   28.0680 O.2   437  ILE437     -0.2718
    143  CB         4.6620  -18.2750   28.9210 C.3   437  ILE437      0.0266
    144  CG1        3.3570  -19.0140   28.5960 C.3   437  ILE437      0.0019
    145  CG2        5.6710  -19.2340   29.5760 C.3   437  ILE437      0.0020
    146  CD1        3.5140  -20.0550   27.5090 C.3   437  ILE437      0.0001
    147  N          2.4220  -15.6480   29.5220 N.am  438  HIS438     -0.1976
    148  CA         1.5540  -14.6510   28.8940 C.3   438  HIS438      0.1656
    149  C          1.5600  -13.3070   29.6090 C.2   438  HIS438      0.2291
    150  O          0.9400  -12.3500   29.1330 O.2   438  HIS438     -0.2864
    151  CB         0.1170  -15.1770   28.8640 C.3   438  HIS438      0.0771
    152  CG        -0.0120  -16.5080   28.2060 C.ar  438  HIS438      0.0820
    153  ND1        0.2050  -16.6890   26.8580 N.ar  438  HIS438     -0.2267
    154  CD2       -0.3110  -17.7280   28.7100 C.ar  438  HIS438      0.1154
    155  CE1        0.0310  -17.9650   26.5580 C.ar  438  HIS438      0.1986
    156  NE2       -0.2770  -18.6170   27.6650 N.ar  438  HIS438     -0.2212
@<TRIPOS>BOND
     1    19    18    2
     2    18    17    1
     3    33    34    1
     4    36    35    2
     5    35    34    1
     6    34    37    1
     7    17    16    1
     8    17    20    1
     9    20    21    1
    10    37    38    1
    11    38    39    1
    12    32    31    2
    13    31    30    1
    14    21    22    1
    15    10    11    2
    16    10     9    1
    17    25    26    1
    18    39    40    1
    19     9     8    1
    20     9    12    1
    21    29    30    1
    22    29    27   am
    23   102   104   ar
    24   102   100   ar
    25    26    27    1
    26    13    15    1
    27    13    12    1
    28    27    28    2
    29    22    23    1
    30   104   103   ar
    31    41    42    1
    32    12    14    1
    33   137   136   ar
    34   100    99    1
    35   100   101   ar
    36   138   136   ar
    37    99    96    1
    38    23    24    1
    39   103   101   ar
    40   136   135    1
    41    95    96    1
    42    42    45    1
    43    42    43    1
    44    96    97    1
    45    44    43    2
    46    46    45    1
    47    46    47    1
    48   134   135    1
    49   134   131    1
    50    97    98    2
    51    47    48   ar
    52    47    49   ar
    53    43    50   am
    54   125   124    2
    55   131   132    1
    56   131   130    1
    57    65    67   ar
    58    65    64   ar
    59   124   130   am
    60   124   123    1
    61    50    51    1
    62   132   133    2
    63    67    69   ar
    64    63    64    1
    65    63    60    1
    66    64    66   ar
    67   113   111   ar
    68    69    70    1
    69    69    68   ar
    70   112   111   ar
    71    51    52    1
    72    51    54    1
    73    59    52   am
    74    59    60    1
    75    66    68   ar
    76   126   123    1
    77   126   128    1
    78   126   127    1
    79   123   122    1
    80    52    53    2
    81   111   110    1
    82    60    61    1
    83   129   127    1
    84    93    92    2
    85     4     3    2
    86    88    89    2
    87    88    87    1
    88   110   109    1
    89    54    55    1
    90     5     6    1
    91     5     7    1
    92     5     2    1
    93    90    87    1
    94    90    91    1
    95   155   153   ar
    96   155   156   ar
    97    61    62    2
    98    61    71   am
    99    92    91    1
   100    92    94   am
   101     3     2    1
   102   153   152   ar
   103   109   106    1
   104    87    86    1
   105    56    55    1
   106    56    57    1
   107    71    72    1
   108     2     1    1
   109   146   144    1
   110   120   119    1
   111   156   154   ar
   112    58    57    1
   113    74    73    2
   114   105   106    1
   115   108   107    2
   116   142   141    2
   117   121   119    1
   118   152   154   ar
   119   152   151    1
   120   106   107    1
   121   119   118    1
   122   144   143    1
   123    73    72    1
   124    72    75    1
   125   151   148    1
   126   148   147    1
   127   148   149    1
   128   143   145    1
   129   143   140    1
   130   141   147   am
   131   141   140    1
   132   150   149    2
   133    75    76    1
   134    76    78    1
   135    76    77    1
   136   118   115    1
   137   140   139    1
   138    84    85    1
   139    84    83    1
   140   114   115    1
   141    85    79    1
   142   115   116    1
   143    83    80    1
   144    79    80    1
   145    82    81    2
   146   116   117    2
   147    80    81    1
