@<TRIPOS>MOLECULE
tmp/2w71A00.pdb
 166 157 0 0 0
SMALL
GASTEIGER

@<TRIPOS>ATOM
      1  N         35.4540   33.8150   26.7060 N.3   131  VAL131     -0.1245
      2  CA        36.8710   33.4680   26.6310 C.3   131  VAL131      0.1561
      3  C         37.6230   34.6990   26.1140 C.2   131  VAL131      0.2260
      4  O         37.1530   35.3510   25.1710 O.2   131  VAL131     -0.2867
      5  CB        37.1210   32.2700   25.6760 C.3   131  VAL131      0.0252
      6  CG1       38.5900   31.8360   25.7100 C.3   131  VAL131      0.0019
      7  CG2       36.2170   31.0820   26.0220 C.3   131  VAL131      0.0019
      8  N         43.3640   29.2310   20.1970 N.3   157  ILE157     -0.1245
      9  CA        42.6240   28.3220   19.3330 C.3   157  ILE157      0.1561
     10  C         41.9170   29.1110   18.2290 C.2   157  ILE157      0.2260
     11  O         41.3520   30.1740   18.4750 O.2   157  ILE157     -0.2867
     12  CB        41.6400   27.4030   20.1480 C.3   157  ILE157      0.0252
     13  CG1       40.9990   26.3350   19.2430 C.3   157  ILE157      0.0019
     14  CG2       40.5850   28.2280   20.8960 C.3   157  ILE157      0.0019
     15  CD1       40.4320   25.1250   19.9940 C.3   157  ILE157      0.0001
     16  N         38.8900   29.1310   15.6010 N.3   159  LYS159     -0.1245
     17  CA        37.5670   28.5340   15.4800 C.3   159  LYS159      0.1561
     18  C         36.8230   29.1480   14.3070 C.2   159  LYS159      0.2260
     19  O         36.9950   30.3330   14.0130 O.2   159  LYS159     -0.2867
     20  CB        36.7560   28.7840   16.7540 C.3   159  LYS159      0.0271
     21  CG        37.2820   28.1140   18.0120 C.3   159  LYS159      0.0035
     22  CD        36.3370   28.3830   19.1780 C.3   159  LYS159      0.0206
     23  CE        36.6240   27.4780   20.3590 C.3   159  LYS159      0.1093
     24  NZ        35.6330   27.7200   21.4610 N.3   159  LYS159     -0.1314
     25  N         29.4880   22.6480   17.7220 N.3   165  GLY165     -0.1210
     26  CA        29.8690   21.4580   18.4950 C.3   165  GLY165      0.1956
     27  C         31.3560   21.1820   18.6820 C.2   165  GLY165      0.2612
     28  O         31.7340   20.3200   19.4850 O.2   165  GLY165     -0.2717
     29  N         32.1970   21.9070   17.9460 N.am  166  GLY166     -0.1956
     30  CA        33.6430   21.7090   17.9960 C.3   166  GLY166      0.1869
     31  C         34.2210   21.3150   16.6510 C.2   166  GLY166      0.2309
     32  O         35.3230   20.7670   16.5730 O.2   166  GLY166     -0.2863
     33  N         38.5620   23.0340   14.3870 N.3   169  MET169     -0.1245
     34  CA        39.3500   24.0410   15.1000 C.3   169  MET169      0.1570
     35  C         40.7840   23.5650   15.3030 C.2   169  MET169      0.2261
     36  O         41.0460   22.3600   15.3170 O.2   169  MET169     -0.2867
     37  CB        38.6940   24.4540   16.4330 C.3   169  MET169      0.0387
     38  CG        37.9910   23.3410   17.2120 C.3   169  MET169      0.0595
     39  SD        36.9640   23.9470   18.5820 S.3   169  MET169     -0.1393
     40  CE        35.6890   24.8370   17.7050 C.3   169  MET169      0.0692
     41  N         40.3910   32.4350   20.1870 N.3   201  GLU201     -0.1231
     42  CA        40.1770   32.4020   21.6260 C.3   201  GLU201      0.1699
     43  C         41.4210   31.8760   22.3240 C.2   201  GLU201      0.2592
     44  O         42.1890   31.1180   21.7370 O.2   201  GLU201     -0.2718
     45  CB        38.9930   31.4980   21.9780 C.3   201  GLU201      0.0402
     46  CG        37.6180   32.1050   21.7030 C.3   201  GLU201      0.1161
     47  CD        36.4880   31.1600   22.0500 C.2   201  GLU201      0.3649
     48  OE1       35.3160   31.5960   22.0230 O.co2 201  GLU201     -0.2457
     49  OE2       36.7720   29.9830   22.3560 O.co2 201  GLU201     -0.2457
     50  N         41.6030   32.2860   23.5780 N.am  202  LYS202     -0.1966
     51  CA        42.5510   31.6430   24.4800 C.3   202  LYS202      0.1728
     52  C         42.1960   30.1670   24.5600 C.2   202  LYS202      0.2616
     53  O         41.0260   29.8120   24.7150 O.2   202  LYS202     -0.2715
     54  CB        42.4640   32.2770   25.8720 C.3   202  LYS202      0.0311
     55  CG        43.3600   31.6500   26.9420 C.3   202  LYS202      0.0038
     56  CD        44.7960   32.0620   26.7630 C.3   202  LYS202      0.0206
     57  CE        45.6610   31.6080   27.9190 C.3   202  LYS202      0.1093
     58  NZ        47.0070   32.2010   27.7950 N.3   202  LYS202     -0.1314
     59  N         43.2010   29.3110   24.4320 N.am  203  TYR203     -0.1960
     60  CA        42.9690   27.8840   24.5270 C.3   203  TYR203      0.1771
     61  C         43.0400   27.4360   25.9830 C.2   203  TYR203      0.2619
     62  O         44.0520   27.6360   26.6500 O.2   203  TYR203     -0.2715
     63  CB        43.9620   27.0980   23.6640 C.3   203  TYR203      0.0574
     64  CG        43.7160   25.6120   23.7100 C.ar  203  TYR203     -0.0198
     65  CD1       42.5360   25.0720   23.2020 C.ar  203  TYR203     -0.0009
     66  CD2       44.6500   24.7460   24.2760 C.ar  203  TYR203     -0.0009
     67  CE1       42.2950   23.7110   23.2430 C.ar  203  TYR203      0.0417
     68  CE2       44.4200   23.3730   24.3210 C.ar  203  TYR203      0.0417
     69  CZ        43.2390   22.8650   23.8050 C.ar  203  TYR203      0.1957
     70  OH        42.9870   21.5110   23.8450 O.3   203  TYR203     -0.2866
     71  N         41.9530   26.8450   26.4710 N.am  204  LEU204     -0.1977
     72  CA        41.9160   26.3080   27.8350 C.3   204  LEU204      0.1596
     73  C         42.2860   24.8300   27.8100 C.2   204  LEU204      0.2287
     74  O         41.6520   24.0360   27.1130 O.2   204  LEU204     -0.2864
     75  CB        40.5400   26.5310   28.4760 C.3   204  LEU204      0.0297
     76  CG        39.9650   27.9570   28.4570 C.3   204  LEU204      0.0022
     77  CD1       38.5670   27.9800   29.0520 C.3   204  LEU204      0.0001
     78  CD2       40.8730   28.9590   29.1790 C.3   204  LEU204      0.0001
     79  N         39.4520   22.1820   30.5520 N.3   207  PRO207     -0.2116
     80  CA        38.2320   22.7680   31.0900 C.3   207  PRO207      0.1372
     81  C         37.1460   21.7260   31.3160 C.2   207  PRO207      0.2244
     82  O         37.2230   20.6260   30.7790 O.2   207  PRO207     -0.2868
     83  CB        37.7940   23.7230   29.9750 C.3   207  PRO207      0.0268
     84  CG        38.2310   23.0340   28.7230 C.3   207  PRO207      0.0207
     85  CD        39.4950   22.2700   29.0760 C.3   207  PRO207      0.0892
     86  N         32.9720   21.1450   30.7090 N.3   209  HIS209     -0.1241
     87  CA        31.8820   21.6560   29.8920 C.3   209  HIS209      0.1621
     88  C         30.6550   21.8120   30.7780 C.2   209  HIS209      0.2264
     89  O         30.0560   20.8210   31.2090 O.2   209  HIS209     -0.2867
     90  CB        31.6130   20.7250   28.7080 C.3   209  HIS209      0.0745
     91  CG        30.7500   21.3280   27.6450 C.ar  209  HIS209      0.0817
     92  ND1       30.0680   20.5640   26.7250 N.ar  209  HIS209     -0.2268
     93  CD2       30.4620   22.6200   27.3510 C.ar  209  HIS209      0.1154
     94  CE1       29.3920   21.3570   25.9120 C.ar  209  HIS209      0.1986
     95  NE2       29.6150   22.6090   26.2700 N.ar  209  HIS209     -0.2212
     96  N         32.4760   12.7830   27.5790 N.3   233  GLN233     -0.1245
     97  CA        32.1810   12.7820   26.1520 C.3   233  GLN233      0.1566
     98  C         33.2780   12.1070   25.3210 C.2   233  GLN233      0.2260
     99  O         34.4310   12.0380   25.7380 O.2   233  GLN233     -0.2867
    100  CB        31.9500   14.2240   25.6610 C.3   233  GLN233      0.0367
    101  CG        33.1690   15.1500   25.7460 C.3   233  GLN233      0.0905
    102  CD        34.0300   15.1170   24.4910 C.2   233  GLN233      0.2608
    103  OE1       33.5160   15.0470   23.3740 O.2   233  GLN233     -0.2717
    104  NE2       35.3460   15.1690   24.6710 N.am  233  GLN233     -0.0878
    105  N         33.2430   14.5040   20.3960 N.3   236  HIS236     -0.1241
    106  CA        32.1960   15.5420   20.2940 C.3   236  HIS236      0.1621
    107  C         30.7780   15.0630   20.6240 C.2   236  HIS236      0.2264
    108  O         29.8140   15.8110   20.4400 O.2   236  HIS236     -0.2867
    109  CB        32.2060   16.2490   18.9260 C.3   236  HIS236      0.0745
    110  CG        33.5600   16.7080   18.4820 C.ar  236  HIS236      0.0817
    111  ND1       34.1900   17.8080   19.0220 N.ar  236  HIS236     -0.2268
    112  CD2       34.3980   16.2220   17.5340 C.ar  236  HIS236      0.1154
    113  CE1       35.3620   17.9750   18.4340 C.ar  236  HIS236      0.1986
    114  NE2       35.5130   17.0260   17.5280 N.ar  236  HIS236     -0.2212
    115  N         26.2840   27.6430   26.7990 N.3   276  GLU276     -0.1245
    116  CA        27.3960   26.7100   27.0080 C.3   276  GLU276      0.1567
    117  C         28.6210   27.4880   27.4680 C.2   276  GLU276      0.2260
    118  O         28.9880   28.4870   26.8490 O.2   276  GLU276     -0.2867
    119  CB        27.7620   25.9490   25.7250 C.3   276  GLU276      0.0388
    120  CG        26.7230   24.9740   25.1950 C.3   276  GLU276      0.1160
    121  CD        27.2780   24.0750   24.0950 C.2   276  GLU276      0.3649
    122  OE1       28.5210   24.0130   23.9120 O.co2 276  GLU276     -0.2457
    123  OE2       26.4750   23.4170   23.4100 O.co2 276  GLU276     -0.2457
    124  N         32.8130   27.0320   29.0960 N.3   278  LEU278     -0.1245
    125  CA        33.9350   26.2590   29.5720 C.3   278  LEU278      0.1561
    126  C         34.2250   26.7500   30.9820 C.2   278  LEU278      0.2260
    127  O         34.1290   27.9510   31.2660 O.2   278  LEU278     -0.2867
    128  CB        35.1570   26.4330   28.6760 C.3   278  LEU278      0.0270
    129  CG        35.0430   26.0270   27.2050 C.3   278  LEU278      0.0019
    130  CD1       36.3550   26.3290   26.5320 C.3   278  LEU278      0.0001
    131  CD2       34.6890   24.5530   27.0220 C.3   278  LEU278      0.0001
    132  N         31.1310   30.0930   25.4130 N.3   287  ILE287     -0.1231
    133  CA        31.6060   29.6960   24.0900 C.3   287  ILE287      0.1692
    134  C         30.5190   29.7700   23.0180 C.2   287  ILE287      0.2591
    135  O         30.7900   30.2040   21.9010 O.2   287  ILE287     -0.2718
    136  CB        32.3350   28.3260   24.0760 C.3   287  ILE287      0.0266
    137  CG1       31.5420   27.2420   24.8210 C.3   287  ILE287      0.0019
    138  CG2       33.7450   28.4820   24.6650 C.3   287  ILE287      0.0020
    139  CD1       32.0150   25.8280   24.5080 C.3   287  ILE287      0.0001
    140  N         29.3040   29.3440   23.3640 N.am  288  GLU288     -0.1979
    141  CA        28.1790   29.3450   22.4160 C.3   288  GLU288      0.1602
    142  C         26.8280   29.1090   23.0930 C.2   288  GLU288      0.2287
    143  O         26.7630   28.6240   24.2230 O.2   288  GLU288     -0.2864
    144  CB        28.4060   28.3390   21.2810 C.3   288  GLU288      0.0415
    145  CG        28.5130   26.8960   21.7150 C.3   288  GLU288      0.1163
    146  CD        29.0820   26.0180   20.6180 C.2   288  GLU288      0.3649
    147  OE1       28.2890   25.3060   19.9790 O.co2 288  GLU288     -0.2457
    148  OE2       30.3160   26.0480   20.3850 O.co2 288  GLU288     -0.2457
    149  N         36.9000   17.6250   30.0730 N.3   437  ILE437     -0.1231
    150  CA        36.3740   17.2050   28.7620 C.3   437  ILE437      0.1692
    151  C         37.2250   16.1330   28.0520 C.2   437  ILE437      0.2592
    152  O         36.7450   15.4480   27.1460 O.2   437  ILE437     -0.2718
    153  CB        36.1450   18.4120   27.8000 C.3   437  ILE437      0.0266
    154  CG1       37.4720   19.1010   27.4400 C.3   437  ILE437      0.0019
    155  CG2       35.1070   19.3920   28.3870 C.3   437  ILE437      0.0020
    156  CD1       37.4080   20.0030   26.2040 C.3   437  ILE437      0.0001
    157  N         38.4800   15.9950   28.4630 N.am  438  HIS438     -0.1976
    158  CA        39.3900   15.0490   27.8230 C.3   438  HIS438      0.1656
    159  C         39.3970   13.6880   28.5110 C.2   438  HIS438      0.2291
    160  O         40.0310   12.7560   28.0180 O.2   438  HIS438     -0.2864
    161  CB        40.8160   15.6180   27.7710 C.3   438  HIS438      0.0771
    162  CG        40.8980   16.9940   27.1860 C.ar  438  HIS438      0.0820
    163  ND1       40.5930   17.2610   25.8690 N.ar  438  HIS438     -0.2267
    164  CD2       41.2460   18.1790   27.7410 C.ar  438  HIS438      0.1154
    165  CE1       40.7490   18.5530   25.6370 C.ar  438  HIS438      0.1986
    166  NE2       41.1470   19.1310   26.7570 N.ar  438  HIS438     -0.2212
@<TRIPOS>BOND
     1    19    18    2
     2    18    17    1
     3    33    34    1
     4    34    35    1
     5    34    37    1
     6    35    36    2
     7    17    16    1
     8    17    20    1
     9    37    38    1
    10    32    31    2
    11    31    30    1
    12    20    21    1
    13    38    39    1
    14   114   112   ar
    15   114   113   ar
    16   112   110   ar
    17    40    39    1
    18    25    26    1
    19    29    30    1
    20    29    27   am
    21    21    22    1
    22    10    11    2
    23    10     9    1
    24   113   111   ar
    25   110   109    1
    26   110   111   ar
    27    26    27    1
    28    27    28    2
    29   109   106    1
    30    22    23    1
    31    13    15    1
    32    13    12    1
    33     9    12    1
    34     9     8    1
    35   147   146   ar
    36    12    14    1
    37    41    42    1
    38   106   105    1
    39   106   107    1
    40    23    24    1
    41   148   146   ar
    42   108   107    2
    43   146   145    1
    44   144   145    1
    45   144   141    1
    46    42    45    1
    47    42    43    1
    48    46    45    1
    49    46    47    1
    50    44    43    2
    51   135   134    2
    52    48    47   ar
    53    47    49   ar
    54    43    50   am
    55   141   142    1
    56   141   140    1
    57   134   140   am
    58   134   133    1
    59   142   143    2
    60    65    67   ar
    61    65    64   ar
    62    67    69   ar
    63   103   102    2
    64   123   121   ar
    65    50    51    1
    66    63    64    1
    67    63    60    1
    68    64    66   ar
    69    69    70    1
    70    69    68   ar
    71   122   121   ar
    72   136   133    1
    73   136   138    1
    74   136   137    1
    75   133   132    1
    76   121   120    1
    77    66    68   ar
    78    59    60    1
    79    59    52   am
    80    51    52    1
    81    51    54    1
    82   102   104   am
    83   102   101    1
    84   139   137    1
    85    60    61    1
    86    52    53    2
    87     4     3    2
    88   120   119    1
    89    98    99    2
    90    98    97    1
    91   165   163   ar
    92   165   166   ar
    93   100   101    1
    94   100    97    1
    95     5     6    1
    96     5     7    1
    97     5     2    1
    98   119   116    1
    99   163   162   ar
   100    54    55    1
   101    94    95   ar
   102    94    92   ar
   103    61    71   am
   104    61    62    2
   105     3     2    1
   106    97    96    1
   107   156   154    1
   108    95    93   ar
   109    71    72    1
   110   130   129    1
   111     2     1    1
   112    92    91   ar
   113   166   164   ar
   114    56    55    1
   115    56    57    1
   116   115   116    1
   117   118   117    2
   118   116   117    1
   119   131   129    1
   120    74    73    2
   121   152   151    2
   122   162   164   ar
   123   162   161    1
   124   129   128    1
   125    93    91   ar
   126   154   153    1
   127    91    90    1
   128   161   158    1
   129    58    57    1
   130   153   155    1
   131   153   150    1
   132    73    72    1
   133   158   157    1
   134   158   159    1
   135    72    75    1
   136   160   159    2
   137   151   157   am
   138   151   150    1
   139    76    75    1
   140    76    77    1
   141    76    78    1
   142   128   125    1
   143    90    87    1
   144    84    85    1
   145    84    83    1
   146   150   149    1
   147    85    79    1
   148   124   125    1
   149   125   126    1
   150    87    86    1
   151    87    88    1
   152    83    80    1
   153    79    80    1
   154    88    89    2
   155    82    81    2
   156   126   127    2
   157    80    81    1
