@<TRIPOS>MOLECULE
tmp/2w73C00.pdb
 150 141 0 0 0
SMALL
GASTEIGER

@<TRIPOS>ATOM
      1  N         10.7630   43.7450    2.6700 N.3    82  GLU82      -0.1231
      2  CA        12.0400   43.8190    1.9540 C.3    82  GLU82       0.1699
      3  C         13.0090   44.7440    2.6570 C.2    82  GLU82       0.2592
      4  O         14.2030   44.4790    2.7470 O.2    82  GLU82      -0.2718
      5  CB        11.8690   44.2910    0.5230 C.3    82  GLU82       0.0402
      6  CG        11.3160   43.2380   -0.4340 C.3    82  GLU82       0.1161
      7  CD        10.9790   43.8360   -1.8240 C.2    82  GLU82       0.3649
      8  OE1       11.6110   44.8490   -2.2550 O.co2  82  GLU82      -0.2457
      9  OE2       10.0840   43.2850   -2.4880 O.co2  82  GLU82      -0.2457
     10  N         12.4750   45.8400    3.1570 N.am   83  ILE83      -0.1980
     11  CA        13.3510   46.8490    3.8310 C.3    83  ILE83       0.1595
     12  C         13.9010   46.2620    5.1440 C.2    83  ILE83       0.2287
     13  O         15.0660   46.3770    5.4860 O.2    83  ILE83      -0.2864
     14  CB        12.6620   48.2010    4.0130 C.3    83  ILE83       0.0276
     15  CG1       12.6000   48.9130    2.6650 C.3    83  ILE83       0.0022
     16  CG2       13.4460   49.1040    4.9090 C.3    83  ILE83       0.0022
     17  CD1       11.6320   50.0280    2.6370 C.3    83  ILE83       0.0001
     18  N         14.1720   43.0990    5.8730 N.3    85  GLU85      -0.1231
     19  CA        15.1300   42.0710    5.5370 C.3    85  GLU85       0.1699
     20  C         16.4770   42.5950    5.1550 C.2    85  GLU85       0.2592
     21  O         17.5060   42.0480    5.5280 O.2    85  GLU85      -0.2718
     22  CB        14.6070   41.1060    4.4850 C.3    85  GLU85       0.0402
     23  CG        13.4830   40.2230    5.0280 C.3    85  GLU85       0.1161
     24  CD        13.8420   39.5410    6.3470 C.2    85  GLU85       0.3649
     25  OE1       13.0300   39.6110    7.2940 O.co2  85  GLU85      -0.2457
     26  OE2       14.9310   38.9480    6.4440 O.co2  85  GLU85      -0.2457
     27  N         16.4720   43.6930    4.3840 N.am   86  ALA86      -0.1980
     28  CA        17.7260   44.2710    3.9490 C.3    86  ALA86       0.1597
     29  C         18.5150   44.8180    5.1580 C.2    86  ALA86       0.2287
     30  O         19.7380   44.6690    5.2430 O.2    86  ALA86      -0.2864
     31  CB        17.5330   45.3510    2.9070 C.3    86  ALA86       0.0319
     32  N         20.2680   41.9960    6.8670 N.3    89  VAL89      -0.1231
     33  CA        21.4330   41.6190    6.0570 C.3    89  VAL89       0.1692
     34  C         22.6400   42.4700    6.3760 C.2    89  VAL89       0.2592
     35  O         23.7830   41.9840    6.4960 O.2    89  VAL89      -0.2718
     36  CB        21.1640   41.5980    4.5130 C.3    89  VAL89       0.0266
     37  CG1       22.4400   41.4190    3.7030 C.3    89  VAL89       0.0020
     38  CG2       20.1660   40.5450    4.1860 C.3    89  VAL89       0.0020
     39  N         22.3640   43.7640    6.5160 N.am   90  PHE90      -0.1976
     40  CA        23.4240   44.7730    6.6720 C.3    90  PHE90       0.1639
     41  C         23.9870   44.7960    8.0930 C.2    90  PHE90       0.2290
     42  O         25.1540   44.9820    8.2890 O.2    90  PHE90      -0.2864
     43  CB        22.9670   46.1370    6.1620 C.3    90  PHE90       0.0560
     44  CG        22.9650   46.2260    4.6610 C.ar   90  PHE90      -0.0200
     45  CD1       23.9250   46.9690    3.9940 C.ar   90  PHE90      -0.0042
     46  CD2       22.0080   45.5480    3.9120 C.ar   90  PHE90      -0.0042
     47  CE1       23.9260   47.0450    2.6070 C.ar   90  PHE90      -0.0003
     48  CE2       22.0030   45.6200    2.5170 C.ar   90  PHE90      -0.0003
     49  CZ        22.9520   46.3600    1.8670 C.ar   90  PHE90      -0.0000
     50  N         28.5570   48.2260    6.4610 N.3   103  LEU103     -0.1245
     51  CA        28.0150   48.6800    5.1590 C.3   103  LEU103      0.1561
     52  C         28.9970   48.4170    4.0180 C.2   103  LEU103      0.2260
     53  O         28.6390   47.9890    2.9180 O.2   103  LEU103     -0.2867
     54  CB        27.6650   50.1730    5.1920 C.3   103  LEU103      0.0270
     55  CG        27.0850   50.7130    3.8820 C.3   103  LEU103      0.0019
     56  CD1       25.7600   50.0260    3.5660 C.3   103  LEU103      0.0001
     57  CD2       26.8970   52.2180    3.9530 C.3   103  LEU103      0.0001
     58  N         28.2360   45.2520    1.0480 N.3   107  MET107     -0.1245
     59  CA        28.0640   45.7580   -0.2790 C.3   107  MET107      0.1570
     60  C         29.1350   45.2600   -1.2090 C.2   107  MET107      0.2261
     61  O         28.9180   45.1340   -2.3830 O.2   107  MET107     -0.2867
     62  CB        28.0760   47.2760   -0.2500 C.3   107  MET107      0.0387
     63  CG        26.7700   47.8610    0.1720 C.3   107  MET107      0.0595
     64  SD        25.3940   47.2800   -0.8220 S.3   107  MET107     -0.1393
     65  CE        25.6700   48.1850   -2.3250 C.3   107  MET107      0.0692
     66  N         28.4650   41.5610   -2.0420 N.3   110  LEU110     -0.1231
     67  CA        27.3880   41.3960   -2.9870 C.3   110  LEU110      0.1693
     68  C         27.6310   42.1490   -4.2680 C.2   110  LEU110      0.2593
     69  O         26.6870   42.6010   -4.8830 O.2   110  LEU110     -0.2718
     70  CB        26.0780   41.8490   -2.3590 C.3   110  LEU110      0.0284
     71  CG        25.6020   40.9040   -1.2730 C.3   110  LEU110      0.0019
     72  CD1       24.2920   41.2590   -0.6940 C.3   110  LEU110      0.0001
     73  CD2       25.6220   39.4910   -1.7610 C.3   110  LEU110      0.0001
     74  N         28.8980   42.2870   -4.6530 N.am  111  GLY111     -0.1942
     75  CA        29.3250   43.1150   -5.7870 C.3   111  GLY111      0.2014
     76  C         28.2350   43.4950   -6.7560 C.2   111  GLY111      0.2638
     77  O         27.3760   42.6620   -7.0640 O.2   111  GLY111     -0.2714
     78  N         28.2150   44.7280   -7.2510 N.am  112  GLU112     -0.1977
     79  CA        29.3410   45.6490   -7.2950 C.3   112  GLU112      0.1602
     80  C         29.8780   45.9960   -5.9220 C.2   112  GLU112      0.2287
     81  O         29.2710   45.6620   -4.9160 O.2   112  GLU112     -0.2864
     82  CB        28.9320   46.9570   -8.0300 C.3   112  GLU112      0.0415
     83  CG        29.9580   47.5190   -9.0210 C.3   112  GLU112      0.1163
     84  CD        29.4760   48.7950   -9.7520 C.2   112  GLU112      0.3649
     85  OE1       29.2590   49.8070   -9.0650 O.co2 112  GLU112     -0.2457
     86  OE2       29.3250   48.7920  -11.0050 O.co2 112  GLU112     -0.2457
     87  N         31.1620   49.6190   -4.2450 N.3   114  LEU114     -0.1245
     88  CA        30.8090   50.9790   -4.5970 C.3   114  LEU114      0.1561
     89  C         31.4290   51.9730   -3.6420 C.2   114  LEU114      0.2260
     90  O         30.9620   53.1000   -3.5170 O.2   114  LEU114     -0.2867
     91  CB        29.2670   51.0980   -4.6400 C.3   114  LEU114      0.0270
     92  CG        28.5820   49.8690   -5.2650 C.3   114  LEU114      0.0019
     93  CD1       27.3100   50.2290   -6.0090 C.3   114  LEU114      0.0001
     94  CD2       29.5470   49.2060   -6.2080 C.3   114  LEU114      0.0001
     95  N         32.0780   56.4860   -0.9740 N.3   118  GLU118     -0.1245
     96  CA        30.6700   56.6800   -1.2440 C.3   118  GLU118      0.1567
     97  C         29.8680   56.0650   -0.1060 C.2   118  GLU118      0.2260
     98  O         28.6630   56.1890   -0.0580 O.2   118  GLU118     -0.2867
     99  CB        30.3180   56.0600   -2.5920 C.3   118  GLU118      0.0388
    100  CG        29.1800   56.6990   -3.3400 C.3   118  GLU118      0.1160
    101  CD        29.3660   56.6770   -4.8670 C.2   118  GLU118      0.3649
    102  OE1       30.3090   57.3280   -5.3780 O.co2 118  GLU118     -0.2457
    103  OE2       28.5600   56.0210   -5.5700 O.co2 118  GLU118     -0.2457
    104  N         26.9660   57.9630    2.3720 N.3   122  MET122     -0.1245
    105  CA        25.6380   57.1790    2.4120 C.3   122  MET122      0.1570
    106  C         25.2450   57.3200    3.8480 C.2   122  MET122      0.2261
    107  O         24.0900   57.6450    4.1550 O.2   122  MET122     -0.2867
    108  CB        25.7990   55.6920    2.0650 C.3   122  MET122      0.0387
    109  CG        25.8140   55.3440    0.6050 C.3   122  MET122      0.0595
    110  SD        25.4250   53.5630    0.3790 S.3   122  MET122     -0.1393
    111  CE        23.8190   53.3240    1.1710 C.3   122  MET122      0.0692
    112  N         17.0910   53.8840    8.4110 N.3   139  PHE139     -0.1241
    113  CA        17.1940   53.0810    7.2180 C.3   139  PHE139      0.1605
    114  C         15.9070   53.1920    6.4060 C.2   139  PHE139      0.2264
    115  O         15.9150   53.3360    5.1990 O.2   139  PHE139     -0.2867
    116  CB        17.4900   51.6250    7.5930 C.3   139  PHE139      0.0534
    117  CG        17.8540   50.7300    6.4320 C.ar  139  PHE139     -0.0203
    118  CD1       17.0150   49.7550    6.0160 C.ar  139  PHE139     -0.0042
    119  CD2       19.0600   50.8680    5.7770 C.ar  139  PHE139     -0.0042
    120  CE1       17.3580   48.9450    4.9690 C.ar  139  PHE139     -0.0003
    121  CE2       19.3800   50.0270    4.7370 C.ar  139  PHE139     -0.0003
    122  CZ        18.5520   49.1060    4.3430 C.ar  139  PHE139     -0.0000
    123  N         15.6290   56.4560    4.7530 N.3   142  MET142     -0.1230
    124  CA        16.5680   56.5370    3.6210 C.3   142  MET142      0.1702
    125  C         15.9660   55.8500    2.3820 C.2   142  MET142      0.2592
    126  O         16.1010   56.3080    1.2320 O.2   142  MET142     -0.2718
    127  CB        17.9280   55.9150    3.9790 C.3   142  MET142      0.0401
    128  CG        18.9190   55.8610    2.8200 C.3   142  MET142      0.0596
    129  SD        18.6380   54.4230    1.7670 S.3   142  MET142     -0.1393
    130  CE        19.4560   53.1330    2.7170 C.3   142  MET142      0.0692
    131  N         15.2930   54.7550    2.6510 N.am  143  MET143     -0.1965
    132  CA        14.7850   53.8790    1.5770 C.3   143  MET143      0.1736
    133  C         13.4650   54.3140    1.0500 C.2   143  MET143      0.2617
    134  O         12.9740   53.7670    0.0490 O.2   143  MET143     -0.2715
    135  CB        14.6240   52.4590    2.0320 C.3   143  MET143      0.0427
    136  CG        15.9520   51.7680    2.2590 C.3   143  MET143      0.0599
    137  SD        16.9470   51.6090    0.7580 S.3   143  MET143     -0.1393
    138  CE        15.8840   50.5980   -0.3220 C.3   143  MET143      0.0692
    139  N         12.8890   55.3030    1.7280 N.am  144  THR144     -0.1937
    140  CA        11.4990   55.6850    1.3890 C.3   144  THR144      0.2028
    141  C         11.3170   57.1350    1.1280 C.2   144  THR144      0.2642
    142  O         10.2280   57.6030    0.8120 O.2   144  THR144     -0.2714
    143  CB        10.4550   55.1960    2.4220 C.3   144  THR144      0.1808
    144  OG1       10.6190   55.8670    3.6650 O.3   144  THR144     -0.2208
    145  CG2       10.5910   53.7360    2.6100 C.3   144  THR144      0.0379
    146  N         12.3890   57.8770    1.2490 N.am  145  ALA145     -0.1977
    147  CA        12.2780   59.3000    1.0080 C.3   145  ALA145      0.1597
    148  C         12.9690   59.6710   -0.2960 C.2   145  ALA145      0.2287
    149  O         12.7150   59.0430   -1.3280 O.2   145  ALA145     -0.2864
    150  CB        12.8160   60.1170    2.1790 C.3   145  ALA145      0.0319
@<TRIPOS>BOND
     1    86    84   ar
     2    84    85   ar
     3    84    83    1
     4    83    82    1
     5    82    79    1
     6    79    78    1
     7    79    80    1
     8    78    76   am
     9    77    76    2
    10    76    75    1
    11    94    92    1
    12    93    92    1
    13    80    81    2
    14    75    74    1
    15   103   101   ar
    16   102   101   ar
    17    92    91    1
    18    69    68    2
    19   101   100    1
    20    74    68   am
    21    91    88    1
    22    88    87    1
    23    88    89    1
    24    68    67    1
    25    89    90    2
    26   100    99    1
    27    67    70    1
    28    67    66    1
    29    99    96    1
    30     9     7   ar
    31    61    60    2
    32    70    71    1
    33    65    64    1
    34     8     7   ar
    35     7     6    1
    36    73    71    1
    37   149   148    2
    38    71    72    1
    39    96    95    1
    40    96    97    1
    41    60    59    1
    42    64    63    1
    43     6     5    1
    44   138   137    1
    45   148   147    1
    46    59    62    1
    47    59    58    1
    48    62    63    1
    49    97    98    2
    50   134   133    2
    51   110   109    1
    52   110   111    1
    53     5     2    1
    54   109   108    1
    55   137   136    1
    56   142   141    2
    57   147   146    1
    58   147   150    1
    59   133   132    1
    60   133   139   am
    61   141   146   am
    62   141   140    1
    63   126   125    2
    64   140   139    1
    65   140   143    1
    66   132   135    1
    67   132   131    1
    68   129   130    1
    69   129   128    1
    70    49    48   ar
    71    49    47   ar
    72     2     3    1
    73     2     1    1
    74   135   136    1
    75   108   105    1
    76   104   105    1
    77   125   131   am
    78   125   124    1
    79   105   106    1
    80   143   145    1
    81   143   144    1
    82    48    46   ar
    83    47    45   ar
    84    17    15    1
    85     3     4    2
    86     3    10   am
    87    15    14    1
    88   128   127    1
    89    31    28    1
    90    53    52    2
    91    10    11    1
    92    56    55    1
    93   124   127    1
    94   124   123    1
    95    37    36    1
    96    11    14    1
    97    11    12    1
    98   106   107    2
    99    55    57    1
   100    55    54    1
   101    46    44   ar
   102    28    27    1
   103    28    29    1
   104    45    44   ar
   105    14    16    1
   106    52    51    1
   107    38    36    1
   108   122   121   ar
   109   122   120   ar
   110    27    20   am
   111    22    23    1
   112    22    19    1
   113    36    33    1
   114    44    43    1
   115   121   119   ar
   116   120   118   ar
   117    23    24    1
   118    12    13    2
   119    20    21    2
   120    20    19    1
   121    29    30    2
   122    51    54    1
   123    51    50    1
   124   115   114    2
   125    19    18    1
   126   119   117   ar
   127   118   117   ar
   128    33    34    1
   129    33    32    1
   130    43    40    1
   131    24    26   ar
   132    24    25   ar
   133    34    35    2
   134    34    39   am
   135   114   113    1
   136   117   116    1
   137    39    40    1
   138    40    41    1
   139   113   116    1
   140   113   112    1
   141    41    42    2
