@<TRIPOS>MOLECULE
tmp/2w73B01.pdb
 125 117 0 0 0
SMALL
GASTEIGER

@<TRIPOS>ATOM
      1  N          4.3440   -6.8070   31.1430 N.3    82  GLU82      -0.1231
      2  CA         3.0650   -7.5200   31.2260 C.3    82  GLU82       0.1699
      3  C          3.1850   -8.7070   32.1880 C.2    82  GLU82       0.2592
      4  O          2.3140   -8.9630   32.9940 O.2    82  GLU82      -0.2718
      5  CB         2.6230   -8.0230   29.8660 C.3    82  GLU82       0.0402
      6  CG         2.1550   -6.8930   28.9250 C.3    82  GLU82       0.1161
      7  CD         1.8390   -7.4230   27.5410 C.2    82  GLU82       0.3649
      8  OE1        1.9190   -6.6490   26.5660 O.co2  82  GLU82      -0.2457
      9  OE2        1.5110   -8.6310   27.4370 O.co2  82  GLU82      -0.2457
     10  N          4.2910   -9.3930   32.0440 N.am   83  ILE83      -0.1980
     11  CA         4.5270  -10.5950   32.8960 C.3    83  ILE83       0.1595
     12  C          4.7180  -10.2050   34.3500 C.2    83  ILE83       0.2287
     13  O          4.2650  -10.8140   35.3080 O.2    83  ILE83      -0.2864
     14  CB         5.6940  -11.3740   32.3580 C.3    83  ILE83       0.0276
     15  CG1        5.3180  -12.0230   31.0300 C.3    83  ILE83       0.0022
     16  CG2        6.0590  -12.5350   33.3140 C.3    83  ILE83       0.0022
     17  CD1        6.5530  -12.6450   30.3590 C.3    83  ILE83       0.0001
     18  N          1.3750   -9.2670   35.7950 N.3    86  ALA86      -0.1245
     19  CA         0.5770  -10.4710   36.0870 C.3    86  ALA86       0.1562
     20  C          1.0920  -11.2020   37.3420 C.2    86  ALA86       0.2260
     21  O          0.2910  -11.6530   38.1280 O.2    86  ALA86      -0.2867
     22  CB         0.6360  -11.4060   34.8630 C.3    86  ALA86       0.0290
     23  N         -1.1030  -12.1750   40.8400 N.3    90  PHE90      -0.1241
     24  CA        -1.2300  -13.5200   41.4320 C.3    90  PHE90       0.1605
     25  C         -0.6420  -13.6110   42.8380 C.2    90  PHE90       0.2264
     26  O         -1.1340  -14.3660   43.6780 O.2    90  PHE90      -0.2867
     27  CB        -0.5740  -14.5810   40.5510 C.3    90  PHE90       0.0534
     28  CG        -1.2910  -14.8330   39.2700 C.ar   90  PHE90      -0.0203
     29  CD1       -2.6810  -15.0300   39.2510 C.ar   90  PHE90      -0.0042
     30  CD2       -0.5880  -14.8950   38.0780 C.ar   90  PHE90      -0.0042
     31  CE1       -3.3750  -15.2750   38.0310 C.ar   90  PHE90      -0.0003
     32  CE2       -1.2510  -15.1260   36.8600 C.ar   90  PHE90      -0.0003
     33  CZ        -2.6560  -15.3170   36.8410 C.ar   90  PHE90      -0.0000
     34  N         -2.9950  -18.9010   43.3130 N.3   103  LEU103     -0.1245
     35  CA        -3.2910  -19.0960   41.8960 C.3   103  LEU103      0.1561
     36  C         -4.7500  -19.5140   41.6790 C.2   103  LEU103      0.2260
     37  O         -5.4770  -19.0310   40.8180 O.2   103  LEU103     -0.2867
     38  CB        -2.3440  -20.1040   41.2640 C.3   103  LEU103      0.0270
     39  CG        -2.4280  -20.3510   39.7670 C.3   103  LEU103      0.0019
     40  CD1       -2.2000  -19.0960   39.0150 C.3   103  LEU103      0.0001
     41  CD2       -1.4290  -21.4550   39.3040 C.3   103  LEU103      0.0001
     42  N         -7.6260  -17.3120   39.7070 N.3   107  MET107     -0.1245
     43  CA        -8.1440  -17.9020   38.4710 C.3   107  MET107      0.1570
     44  C         -9.6390  -18.0300   38.5070 C.2   107  MET107      0.2261
     45  O        -10.3390  -17.6910   37.5510 O.2   107  MET107     -0.2867
     46  CB        -7.5190  -19.2320   38.1770 C.3   107  MET107      0.0387
     47  CG        -6.1070  -19.0700   37.7200 C.3   107  MET107      0.0595
     48  SD        -6.0810  -18.2670   36.1000 S.3   107  MET107     -0.1393
     49  CE        -5.8700  -16.5540   36.5390 C.3   107  MET107      0.0692
     50  N        -11.4880  -14.8010   38.2000 N.3   110  LEU110     -0.1231
     51  CA       -11.3760  -14.3470   36.8040 C.3   110  LEU110      0.1693
     52  C        -12.0040  -15.2530   35.7740 C.2   110  LEU110      0.2593
     53  O        -11.7680  -15.1230   34.5480 O.2   110  LEU110     -0.2718
     54  CB        -9.9380  -14.0150   36.3840 C.3   110  LEU110      0.0284
     55  CG        -9.3640  -12.9000   37.2290 C.3   110  LEU110      0.0019
     56  CD1       -7.9240  -12.4960   36.8560 C.3   110  LEU110      0.0001
     57  CD2      -10.1860  -11.5470   37.1220 C.3   110  LEU110      0.0001
     58  N        -12.8100  -16.1620   36.2900 N.am  111  GLY111     -0.1942
     59  CA       -13.6810  -16.9920   35.4720 C.3   111  GLY111      0.2014
     60  C        -13.1150  -18.2560   34.8670 C.2   111  GLY111      0.2638
     61  O        -13.7790  -18.8750   34.0220 O.2   111  GLY111     -0.2714
     62  N        -11.9170  -18.6660   35.2730 N.am  112  GLU112     -0.1977
     63  CA       -11.3850  -19.8790   34.7190 C.3   112  GLU112      0.1602
     64  C        -12.0020  -21.0210   35.4820 C.2   112  GLU112      0.2287
     65  O        -12.4790  -20.8740   36.5990 O.2   112  GLU112     -0.2864
     66  CB        -9.8700  -19.9480   34.8320 C.3   112  GLU112      0.0415
     67  CG        -9.2480  -20.7600   33.7100 C.3   112  GLU112      0.1163
     68  CD        -9.6580  -20.1730   32.3660 C.2   112  GLU112      0.3649
     69  OE1       -9.6200  -20.8900   31.3480 O.co2 112  GLU112     -0.2457
     70  OE2      -10.0230  -18.9680   32.3400 O.co2 112  GLU112     -0.2457
     71  N        -10.5060  -24.2560   36.1330 N.3   114  LEU114     -0.1245
     72  CA        -9.4640  -25.2520   36.4600 C.3   114  LEU114      0.1561
     73  C         -9.7700  -25.9550   37.7590 C.2   114  LEU114      0.2260
     74  O        -10.1860  -25.3410   38.7130 O.2   114  LEU114     -0.2867
     75  CB        -8.0880  -24.6000   36.5950 C.3   114  LEU114      0.0270
     76  CG        -7.6250  -23.7700   35.4030 C.3   114  LEU114      0.0019
     77  CD1       -6.6600  -22.6790   35.8610 C.3   114  LEU114      0.0001
     78  CD2       -6.9710  -24.7700   34.4580 C.3   114  LEU114      0.0001
     79  N         -0.0350  -26.9470   37.5790 N.3   122  MET122     -0.1245
     80  CA         0.5450  -25.6650   37.0890 C.3   122  MET122      0.1570
     81  C          1.7320  -25.2460   37.9630 C.2   122  MET122      0.2261
     82  O          2.8220  -24.8860   37.4660 O.2   122  MET122     -0.2867
     83  CB        -0.4880  -24.5080   37.0430 C.3   122  MET122      0.0387
     84  CG        -1.4830  -24.6210   35.9280 C.3   122  MET122      0.0595
     85  SD        -2.6360  -23.2120   35.8310 S.3   122  MET122     -0.1393
     86  CE        -1.6100  -21.8280   35.2670 C.3   122  MET122      0.0692
     87  N          8.2320  -17.8380   37.0680 N.3   139  PHE139     -0.1241
     88  CA         7.0040  -17.3560   36.3820 C.3   139  PHE139      0.1605
     89  C          7.4100  -16.8970   34.9850 C.2   139  PHE139      0.2264
     90  O          6.7370  -17.2050   33.9790 O.2   139  PHE139     -0.2867
     91  CB         6.3280  -16.2670   37.2070 C.3   139  PHE139      0.0534
     92  CG         4.8990  -15.9130   36.7950 C.ar  139  PHE139     -0.0203
     93  CD1        4.6320  -14.7660   36.0510 C.ar  139  PHE139     -0.0042
     94  CD2        3.8230  -16.7270   37.1690 C.ar  139  PHE139     -0.0042
     95  CE1        3.3250  -14.4250   35.6880 C.ar  139  PHE139     -0.0003
     96  CE2        2.5330  -16.3710   36.7970 C.ar  139  PHE139     -0.0003
     97  CZ         2.2960  -15.2060   36.0530 C.ar  139  PHE139     -0.0000
     98  N          8.0670  -19.9200   32.8100 N.3   142  MET142     -0.1230
     99  CA         6.7700  -20.5450   32.5070 C.3   142  MET142      0.1702
    100  C          6.0820  -19.8280   31.3310 C.2   142  MET142      0.2592
    101  O          5.4120  -20.4600   30.5020 O.2   142  MET142     -0.2718
    102  CB         5.8620  -20.5640   33.7560 C.3   142  MET142      0.0401
    103  CG         4.4590  -21.1130   33.5000 C.3   142  MET142      0.0596
    104  SD         3.3740  -19.9230   32.7090 S.3   142  MET142     -0.1393
    105  CE         3.3610  -18.6250   33.9570 C.3   142  MET142      0.0692
    106  N          6.2680  -18.5190   31.2820 N.am  143  MET143     -0.1965
    107  CA         5.5560  -17.6370   30.3320 C.3   143  MET143      0.1736
    108  C          6.2930  -17.4720   29.0240 C.2   143  MET143      0.2617
    109  O          5.7560  -16.9540   28.0610 O.2   143  MET143     -0.2715
    110  CB         5.3030  -16.2580   30.9630 C.3   143  MET143      0.0427
    111  CG         4.2280  -16.2410   32.0060 C.3   143  MET143      0.0599
    112  SD         2.6080  -16.7830   31.4150 S.3   143  MET143     -0.1393
    113  CE         2.1780  -15.4930   30.2370 C.3   143  MET143      0.0692
    114  N          7.5320  -17.9200   29.0040 N.am  144  THR144     -0.1937
    115  CA         8.3820  -17.7130   27.8280 C.3   144  THR144      0.2028
    116  C          8.8800  -18.9570   27.2020 C.2   144  THR144      0.2642
    117  O          9.7480  -18.9390   26.3520 O.2   144  THR144     -0.2714
    118  CB         9.5840  -16.8150   28.1050 C.3   144  THR144      0.1808
    119  OG1       10.4210  -17.4050   29.1070 O.3   144  THR144     -0.2208
    120  CG2        9.1100  -15.4510   28.5440 C.3   144  THR144      0.0379
    121  N          8.3120  -20.0500   27.6390 N.am  145  ALA145     -0.1977
    122  CA         8.7920  -21.3600   27.1920 C.3   145  ALA145      0.1597
    123  C          8.5190  -22.4410   28.2030 C.2   145  ALA145      0.2287
    124  O          7.4370  -22.4990   28.7600 O.2   145  ALA145     -0.2864
    125  CB        10.2920  -21.2790   26.9040 C.3   145  ALA145      0.0319
@<TRIPOS>BOND
     1   117   116    2
     2     8     7   ar
     3   125   122    1
     4   122   121    1
     5   122   123    1
     6   116   121   am
     7   116   115    1
     8     9     7   ar
     9     7     6    1
    10   115   118    1
    11   115   114    1
    12   109   108    2
    13   118   120    1
    14   118   119    1
    15   123   124    2
    16     6     5    1
    17   114   108   am
    18   108   107    1
    19     5     2    1
    20   113   112    1
    21   107   110    1
    22   107   106    1
    23    17    15    1
    24   101   100    2
    25   110   111    1
    26    15    14    1
    27     1     2    1
    28     2     3    1
    29   106   100   am
    30   100    99    1
    31    69    68   ar
    32   112   111    1
    33    10     3   am
    34    10    11    1
    35     3     4    2
    36    70    68   ar
    37    14    11    1
    38    14    16    1
    39    68    67    1
    40    99    98    1
    41    99   102    1
    42   104   103    1
    43   104   105    1
    44    11    12    1
    45   103   102    1
    46    67    66    1
    47    90    89    2
    48    61    60    2
    49    12    13    2
    50    78    76    1
    51    53    52    2
    52    63    66    1
    53    63    62    1
    54    63    64    1
    55    22    19    1
    56    60    62   am
    57    60    59    1
    58    89    88    1
    59    86    85    1
    60    76    77    1
    61    76    75    1
    62    59    58    1
    63    64    65    2
    64    95    93   ar
    65    95    97   ar
    66    52    58   am
    67    52    51    1
    68    18    19    1
    69    85    84    1
    70    84    83    1
    71    93    92   ar
    72    97    96   ar
    73    19    20    1
    74    48    49    1
    75    48    47    1
    76    71    72    1
    77    88    87    1
    78    88    91    1
    79    54    51    1
    80    54    55    1
    81    72    75    1
    82    72    73    1
    83    92    94   ar
    84    92    91    1
    85    96    94   ar
    86    51    50    1
    87    33    32   ar
    88    33    31   ar
    89    56    55    1
    90    32    30   ar
    91    83    80    1
    92    80    79    1
    93    80    81    1
    94    57    55    1
    95    20    21    2
    96    82    81    2
    97    45    44    2
    98    47    46    1
    99    73    74    2
   100    31    29   ar
   101    30    28   ar
   102    46    43    1
   103    43    44    1
   104    43    42    1
   105    40    39    1
   106    29    28   ar
   107    28    27    1
   108    41    39    1
   109    39    38    1
   110    27    24    1
   111    37    36    2
   112    23    24    1
   113    38    35    1
   114    24    25    1
   115    36    35    1
   116    35    34    1
   117    25    26    2
