@<TRIPOS>MOLECULE
tmp/2w76B00.pdb
 177 177 0 0 0
SMALL
GASTEIGER

@<TRIPOS>ATOM
      1  N        -56.1840  -29.5240   21.1860 N.3   143  ARG143     -0.1245
      2  CA       -57.3200  -29.0800   20.4000 C.3   143  ARG143      0.1563
      3  C        -58.0410  -27.9280   21.1280 C.2   143  ARG143      0.2260
      4  O        -58.3310  -28.0000   22.3240 O.2   143  ARG143     -0.2867
      5  CB       -58.3560  -30.2050   20.1230 C.3   143  ARG143      0.0307
      6  CG       -57.8690  -31.6250   19.5720 C.3   143  ARG143      0.0489
      7  CD       -59.0450  -32.6440   19.4150 C.3   143  ARG143      0.2205
      8  NE       -59.3760  -33.3920   20.6660 N.pl3 143  ARG143     -0.0865
      9  CZ       -60.5650  -33.9640   20.9490 C.cat 143  ARG143      0.5346
     10  NH1      -61.5990  -33.8550   20.1180 N.pl3 143  ARG143      0.1354
     11  NH2      -60.7480  -34.6370   22.0850 N.pl3 143  ARG143      0.1354
     12  N        -63.9020  -32.0990   11.1910 N.3   167  ASN167     -0.1240
     13  CA       -64.2470  -32.8130   12.4210 C.3   167  ASN167      0.1653
     14  C        -63.0640  -32.7940   13.4420 C.2   167  ASN167      0.2266
     15  O        -62.0510  -33.4800   13.2840 O.2   167  ASN167     -0.2867
     16  CB       -64.8450  -34.2190   12.1670 C.3   167  ASN167      0.1155
     17  CG       -65.8570  -34.6930   13.3090 C.2   167  ASN167      0.2627
     18  OD1      -65.9980  -34.0660   14.3810 O.2   167  ASN167     -0.2716
     19  ND2      -66.5570  -35.8050   13.0500 N.am  167  ASN167     -0.0877
     20  N        -62.9110  -34.0100   16.1510 N.3   169  GLY169     -0.1210
     21  CA       -62.7840  -35.3210   16.7580 C.3   169  GLY169      0.1956
     22  C        -61.5530  -35.9610   16.1670 C.2   169  GLY169      0.2611
     23  O        -60.8320  -36.7240   16.8230 O.2   169  GLY169     -0.2717
     24  N        -61.3100  -35.6000   14.9130 N.am  170  TYR170     -0.1976
     25  CA       -60.1880  -36.0840   14.1530 C.3   170  TYR170      0.1639
     26  C        -59.4180  -34.8590   13.6980 C.2   170  TYR170      0.2290
     27  O        -59.2310  -34.6290   12.4770 O.2   170  TYR170     -0.2864
     28  CB       -60.7050  -36.8930   12.9710 C.3   170  TYR170      0.0560
     29  CG       -61.4860  -38.1100   13.3780 C.ar  170  TYR170     -0.0198
     30  CD1      -62.9010  -38.0950   13.4420 C.ar  170  TYR170     -0.0009
     31  CD2      -60.8210  -39.3040   13.6880 C.ar  170  TYR170     -0.0009
     32  CE1      -63.6410  -39.2850   13.8040 C.ar  170  TYR170      0.0417
     33  CE2      -61.5400  -40.4900   14.0500 C.ar  170  TYR170      0.0417
     34  CZ       -62.9320  -40.4700   14.0990 C.ar  170  TYR170      0.1957
     35  OH       -63.5600  -41.6300   14.4610 O.3   170  TYR170     -0.2866
     36  N        -56.0740  -36.0300   26.7090 N.3   301  TRP301     -0.1227
     37  CA       -57.1880  -36.3220   25.8610 C.3   301  TRP301      0.1737
     38  C        -58.4020  -36.1200   26.7460 C.2   301  TRP301      0.2596
     39  O        -58.4300  -36.6200   27.9070 O.2   301  TRP301     -0.2718
     40  CB       -57.0880  -37.7630   25.4350 C.3   301  TRP301      0.0564
     41  CG       -58.1020  -38.1670   24.5030 C.ar  301  TRP301      0.0003
     42  CD1      -58.8660  -37.3520   23.7310 C.ar  301  TRP301      0.0946
     43  CD2      -58.4790  -39.5230   24.1850 C.ar  301  TRP301      0.0152
     44  NE1      -59.6920  -38.1180   22.9470 N.ar  301  TRP301     -0.2442
     45  CE2      -59.4740  -39.4540   23.2120 C.ar  301  TRP301      0.0810
     46  CE3      -58.0440  -40.7850   24.6150 C.ar  301  TRP301      0.0012
     47  CZ2      -60.0570  -40.6000   22.6620 C.ar  301  TRP301      0.0191
     48  CZ3      -58.6260  -41.9120   24.0680 C.ar  301  TRP301      0.0001
     49  CH2      -59.6130  -41.8080   23.0970 C.ar  301  TRP301      0.0015
     50  N        -59.3820  -35.3790   26.2000 N.am  302  SER302     -0.1952
     51  CA       -60.5460  -34.9240   26.9720 C.3   302  SER302      0.1924
     52  C        -60.1820  -34.3270   28.3430 C.2   302  SER302      0.2314
     53  O        -60.2160  -35.0010   29.3460 O.2   302  SER302     -0.2863
     54  CB       -61.6480  -36.0080   27.0660 C.3   302  SER302      0.2116
     55  OG       -61.3500  -36.9970   28.0100 O.3   302  SER302     -0.2180
     56  N        -51.0140  -36.2830   20.2030 N.3   330  TRP330     -0.1241
     57  CA       -51.8700  -35.9500   19.1040 C.3   330  TRP330      0.1605
     58  C        -51.1080  -35.2520   17.9920 C.2   330  TRP330      0.2264
     59  O        -51.3290  -34.0870   17.7040 O.2   330  TRP330     -0.2867
     60  CB       -53.0690  -35.1070   19.5430 C.3   330  TRP330      0.0550
     61  CG       -54.1640  -35.1920   18.5380 C.ar  330  TRP330      0.0003
     62  CD1      -54.0410  -35.1420   17.1620 C.ar  330  TRP330      0.0946
     63  CD2      -55.5450  -35.3620   18.8020 C.ar  330  TRP330      0.0152
     64  NE1      -55.2720  -35.2800   16.5610 N.ar  330  TRP330     -0.2442
     65  CE2      -56.2140  -35.4140   17.5450 C.ar  330  TRP330      0.0810
     66  CE3      -56.2880  -35.4820   19.9710 C.ar  330  TRP330      0.0012
     67  CZ2      -57.5850  -35.5920   17.4340 C.ar  330  TRP330      0.0191
     68  CZ3      -57.6430  -35.6690   19.8660 C.ar  330  TRP330      0.0001
     69  CH2      -58.2880  -35.7220   18.5950 C.ar  330  TRP330      0.0015
     70  N        -59.0580  -40.8680   32.4210 N.3   370  MET370     -0.1245
     71  CA       -60.4140  -40.3270   32.3390 C.3   370  MET370      0.1570
     72  C        -61.4700  -41.1930   32.9910 C.2   370  MET370      0.2261
     73  O        -61.2630  -42.4170   33.2240 O.2   370  MET370     -0.2867
     74  CB       -60.8050  -39.9640   30.9250 C.3   370  MET370      0.0387
     75  CG       -60.8850  -41.1150   29.9650 C.3   370  MET370      0.0595
     76  SD       -60.9830  -40.4320   28.2990 S.3   370  MET370     -0.1393
     77  CE       -60.1220  -38.9170   28.6820 C.3   370  MET370      0.0692
     78  N        -57.5010  -44.4670   29.6620 N.3   383  VAL383     -0.1245
     79  CA       -58.1910  -44.9110   28.4760 C.3   383  VAL383      0.1561
     80  C        -57.1860  -44.6970   27.3730 C.2   383  VAL383      0.2260
     81  O        -56.6090  -43.6210   27.2960 O.2   383  VAL383     -0.2867
     82  CB       -59.4640  -44.1170   28.2350 C.3   383  VAL383      0.0252
     83  CG1      -59.9530  -44.2730   26.7820 C.3   383  VAL383      0.0019
     84  CG2      -60.5050  -44.5430   29.2340 C.3   383  VAL383      0.0019
     85  N        -56.4480  -45.3160   23.0740 N.3   385  GLN385     -0.1245
     86  CA       -57.0130  -45.5510   21.7750 C.3   385  GLN385      0.1566
     87  C        -56.1040  -44.8040   20.8490 C.2   385  GLN385      0.2260
     88  O        -55.5940  -43.7430   21.2340 O.2   385  GLN385     -0.2867
     89  CB       -58.3860  -44.9110   21.7140 C.3   385  GLN385      0.0367
     90  CG       -59.3640  -45.5370   22.6470 C.3   385  GLN385      0.0905
     91  CD       -60.7790  -45.1330   22.3980 C.2   385  GLN385      0.2608
     92  OE1      -61.0700  -44.1280   21.7550 O.2   385  GLN385     -0.2717
     93  NE2      -61.6800  -45.9010   22.9440 N.am  385  GLN385     -0.0878
     94  N        -55.6290  -43.1600   16.9280 N.3   387  TYR387     -0.1241
     95  CA       -56.3880  -42.6730   15.7870 C.3   387  TYR387      0.1605
     96  C        -55.4320  -42.1250   14.7630 C.2   387  TYR387      0.2264
     97  O        -54.7290  -41.1290   15.0250 O.2   387  TYR387     -0.2867
     98  CB       -57.3450  -41.5500   16.1990 C.3   387  TYR387      0.0534
     99  CG       -58.4150  -42.0100   17.1250 C.ar  387  TYR387     -0.0201
    100  CD1      -59.5280  -42.6680   16.6290 C.ar  387  TYR387     -0.0009
    101  CD2      -58.3030  -41.8160   18.5090 C.ar  387  TYR387     -0.0009
    102  CE1      -60.4990  -43.1430   17.4720 C.ar  387  TYR387      0.0417
    103  CE2      -59.2950  -42.2710   19.3930 C.ar  387  TYR387      0.0417
    104  CZ       -60.3960  -42.9490   18.8680 C.ar  387  TYR387      0.1957
    105  OH       -61.4140  -43.4430   19.6900 O.3   387  TYR387     -0.2866
    106  N        -58.7840  -49.6610   19.1520 N.3   430  TRP430     -0.1241
    107  CA       -59.1080  -49.6820   20.5700 C.3   430  TRP430      0.1605
    108  C        -59.2540  -51.0570   21.2370 C.2   430  TRP430      0.2264
    109  O        -59.6720  -51.1580   22.3770 O.2   430  TRP430     -0.2867
    110  CB       -60.2860  -48.7590   20.8300 C.3   430  TRP430      0.0550
    111  CG       -61.4820  -49.1170   20.0910 C.ar  430  TRP430      0.0003
    112  CD1      -62.2350  -50.2450   20.2590 C.ar  430  TRP430      0.0946
    113  CD2      -62.1180  -48.3580   19.0810 C.ar  430  TRP430      0.0152
    114  NE1      -63.3010  -50.2310   19.4030 N.ar  430  TRP430     -0.2442
    115  CE2      -63.2560  -49.0830   18.6660 C.ar  430  TRP430      0.0810
    116  CE3      -61.8510  -47.1320   18.4840 C.ar  430  TRP430      0.0012
    117  CZ2      -64.1270  -48.6170   17.6810 C.ar  430  TRP430      0.0191
    118  CZ3      -62.7250  -46.6650   17.4910 C.ar  430  TRP430      0.0001
    119  CH2      -63.8410  -47.4010   17.1060 C.ar  430  TRP430      0.0015
    120  N        -61.7020  -49.9940   13.3040 N.3   459  GLN459     -0.1245
    121  CA       -62.5660  -49.1210   12.5130 C.3   459  GLN459      0.1566
    122  C        -61.7630  -48.6470   11.3050 C.2   459  GLN459      0.2260
    123  O        -60.5580  -48.4360   11.4200 O.2   459  GLN459     -0.2867
    124  CB       -63.0900  -47.9420   13.3380 C.3   459  GLN459      0.0367
    125  CG       -64.1400  -47.1900   12.5560 C.3   459  GLN459      0.0905
    126  CD       -64.8910  -46.0950   13.3180 C.2   459  GLN459      0.2608
    127  OE1      -64.3630  -45.4820   14.2680 O.2   459  GLN459     -0.2717
    128  NE2      -66.1180  -45.8040   12.8650 N.am  459  GLN459     -0.0878
    129  N        -74.9610  -39.0980   12.9150 N.3   538  TRP538     -0.1227
    130  CA       -75.7980  -39.7230   13.9680 C.3   538  TRP538      0.1737
    131  C        -77.1180  -38.9930   14.3130 C.2   538  TRP538      0.2595
    132  O        -77.9540  -39.4910   15.0930 O.2   538  TRP538     -0.2718
    133  CB       -74.9660  -39.9500   15.2440 C.3   538  TRP538      0.0564
    134  CG       -74.1770  -38.7460   15.6010 C.ar  538  TRP538      0.0003
    135  CD1      -74.5870  -37.6820   16.3820 C.ar  538  TRP538      0.0946
    136  CD2      -72.8530  -38.4330   15.1530 C.ar  538  TRP538      0.0152
    137  NE1      -73.5870  -36.7310   16.4570 N.ar  538  TRP538     -0.2442
    138  CE2      -72.5110  -37.1610   15.7080 C.ar  538  TRP538      0.0810
    139  CE3      -71.9110  -39.0980   14.3430 C.ar  538  TRP538      0.0012
    140  CZ2      -71.2480  -36.5430   15.4690 C.ar  538  TRP538      0.0191
    141  CZ3      -70.6580  -38.4830   14.1150 C.ar  538  TRP538      0.0001
    142  CH2      -70.3470  -37.2220   14.6680 C.ar  538  TRP538      0.0015
    143  N        -77.3000  -37.8150   13.7350 N.am  539  TYR539     -0.1976
    144  CA       -78.4460  -36.9680   14.0510 C.3   539  TYR539      0.1639
    145  C        -79.7080  -37.3370   13.2390 C.2   539  TYR539      0.2290
    146  O        -80.0730  -36.6720   12.2810 O.2   539  TYR539     -0.2864
    147  CB       -78.0570  -35.4990   13.8610 C.3   539  TYR539      0.0560
    148  CG       -77.0840  -34.9480   14.8900 C.ar  539  TYR539     -0.0198
    149  CD1      -77.1710  -35.3170   16.2380 C.ar  539  TYR539     -0.0009
    150  CD2      -76.0980  -34.0220   14.5350 C.ar  539  TYR539     -0.0009
    151  CE1      -76.2940  -34.7930   17.1870 C.ar  539  TYR539      0.0417
    152  CE2      -75.2270  -33.4900   15.4900 C.ar  539  TYR539      0.0417
    153  CZ       -75.3420  -33.8780   16.8080 C.ar  539  TYR539      0.1957
    154  OH       -74.5010  -33.3690   17.7650 O.3   539  TYR539     -0.2866
    155  N        -66.1820  -30.8130   29.6320 N.3   734  PHE734     -0.1227
    156  CA       -65.9110  -31.6160   28.4720 C.3   734  PHE734      0.1736
    157  C        -65.5240  -32.9900   28.9250 C.2   734  PHE734      0.2595
    158  O        -64.4570  -33.1390   29.5270 O.2   734  PHE734     -0.2718
    159  CB       -64.7810  -31.0420   27.6280 C.3   734  PHE734      0.0547
    160  CG       -64.4940  -31.8710   26.4070 C.ar  734  PHE734     -0.0202
    161  CD1      -65.4480  -31.9840   25.4020 C.ar  734  PHE734     -0.0042
    162  CD2      -63.2690  -32.5410   26.2720 C.ar  734  PHE734     -0.0042
    163  CE1      -65.2090  -32.7350   24.2730 C.ar  734  PHE734     -0.0003
    164  CE2      -63.0050  -33.2810   25.1430 C.ar  734  PHE734     -0.0003
    165  CZ       -63.9970  -33.3970   24.1220 C.ar  734  PHE734     -0.0000
    166  N        -66.3890  -33.9750   28.6300 N.am  735  TYR735     -0.1976
    167  CA       -66.2670  -35.3400   29.1720 C.3   735  TYR735      0.1639
    168  C        -65.9130  -35.3440   30.6550 C.2   735  TYR735      0.2290
    169  O        -64.9280  -35.9310   31.0970 O.2   735  TYR735     -0.2864
    170  CB       -65.2560  -36.1330   28.4020 C.3   735  TYR735      0.0560
    171  CG       -65.7360  -36.5360   27.0680 C.ar  735  TYR735     -0.0198
    172  CD1      -66.6910  -37.5160   26.9340 C.ar  735  TYR735     -0.0009
    173  CD2      -65.2320  -35.9280   25.9140 C.ar  735  TYR735     -0.0009
    174  CE1      -67.1530  -37.9130   25.6750 C.ar  735  TYR735      0.0417
    175  CE2      -65.6900  -36.2970   24.6380 C.ar  735  TYR735      0.0417
    176  CZ       -66.6490  -37.3100   24.5220 C.ar  735  TYR735      0.1957
    177  OH       -67.0720  -37.7430   23.2740 O.3   735  TYR735     -0.2866
@<TRIPOS>BOND
     1    12    13    1
     2   122   123    2
     3   122   121    1
     4    16    13    1
     5    16    17    1
     6   146   145    2
     7    13    14    1
     8    27    26    2
     9   121   120    1
    10   121   124    1
    11   125   126    1
    12   125   124    1
    13   128   126   am
    14   129   130    1
    15    28    29    1
    16    28    25    1
    17    19    17   am
    18   145   144    1
    19    15    14    2
    20    17    18    2
    21   126   127    2
    22    29    30   ar
    23    29    31   ar
    24    30    32   ar
    25    31    33   ar
    26    26    25    1
    27   143   144    1
    28   143   131   am
    29    32    34   ar
    30   147   144    1
    31   147   148    1
    32   130   131    1
    33   130   133    1
    34    33    34   ar
    35    34    35    1
    36   141   139   ar
    37   141   142   ar
    38    25    24    1
    39   131   132    2
    40   139   136   ar
    41   150   148   ar
    42   150   152   ar
    43   142   140   ar
    44    96    97    2
    45    96    95    1
    46   148   149   ar
    47    24    22   am
    48   136   134   ar
    49   136   138   ar
    50   133   134    1
    51   140   138   ar
    52   152   153   ar
    53   134   135   ar
    54   138   137   ar
    55    95    98    1
    56    95    94    1
    57    20    21    1
    58    22    21    1
    59    22    23    2
    60    98    99    1
    61   149   151   ar
    62   135   137   ar
    63    64    62   ar
    64    64    65   ar
    65   100    99   ar
    66   100   102   ar
    67   153   151   ar
    68   153   154    1
    69   119   118   ar
    70   119   117   ar
    71    99   101   ar
    72    62    61   ar
    73    67    65   ar
    74    67    69   ar
    75   102   104   ar
    76   118   116   ar
    77    65    63   ar
    78   117   115   ar
    79    59    58    2
    80    58    57    1
    81   116   113   ar
    82   101   103   ar
    83    61    63   ar
    84    61    60    1
    85    69    68   ar
    86   115   113   ar
    87   115   114   ar
    88    63    66   ar
    89   104   103   ar
    90   104   105    1
    91   113   111   ar
    92    57    60    1
    93    57    56    1
    94   106   107    1
    95   114   112   ar
    96     7     6    1
    97     7     8    1
    98     6     5    1
    99    68    66   ar
   100   111   112   ar
   101   111   110    1
   102    10     9    1
   103     5     2    1
   104     2     3    1
   105     2     1    1
   106   107   110    1
   107   107   108    1
   108     8     9    2
   109    87    88    2
   110    87    86    1
   111     9    11    1
   112     3     4    2
   113   108   109    2
   114    89    86    1
   115    89    90    1
   116    92    91    2
   117    86    85    1
   118    91    90    1
   119    91    93   am
   120    47    49   ar
   121    47    45   ar
   122    44    45   ar
   123    44    42   ar
   124    49    48   ar
   125    45    43   ar
   126   177   176    1
   127    42    41   ar
   128    48    46   ar
   129   165   163   ar
   130   165   164   ar
   131    43    41   ar
   132    43    46   ar
   133   163   161   ar
   134    41    40    1
   135   176   175   ar
   136   176   174   ar
   137   175   173   ar
   138   164   162   ar
   139   161   160   ar
   140    40    37    1
   141   174   172   ar
   142    37    36    1
   143    37    38    1
   144   173   171   ar
   145    50    38   am
   146    50    51    1
   147   162   160   ar
   148   160   159    1
   149    38    39    2
   150    83    82    1
   151   172   171   ar
   152    51    54    1
   153    51    52    1
   154    54    55    1
   155   171   170    1
   156    81    80    2
   157    80    79    1
   158   159   156    1
   159    82    79    1
   160    82    84    1
   161    76    77    1
   162    76    75    1
   163    52    53    2
   164   170   167    1
   165   156   157    1
   166   156   155    1
   167    79    78    1
   168   166   157   am
   169   166   167    1
   170   157   158    2
   171   167   168    1
   172    75    74    1
   173   168   169    2
   174    74    71    1
   175    71    70    1
   176    71    72    1
   177    72    73    2
