@<TRIPOS>MOLECULE
tmp/2w77A00.pdb
 106 102 0 0 0
SMALL
GASTEIGER

@<TRIPOS>ATOM
      1  N        -17.6900  -31.1660   32.5700 N.3   234  PHE234     -0.1241
      2  CA       -17.9400  -30.4130   31.3500 C.3   234  PHE234      0.1605
      3  C        -18.8660  -29.2380   31.6180 C.2   234  PHE234      0.2264
      4  O        -19.8490  -29.3920   32.3050 O.2   234  PHE234     -0.2867
      5  CB       -18.6040  -31.2890   30.2800 C.3   234  PHE234      0.0534
      6  CG       -19.1150  -30.4930   29.1230 C.ar  234  PHE234     -0.0203
      7  CD1      -18.2470  -30.0940   28.0980 C.ar  234  PHE234     -0.0042
      8  CD2      -20.4340  -30.0680   29.0870 C.ar  234  PHE234     -0.0042
      9  CE1      -18.7020  -29.3190   27.0100 C.ar  234  PHE234     -0.0003
     10  CE2      -20.9140  -29.2880   27.9920 C.ar  234  PHE234     -0.0003
     11  CZ       -20.0450  -28.9160   26.9510 C.ar  234  PHE234     -0.0000
     12  N        -15.6770  -22.9340   26.7930 N.3   254  VAL254     -0.1231
     13  CA       -15.8600  -24.3980   26.9420 C.3   254  VAL254      0.1692
     14  C        -14.7680  -24.9930   27.8150 C.2   254  VAL254      0.2593
     15  O        -13.5700  -24.7360   27.6210 O.2   254  VAL254     -0.2718
     16  CB       -15.7810  -25.2630   25.6090 C.3   254  VAL254      0.0266
     17  CG1      -17.0400  -26.0940   25.4290 C.3   254  VAL254      0.0020
     18  CG2      -15.5490  -24.4600   24.3730 C.3   254  VAL254      0.0020
     19  N        -15.2020  -25.8510   28.7310 N.am  255  SER255     -0.1938
     20  CA       -14.3510  -26.3410   29.7890 C.3   255  SER255      0.2055
     21  C        -14.6460  -27.7780   30.1810 C.2   255  SER255      0.2644
     22  O        -15.8140  -28.1880   30.2110 O.2   255  SER255     -0.2714
     23  CB       -14.5530  -25.4920   31.0150 C.3   255  SER255      0.2130
     24  OG       -13.3400  -25.4750   31.7290 O.3   255  SER255     -0.2179
     25  N        -13.6110  -28.5460   30.5100 N.am  256  GLY256     -0.1940
     26  CA       -13.8720  -29.8980   30.9600 C.3   256  GLY256      0.1999
     27  C        -12.7680  -30.9100   30.7490 C.2   256  GLY256      0.2481
     28  O        -11.6740  -30.5460   30.2620 O.2   256  GLY256     -0.2729
     29  N        -13.0320  -32.1810   31.1530 N.am  257  PRO257     -0.2715
     30  CA       -12.0700  -33.2700   31.0070 C.3   257  PRO257      0.1536
     31  C        -12.0320  -33.7220   29.5650 C.2   257  PRO257      0.2598
     32  O        -13.0680  -33.7480   28.9160 O.2   257  PRO257     -0.2715
     33  CB       -12.6120  -34.3800   31.9250 C.3   257  PRO257      0.0310
     34  CG       -13.9870  -34.0630   32.1750 C.3   257  PRO257      0.0237
     35  CD       -14.2830  -32.6400   31.7710 C.3   257  PRO257      0.0939
     36  N        -10.8220  -34.0230   29.0930 N.am  258  LEU258     -0.1978
     37  CA       -10.5410  -34.4480   27.7240 C.3   258  LEU258      0.1596
     38  C        -10.1410  -35.9370   27.6600 C.2   258  LEU258      0.2287
     39  O         -9.8900  -36.4810   26.5970 O.2   258  LEU258     -0.2864
     40  CB        -9.4050  -33.5980   27.1610 C.3   258  LEU258      0.0297
     41  CG        -9.6470  -32.1610   26.7250 C.3   258  LEU258      0.0022
     42  CD1       -8.3060  -31.5300   26.7230 C.3   258  LEU258      0.0001
     43  CD2      -10.3270  -32.0510   25.3300 C.3   258  LEU258      0.0001
     44  N         -9.2130  -29.2040   29.8750 N.3   266  GLY266     -0.1210
     45  CA        -9.0030  -28.0400   29.0100 C.3   266  GLY266      0.1956
     46  C        -10.0190  -26.9110   29.1630 C.2   266  GLY266      0.2612
     47  O        -11.0920  -27.0750   29.7480 O.2   266  GLY266     -0.2717
     48  N         -9.6750  -25.7390   28.6680 N.am  267  ARG267     -0.1965
     49  CA       -10.6520  -24.7210   28.5940 C.3   267  ARG267      0.1729
     50  C        -10.3390  -23.8360   27.4140 C.2   267  ARG267      0.2616
     51  O         -9.1720  -23.5510   27.1540 O.2   267  ARG267     -0.2715
     52  CB       -10.7210  -23.9440   29.8980 C.3   267  ARG267      0.0348
     53  CG       -11.9430  -22.9950   29.9550 C.3   267  ARG267      0.0492
     54  CD       -12.2680  -22.5790   31.3780 C.3   267  ARG267      0.2205
     55  NE       -13.4250  -21.6990   31.3690 N.pl3 267  ARG267     -0.0865
     56  CZ       -13.9870  -21.1950   32.4580 C.cat 267  ARG267      0.5346
     57  NH1      -13.5100  -21.5030   33.6490 N.pl3 267  ARG267      0.1354
     58  NH2      -15.0340  -20.3980   32.3470 N.pl3 267  ARG267      0.1354
     59  N        -11.3810  -23.4300   26.6880 N.am  268  ALA268     -0.1977
     60  CA       -11.2070  -22.6880   25.4600 C.3   268  ALA268      0.1597
     61  C        -12.2310  -21.5680   25.3750 C.2   268  ALA268      0.2287
     62  O        -13.4250  -21.7900   25.5710 O.2   268  ALA268     -0.2864
     63  CB       -11.2980  -23.6350   24.2000 C.3   268  ALA268      0.0319
     64  N         -6.5410  -20.6950   25.2080 N.3   291  GLY291     -0.1210
     65  CA        -6.5700  -22.1370   25.3820 C.3   291  GLY291      0.1956
     66  C         -5.5880  -22.4380   26.4770 C.2   291  GLY291      0.2612
     67  O         -4.4900  -21.8550   26.4950 O.2   291  GLY291     -0.2717
     68  N         -6.0060  -23.3080   27.4030 N.am  292  ILE292     -0.1965
     69  CA        -5.1880  -23.7960   28.5180 C.3   292  ILE292      0.1727
     70  C         -5.5260  -25.2720   28.6280 C.2   292  ILE292      0.2616
     71  O         -6.6380  -25.6520   28.3250 O.2   292  ILE292     -0.2715
     72  CB        -5.4780  -23.0170   29.8360 C.3   292  ILE292      0.0290
     73  CG1       -4.7210  -23.6130   31.0270 C.3   292  ILE292      0.0022
     74  CG2       -6.9680  -22.9810   30.1760 C.3   292  ILE292      0.0023
     75  CD1       -4.5280  -22.5810   32.2040 C.3   292  ILE292      0.0001
     76  N         -4.5470  -26.0940   28.9800 N.am  293  LEU293     -0.1977
     77  CA        -4.6930  -27.5460   29.1040 C.3   293  LEU293      0.1596
     78  C         -3.9130  -27.8640   30.3600 C.2   293  LEU293      0.2287
     79  O         -2.8290  -27.2970   30.5780 O.2   293  LEU293     -0.2864
     80  CB        -4.0350  -28.3010   27.9480 C.3   293  LEU293      0.0297
     81  CG        -4.4550  -28.3540   26.4640 C.3   293  LEU293      0.0022
     82  CD1       -3.3130  -28.8490   25.6210 C.3   293  LEU293      0.0001
     83  CD2       -5.6530  -29.2430   26.1930 C.3   293  LEU293      0.0001
     84  N         -0.1820  -25.8020   30.3560 N.3   305  VAL305     -0.1231
     85  CA         0.3830  -25.0210   29.2690 C.3   305  VAL305      0.1692
     86  C         -0.7530  -24.2250   28.6640 C.2   305  VAL305      0.2593
     87  O         -1.8750  -24.7040   28.6020 O.2   305  VAL305     -0.2718
     88  CB         1.2620  -25.8910   28.2260 C.3   305  VAL305      0.0266
     89  CG1        1.9690  -27.0940   28.8820 C.3   305  VAL305      0.0020
     90  CG2        0.5000  -26.3430   27.0190 C.3   305  VAL305      0.0020
     91  N         -0.5150  -22.9970   28.2620 N.am  306  GLY306     -0.1942
     92  CA        -1.6250  -22.2150   27.7560 C.3   306  GLY306      0.2014
     93  C         -1.1800  -21.1240   26.8180 C.2   306  GLY306      0.2638
     94  O          0.0000  -20.7410   26.8140 O.2   306  GLY306     -0.2714
     95  N         -2.1210  -20.6300   26.0150 N.am  307  ALA307     -0.1977
     96  CA        -1.8740  -19.4980   25.1120 C.3   307  ALA307      0.1597
     97  C         -3.1060  -18.5730   25.0260 C.2   307  ALA307      0.2287
     98  O         -4.2860  -19.0480   25.1670 O.2   307  ALA307     -0.2864
     99  CB        -1.4700  -19.9700   23.7570 C.3   307  ALA307      0.0319
    100  N          2.3600  -17.0960   25.6200 N.3   355  VAL355     -0.1245
    101  CA         2.4220  -18.5120   25.6910 C.3   355  VAL355      0.1561
    102  C          3.0300  -18.8020   27.0250 C.2   355  VAL355      0.2260
    103  O          4.0110  -18.1740   27.3930 O.2   355  VAL355     -0.2867
    104  CB         3.2290  -19.1190   24.5720 C.3   355  VAL355      0.0252
    105  CG1        3.2160  -20.6630   24.6950 C.3   355  VAL355      0.0019
    106  CG2        2.6340  -18.7180   23.2340 C.3   355  VAL355      0.0019
@<TRIPOS>BOND
     1   106   104    1
     2    99    96    1
     3    63    60    1
     4    18    16    1
     5   104   105    1
     6   104   101    1
     7    97    96    1
     8    97    98    2
     9    96    95    1
    10    64    65    1
    11    43    41    1
    12    61    60    1
    13    61    62    2
    14    65    66    1
    15    17    16    1
    16    60    59    1
    17    16    13    1
    18   100   101    1
    19    82    81    1
    20   101   102    1
    21    95    93   am
    22    83    81    1
    23    81    80    1
    24    66    67    2
    25    66    68   am
    26    39    38    2
    27    59    50   am
    28    42    41    1
    29    41    40    1
    30    12    13    1
    31    94    93    2
    32    93    92    1
    33    13    14    1
    34    11     9   ar
    35    11    10   ar
    36     9     7   ar
    37    90    88    1
    38   102   103    2
    39    51    50    2
    40    40    37    1
    41    68    69    1
    42    50    49    1
    43    15    14    2
    44    38    37    1
    45    37    36    1
    46    92    91    1
    47    14    19   am
    48    80    77    1
    49    10     8   ar
    50     7     6   ar
    51    88    89    1
    52    88    85    1
    53    91    86   am
    54    71    70    2
    55    69    70    1
    56    69    72    1
    57    49    48    1
    58    49    52    1
    59    87    86    2
    60    70    76   am
    61    86    85    1
    62    48    46   am
    63    19    20    1
    64    32    31    2
    65    76    77    1
    66    45    46    1
    67    45    44    1
    68     8     6   ar
    69    36    31   am
    70    77    78    1
    71     6     5    1
    72    46    47    2
    73    85    84    1
    74    31    30    1
    75    20    21    1
    76    20    23    1
    77    72    74    1
    78    72    73    1
    79    52    53    1
    80    53    54    1
    81    21    22    2
    82    21    25   am
    83    28    27    2
    84     5     2    1
    85    78    79    2
    86    25    26    1
    87    27    26    1
    88    27    29   am
    89    30    29    1
    90    30    33    1
    91    23    24    1
    92    73    75    1
    93    29    35    1
    94     2     3    1
    95     2     1    1
    96    55    54    1
    97    55    56    2
    98     3     4    2
    99    35    34    1
   100    33    34    1
   101    58    56    1
   102    56    57    1
