@<TRIPOS>MOLECULE
tmp/2w77B00.pdb
 253 253 0 0 0
SMALL
GASTEIGER

@<TRIPOS>ATOM
      1  N        -60.7040  -28.5020   24.7760 N.3   139  TYR139     -0.1241
      2  CA       -61.0690  -29.9110   24.7800 C.3   139  TYR139      0.1605
      3  C        -59.8820  -30.6460   25.4220 C.2   139  TYR139      0.2264
      4  O        -60.0520  -31.4000   26.3980 O.2   139  TYR139     -0.2867
      5  CB       -61.1690  -30.4040   23.3720 C.3   139  TYR139      0.0534
      6  CG       -62.3370  -29.9030   22.5890 C.ar  139  TYR139     -0.0201
      7  CD1      -63.6410  -30.0850   23.0310 C.ar  139  TYR139     -0.0009
      8  CD2      -62.1510  -29.3320   21.3530 C.ar  139  TYR139     -0.0009
      9  CE1      -64.7170  -29.6790   22.2670 C.ar  139  TYR139      0.0417
     10  CE2      -63.2190  -28.9170   20.5900 C.ar  139  TYR139      0.0417
     11  CZ       -64.4950  -29.0920   21.0450 C.ar  139  TYR139      0.1957
     12  OH       -65.5510  -28.6590   20.2480 O.3   139  TYR139     -0.2866
     13  N        -56.3100  -29.7930   21.2720 N.3   143  ARG143     -0.1245
     14  CA       -57.4180  -29.3320   20.4660 C.3   143  ARG143      0.1563
     15  C        -58.1340  -28.2240   21.2060 C.2   143  ARG143      0.2260
     16  O        -58.2630  -28.2720   22.4130 O.2   143  ARG143     -0.2867
     17  CB       -58.4380  -30.4330   20.1500 C.3   143  ARG143      0.0307
     18  CG       -57.9180  -31.8420   19.7340 C.3   143  ARG143      0.0489
     19  CD       -59.1170  -32.8290   19.6330 C.3   143  ARG143      0.2205
     20  NE       -59.4050  -33.4660   20.9410 N.pl3 143  ARG143     -0.0865
     21  CZ       -60.5480  -34.0870   21.2780 C.cat 143  ARG143      0.5346
     22  NH1      -61.5870  -34.1300   20.4250 N.pl3 143  ARG143      0.1354
     23  NH2      -60.6570  -34.6600   22.4920 N.pl3 143  ARG143      0.1354
     24  N        -66.6350  -23.6390   12.8790 N.3   154  ASN154     -0.1240
     25  CA       -66.2080  -24.8720   12.2400 C.3   154  ASN154      0.1653
     26  C        -66.0310  -24.7040   10.7150 C.2   154  ASN154      0.2266
     27  O        -66.0470  -25.6790   10.0080 O.2   154  ASN154     -0.2867
     28  CB       -67.1290  -26.0620   12.6510 C.3   154  ASN154      0.1155
     29  CG       -66.6640  -27.4410   12.0620 C.2   154  ASN154      0.2627
     30  OD1      -65.4750  -27.6540   11.7710 O.2   154  ASN154     -0.2716
     31  ND2      -67.6130  -28.3590   11.8820 N.am  154  ASN154     -0.0877
     32  N        -63.5260  -30.9670    8.6040 N.3   166  ARG166     -0.1231
     33  CA       -64.4960  -30.3130    9.4890 C.3   166  ARG166      0.1694
     34  C        -64.8860  -31.1130   10.7390 C.2   166  ARG166      0.2592
     35  O        -65.8950  -30.7760   11.3600 O.2   166  ARG166     -0.2718
     36  CB       -65.7960  -30.0940    8.7370 C.3   166  ARG166      0.0321
     37  CG       -65.6620  -29.6670    7.3310 C.3   166  ARG166      0.0489
     38  CD       -67.0630  -29.3850    6.8280 C.3   166  ARG166      0.2205
     39  NE       -67.8550  -28.7250    7.8700 N.pl3 166  ARG166     -0.0865
     40  CZ       -67.9580  -27.4060    8.0310 C.cat 166  ARG166      0.5346
     41  NH1      -67.3270  -26.5570    7.2090 N.pl3 166  ARG166      0.1354
     42  NH2      -68.6980  -26.9280    9.0230 N.pl3 166  ARG166      0.1354
     43  N        -64.1190  -32.1510   11.0930 N.am  167  ASN167     -0.1960
     44  CA       -64.4500  -33.0080   12.2220 C.3   167  ASN167      0.1819
     45  C        -63.3130  -33.1320   13.2940 C.2   167  ASN167      0.2621
     46  O        -62.3540  -33.8900   13.1120 O.2   167  ASN167     -0.2715
     47  CB       -64.9180  -34.3380   11.6670 C.3   167  ASN167      0.1195
     48  CG       -65.2750  -35.3400   12.7310 C.2   167  ASN167      0.2630
     49  OD1      -64.8450  -35.2500   13.8840 O.2   167  ASN167     -0.2716
     50  ND2      -66.0620  -36.3330   12.3400 N.am  167  ASN167     -0.0877
     51  N        -63.4550  -32.3790   14.4070 N.am  168  VAL168     -0.1963
     52  CA       -62.4330  -32.2440   15.4880 C.3   168  VAL168      0.1727
     53  C        -62.2600  -33.4830   16.3470 C.2   168  VAL168      0.2617
     54  O        -61.3600  -33.5250   17.2150 O.2   168  VAL168     -0.2715
     55  CB       -62.7080  -31.0550   16.4940 C.3   168  VAL168      0.0290
     56  CG1      -62.3670  -29.6530   15.8740 C.3   168  VAL168      0.0023
     57  CG2      -64.1250  -31.1380   17.0960 C.3   168  VAL168      0.0023
     58  N        -63.1370  -34.4670   16.1460 N.am  169  GLY169     -0.1940
     59  CA       -62.9670  -35.7770   16.7850 C.3   169  GLY169      0.2014
     60  C        -61.6880  -36.3690   16.2270 C.2   169  GLY169      0.2638
     61  O        -60.9200  -37.0440   16.9120 O.2   169  GLY169     -0.2714
     62  N        -61.4630  -36.0600   14.9590 N.am  170  TYR170     -0.1973
     63  CA       -60.2690  -36.4450   14.2600 C.3   170  TYR170      0.1639
     64  C        -59.5580  -35.1560   13.8580 C.2   170  TYR170      0.2290
     65  O        -59.4280  -34.8360   12.6510 O.2   170  TYR170     -0.2864
     66  CB       -60.6620  -37.2930   13.0620 C.3   170  TYR170      0.0560
     67  CG       -61.4470  -38.5100   13.4670 C.ar  170  TYR170     -0.0198
     68  CD1      -62.8530  -38.4730   13.5300 C.ar  170  TYR170     -0.0009
     69  CD2      -60.8030  -39.7090   13.8050 C.ar  170  TYR170     -0.0009
     70  CE1      -63.6130  -39.6360   13.8930 C.ar  170  TYR170      0.0417
     71  CE2      -61.5500  -40.8670   14.1610 C.ar  170  TYR170      0.0417
     72  CZ       -62.9440  -40.8140   14.1890 C.ar  170  TYR170      0.1957
     73  OH       -63.6710  -41.9030   14.5500 O.3   170  TYR170     -0.2866
     74  N        -56.2800  -36.1100   26.9920 N.3   301  TRP301     -0.1227
     75  CA       -57.4700  -36.3750   26.2160 C.3   301  TRP301      0.1737
     76  C        -58.6550  -36.2390   27.1640 C.2   301  TRP301      0.2596
     77  O        -58.5680  -36.6510   28.3390 O.2   301  TRP301     -0.2718
     78  CB       -57.3710  -37.7710   25.6730 C.3   301  TRP301      0.0564
     79  CG       -58.3350  -38.1500   24.6360 C.ar  301  TRP301      0.0003
     80  CD1      -59.0060  -37.3290   23.7630 C.ar  301  TRP301      0.0946
     81  CD2      -58.7150  -39.5140   24.3040 C.ar  301  TRP301      0.0152
     82  NE1      -59.8020  -38.1140   22.9160 N.ar  301  TRP301     -0.2442
     83  CE2      -59.6330  -39.4470   23.2290 C.ar  301  TRP301      0.0810
     84  CE3      -58.3590  -40.7800   24.8190 C.ar  301  TRP301      0.0012
     85  CZ2      -60.1890  -40.5990   22.6480 C.ar  301  TRP301      0.0191
     86  CZ3      -58.9230  -41.9160   24.2480 C.ar  301  TRP301      0.0001
     87  CH2      -59.8330  -41.8140   23.1680 C.ar  301  TRP301      0.0015
     88  N        -59.7460  -35.6650   26.6230 N.am  302  SER302     -0.1952
     89  CA       -60.8740  -35.1190   27.3810 C.3   302  SER302      0.1924
     90  C        -60.4700  -34.4040   28.6720 C.2   302  SER302      0.2314
     91  O        -60.4210  -34.9910   29.7420 O.2   302  SER302     -0.2863
     92  CB       -62.0190  -36.1360   27.5740 C.3   302  SER302      0.2116
     93  OG       -61.6000  -37.3040   28.2230 O.3   302  SER302     -0.2180
     94  N        -51.2080  -36.7360   20.2220 N.3   330  TRP330     -0.1241
     95  CA       -52.1080  -36.3970   19.1420 C.3   330  TRP330      0.1605
     96  C        -51.3570  -35.6650   18.0430 C.2   330  TRP330      0.2264
     97  O        -51.5720  -34.4680   17.8080 O.2   330  TRP330     -0.2867
     98  CB       -53.2660  -35.5390   19.6200 C.3   330  TRP330      0.0550
     99  CG       -54.3940  -35.5430   18.6400 C.ar  330  TRP330      0.0003
    100  CD1      -54.2960  -35.4750   17.2880 C.ar  330  TRP330      0.0946
    101  CD2      -55.7710  -35.6030   18.9280 C.ar  330  TRP330      0.0152
    102  NE1      -55.5280  -35.5200   16.6970 N.ar  330  TRP330     -0.2442
    103  CE2      -56.4620  -35.5900   17.6830 C.ar  330  TRP330      0.0810
    104  CE3      -56.5030  -35.6910   20.1130 C.ar  330  TRP330      0.0012
    105  CZ2      -57.8470  -35.6710   17.5830 C.ar  330  TRP330      0.0191
    106  CZ3      -57.8810  -35.7950   20.0260 C.ar  330  TRP330      0.0001
    107  CH2      -58.5480  -35.7780   18.7590 C.ar  330  TRP330      0.0015
    108  N        -59.1050  -41.1650   32.5480 N.3   370  MET370     -0.1230
    109  CA       -60.4610  -40.6580   32.5650 C.3   370  MET370      0.1702
    110  C        -61.5020  -41.5400   33.2570 C.2   370  MET370      0.2592
    111  O        -61.3020  -42.7700   33.4940 O.2   370  MET370     -0.2718
    112  CB       -60.9270  -40.2260   31.1800 C.3   370  MET370      0.0401
    113  CG       -61.0850  -41.3030   30.1490 C.3   370  MET370      0.0596
    114  SD       -61.2500  -40.4860   28.5390 S.3   370  MET370     -0.1393
    115  CE       -59.9710  -39.2770   28.7680 C.3   370  MET370      0.0692
    116  N        -62.6190  -40.8820   33.5760 N.am  371  GLY371     -0.1957
    117  CA       -63.6630  -41.4670   34.3980 C.3   371  GLY371      0.1869
    118  C        -63.5400  -40.9090   35.7900 C.2   371  GLY371      0.2309
    119  O        -62.7950  -39.9510   36.0030 O.2   371  GLY371     -0.2863
    120  N        -62.1270  -40.8250   39.0000 N.3   373  TRP373     -0.1241
    121  CA       -60.9390  -41.2540   39.7440 C.3   373  TRP373      0.1605
    122  C        -60.3990  -40.0580   40.5390 C.2   373  TRP373      0.2264
    123  O        -60.7310  -38.9090   40.2160 O.2   373  TRP373     -0.2867
    124  CB       -59.8690  -41.8480   38.7800 C.3   373  TRP373      0.0550
    125  CG       -60.4370  -42.9720   37.8780 C.ar  373  TRP373      0.0003
    126  CD1      -60.7160  -42.8960   36.5320 C.ar  373  TRP373      0.0946
    127  CD2      -60.8660  -44.2800   38.2920 C.ar  373  TRP373      0.0152
    128  NE1      -61.2720  -44.0750   36.0810 N.ar  373  TRP373     -0.2442
    129  CE2      -61.3750  -44.9430   37.1370 C.ar  373  TRP373      0.0810
    130  CE3      -60.8530  -44.9620   39.5150 C.ar  373  TRP373      0.0012
    131  CZ2      -61.8600  -46.2560   37.1700 C.ar  373  TRP373      0.0191
    132  CZ3      -61.3410  -46.2660   39.5490 C.ar  373  TRP373      0.0001
    133  CH2      -61.8370  -46.9000   38.3770 C.ar  373  TRP373      0.0015
    134  N        -57.9850  -44.7670   29.9060 N.3   383  VAL383     -0.1245
    135  CA       -58.6860  -45.1440   28.6790 C.3   383  VAL383      0.1561
    136  C        -57.6820  -44.8730   27.5510 C.2   383  VAL383      0.2260
    137  O        -57.0580  -43.7920   27.5190 O.2   383  VAL383     -0.2867
    138  CB       -59.9430  -44.2680   28.5000 C.3   383  VAL383      0.0252
    139  CG1      -60.5020  -44.3650   27.1120 C.3   383  VAL383      0.0019
    140  CG2      -60.9810  -44.6270   29.5510 C.3   383  VAL383      0.0019
    141  N        -56.7100  -45.4670   23.1750 N.3   385  GLN385     -0.1245
    142  CA       -57.1940  -45.6990   21.8060 C.3   385  GLN385      0.1566
    143  C        -56.3200  -44.9660   20.8210 C.2   385  GLN385      0.2260
    144  O        -55.8350  -43.8720   21.1270 O.2   385  GLN385     -0.2867
    145  CB       -58.6390  -45.2570   21.6710 C.3   385  GLN385      0.0367
    146  CG       -59.5200  -46.2440   22.4390 C.3   385  GLN385      0.0905
    147  CD       -60.9540  -46.1690   22.0690 C.2   385  GLN385      0.2608
    148  OE1      -61.5090  -45.0810   21.9560 O.2   385  GLN385     -0.2717
    149  NE2      -61.5740  -47.3200   21.8660 N.am  385  GLN385     -0.0878
    150  N        -55.8220  -43.4850   16.8310 N.3   387  TYR387     -0.1241
    151  CA       -56.5880  -43.0250   15.6510 C.3   387  TYR387      0.1605
    152  C        -55.6080  -42.4650   14.6760 C.2   387  TYR387      0.2264
    153  O        -54.9160  -41.4800   14.9750 O.2   387  TYR387     -0.2867
    154  CB       -57.5830  -41.8830   15.9730 C.3   387  TYR387      0.0534
    155  CG       -58.5410  -42.2140   17.0610 C.ar  387  TYR387     -0.0201
    156  CD1      -59.6720  -42.9810   16.8070 C.ar  387  TYR387     -0.0009
    157  CD2      -58.2820  -41.8140   18.3630 C.ar  387  TYR387     -0.0009
    158  CE1      -60.5150  -43.3370   17.8230 C.ar  387  TYR387      0.0417
    159  CE2      -59.1310  -42.1360   19.3850 C.ar  387  TYR387      0.0417
    160  CZ       -60.2450  -42.9150   19.1220 C.ar  387  TYR387      0.1957
    161  OH       -61.0960  -43.2500   20.1750 O.3   387  TYR387     -0.2866
    162  N        -59.0330  -50.1740   18.9680 N.3   430  TRP430     -0.1241
    163  CA       -59.5150  -50.1340   20.3630 C.3   430  TRP430      0.1605
    164  C        -59.6640  -51.4140   21.1580 C.2   430  TRP430      0.2264
    165  O        -60.0470  -51.3910   22.3120 O.2   430  TRP430     -0.2867
    166  CB       -60.7490  -49.2480   20.4780 C.3   430  TRP430      0.0550
    167  CG       -61.8630  -49.7080   19.6890 C.ar  430  TRP430      0.0003
    168  CD1      -62.5250  -50.8640   19.8650 C.ar  430  TRP430      0.0946
    169  CD2      -62.5100  -49.0290   18.6120 C.ar  430  TRP430      0.0152
    170  NE1      -63.5550  -50.9720   18.9580 N.ar  430  TRP430     -0.2442
    171  CE2      -63.5650  -49.8620   18.1670 C.ar  430  TRP430      0.0810
    172  CE3      -62.3020  -47.8230   17.9750 C.ar  430  TRP430      0.0012
    173  CZ2      -64.4200  -49.5210   17.1130 C.ar  430  TRP430      0.0191
    174  CZ3      -63.1600  -47.4720   16.9210 C.ar  430  TRP430      0.0001
    175  CH2      -64.2000  -48.3230   16.5020 C.ar  430  TRP430      0.0015
    176  N        -61.7800  -50.4630   13.1880 N.3   459  GLN459     -0.1245
    177  CA       -62.6600  -49.6820   12.3380 C.3   459  GLN459      0.1566
    178  C        -61.8980  -49.2170   11.0960 C.2   459  GLN459      0.2260
    179  O        -60.6770  -49.0060   11.1500 O.2   459  GLN459     -0.2867
    180  CB       -63.1720  -48.4900   13.1130 C.3   459  GLN459      0.0367
    181  CG       -64.1040  -47.6750   12.2970 C.3   459  GLN459      0.0905
    182  CD       -64.7640  -46.5930   13.0880 C.2   459  GLN459      0.2608
    183  OE1      -64.1180  -45.9550   13.9260 O.2   459  GLN459     -0.2717
    184  NE2      -66.0520  -46.3500   12.8180 N.am  459  GLN459     -0.0878
    185  N        -74.6610  -34.5020   10.4290 N.3   536  ASP536     -0.1239
    186  CA       -73.8850  -35.7110   10.7930 C.3   536  ASP536      0.1674
    187  C        -74.7950  -36.9270   10.6200 C.2   536  ASP536      0.2266
    188  O        -75.9350  -36.9460   11.0750 O.2   536  ASP536     -0.2867
    189  CB       -73.4320  -35.6920   12.2790 C.3   536  ASP536      0.1410
    190  CG       -72.2490  -34.7220   12.5720 C.2   536  ASP536      0.3668
    191  OD1      -71.5950  -34.2270   11.6210 O.co2 536  ASP536     -0.2456
    192  OD2      -71.9690  -34.4630   13.7850 O.co2 536  ASP536     -0.2456
    193  N        -75.7650  -39.5060   11.9910 N.3   538  TRP538     -0.1227
    194  CA       -76.5390  -40.1910   13.0460 C.3   538  TRP538      0.1737
    195  C        -77.7560  -39.4470   13.6050 C.2   538  TRP538      0.2595
    196  O        -78.5400  -39.9950   14.3970 O.2   538  TRP538     -0.2718
    197  CB       -75.6250  -40.5990   14.1880 C.3   538  TRP538      0.0564
    198  CG       -74.6410  -39.5680   14.4770 C.ar  538  TRP538      0.0003
    199  CD1      -74.7900  -38.4960   15.3120 C.ar  538  TRP538      0.0946
    200  CD2      -73.3250  -39.4760   13.9270 C.ar  538  TRP538      0.0152
    201  NE1      -73.6370  -37.7330   15.3180 N.ar  538  TRP538     -0.2442
    202  CE2      -72.7210  -38.3150   14.4800 C.ar  538  TRP538      0.0810
    203  CE3      -72.5960  -40.2640   13.0130 C.ar  538  TRP538      0.0012
    204  CZ2      -71.4250  -37.9120   14.1520 C.ar  538  TRP538      0.0191
    205  CZ3      -71.3040  -39.8690   12.6820 C.ar  538  TRP538      0.0001
    206  CH2      -70.7310  -38.6910   13.2540 C.ar  538  TRP538      0.0015
    207  N        -77.9100  -38.1950   13.2060 N.am  539  TYR539     -0.1976
    208  CA       -79.0470  -37.3860   13.6570 C.3   539  TYR539      0.1639
    209  C        -80.3150  -37.6920   12.8520 C.2   539  TYR539      0.2290
    210  O        -80.5790  -37.0990   11.8150 O.2   539  TYR539     -0.2864
    211  CB       -78.6880  -35.8900   13.6520 C.3   539  TYR539      0.0560
    212  CG       -77.6050  -35.5280   14.6430 C.ar  539  TYR539     -0.0198
    213  CD1      -77.7680  -35.8070   16.0090 C.ar  539  TYR539     -0.0009
    214  CD2      -76.4190  -34.9070   14.2340 C.ar  539  TYR539     -0.0009
    215  CE1      -76.7980  -35.4820   16.9230 C.ar  539  TYR539      0.0417
    216  CE2      -75.4340  -34.5640   15.1660 C.ar  539  TYR539      0.0417
    217  CZ       -75.6460  -34.8580   16.4970 C.ar  539  TYR539      0.1957
    218  OH       -74.7130  -34.5570   17.4390 O.3   539  TYR539     -0.2866
    219  N        -83.8620  -38.1950   17.2980 N.3   602  TYR602     -0.1241
    220  CA       -83.6610  -36.7570   17.4190 C.3   602  TYR602      0.1605
    221  C        -84.7350  -36.0070   16.6680 C.2   602  TYR602      0.2264
    222  O        -85.2710  -36.5340   15.7040 O.2   602  TYR602     -0.2867
    223  CB       -82.3240  -36.3550   16.8200 C.3   602  TYR602      0.0534
    224  CG       -81.1460  -36.9200   17.5390 C.ar  602  TYR602     -0.0201
    225  CD1      -80.7010  -38.2160   17.2760 C.ar  602  TYR602     -0.0009
    226  CD2      -80.4620  -36.1670   18.4700 C.ar  602  TYR602     -0.0009
    227  CE1      -79.6130  -38.7510   17.9380 C.ar  602  TYR602      0.0417
    228  CE2      -79.3620  -36.6830   19.1360 C.ar  602  TYR602      0.0417
    229  CZ       -78.9500  -37.9740   18.8690 C.ar  602  TYR602      0.1957
    230  OH       -77.8780  -38.4880   19.5280 O.3   602  TYR602     -0.2866
    231  N        -66.5220  -31.0030   29.6980 N.3   734  PHE734     -0.1227
    232  CA       -66.3290  -31.7360   28.4680 C.3   734  PHE734      0.1736
    233  C        -65.9520  -33.1540   28.8670 C.2   734  PHE734      0.2595
    234  O        -64.8390  -33.3770   29.3610 O.2   734  PHE734     -0.2718
    235  CB       -65.2540  -31.0880   27.5950 C.3   734  PHE734      0.0547
    236  CG       -64.8280  -31.9440   26.4340 C.ar  734  PHE734     -0.0202
    237  CD1      -65.7140  -32.2080   25.3860 C.ar  734  PHE734     -0.0042
    238  CD2      -63.5150  -32.4540   26.3670 C.ar  734  PHE734     -0.0042
    239  CE1      -65.3400  -33.0010   24.2700 C.ar  734  PHE734     -0.0003
    240  CE2      -63.1140  -33.2240   25.2490 C.ar  734  PHE734     -0.0003
    241  CZ       -64.0700  -33.5150   24.1890 C.ar  734  PHE734     -0.0000
    242  N        -66.8910  -34.0890   28.6760 N.am  735  TYR735     -0.1976
    243  CA       -66.8120  -35.4460   29.2480 C.3   735  TYR735      0.1639
    244  C        -66.3940  -35.3760   30.6910 C.2   735  TYR735      0.2290
    245  O        -65.4240  -36.0290   31.0860 O.2   735  TYR735     -0.2864
    246  CB       -65.8050  -36.2980   28.5110 C.3   735  TYR735      0.0560
    247  CG       -66.1860  -36.6930   27.1060 C.ar  735  TYR735     -0.0198
    248  CD1      -67.0830  -37.7350   26.8790 C.ar  735  TYR735     -0.0009
    249  CD2      -65.6010  -36.0590   25.9930 C.ar  735  TYR735     -0.0009
    250  CE1      -67.4370  -38.1310   25.5780 C.ar  735  TYR735      0.0417
    251  CE2      -65.9450  -36.4340   24.6780 C.ar  735  TYR735      0.0417
    252  CZ       -66.8650  -37.4850   24.4710 C.ar  735  TYR735      0.1957
    253  OH       -67.1840  -37.9150   23.1890 O.3   735  TYR735     -0.2866
@<TRIPOS>BOND
     1    38    37    1
     2    38    39    1
     3    41    40    1
     4    37    36    1
     5    39    40    2
     6    40    42    1
     7    32    33    1
     8    36    33    1
     9    33    34    1
    10    27    26    2
    11   185   186    1
    12   187   186    1
    13   187   188    2
    14    26    25    1
    15    34    43   am
    16    34    35    2
    17   186   189    1
    18    43    44    1
    19   178   179    2
    20   178   177    1
    21   191   190   ar
    22    47    44    1
    23    47    48    1
    24    30    29    2
    25   210   209    2
    26    31    29   am
    27   193   194    1
    28    29    28    1
    29    44    45    1
    30    25    28    1
    31    25    24    1
    32   189   190    1
    33   181   182    1
    34   181   180    1
    35   177   180    1
    36   177   176    1
    37    50    48   am
    38   190   192   ar
    39    65    64    2
    40   205   203   ar
    41   205   206   ar
    42    48    49    2
    43   184   182   am
    44   209   208    1
    45   203   200   ar
    46   194   195    1
    47   194   197    1
    48    66    67    1
    49    66    63    1
    50   182   183    2
    51    46    45    2
    52   207   195   am
    53   207   208    1
    54   206   204   ar
    55    45    51   am
    56    67    68   ar
    57    67    69   ar
    58    68    70   ar
    59   195   196    2
    60   211   208    1
    61   211   212    1
    62    69    71   ar
    63    64    63    1
    64    70    72   ar
    65   200   198   ar
    66   200   202   ar
    67   204   202   ar
    68    71    72   ar
    69   197   198    1
    70    72    73    1
    71   214   212   ar
    72   214   216   ar
    73    63    62    1
    74    51    52    1
    75   198   199   ar
    76   202   201   ar
    77   212   213   ar
    78   152   153    2
    79   152   151    1
    80    62    60   am
    81   216   217   ar
    82   199   201   ar
    83    52    53    1
    84    52    55    1
    85   151   154    1
    86   151   150    1
    87   222   221    2
    88    56    55    1
    89   154   155    1
    90   213   215   ar
    91    58    53   am
    92    58    59    1
    93    60    59    1
    94    60    61    2
    95    53    54    2
    96    55    57    1
    97   217   215   ar
    98   217   218    1
    99   175   174   ar
   100   175   173   ar
   101   221   220    1
   102   102   100   ar
   103   102   103   ar
   104   156   155   ar
   105   156   158   ar
   106   223   220    1
   107   223   224    1
   108   174   172   ar
   109   155   157   ar
   110   173   171   ar
   111   225   224   ar
   112   225   227   ar
   113   100    99   ar
   114   219   220    1
   115   224   226   ar
   116   105   103   ar
   117   105   107   ar
   118   103   101   ar
   119    97    96    2
   120   158   160   ar
   121   227   229   ar
   122   172   169   ar
   123    96    95    1
   124   171   169   ar
   125   171   170   ar
   126   157   159   ar
   127   226   228   ar
   128   169   167   ar
   129    99   101   ar
   130    99    98    1
   131   107   106   ar
   132   229   228   ar
   133   229   230    1
   134   101   104   ar
   135   170   168   ar
   136   162   163    1
   137   160   159   ar
   138   160   161    1
   139    95    98    1
   140    95    94    1
   141    19    18    1
   142    19    20    1
   143   167   168   ar
   144   167   166    1
   145    18    17    1
   146   106   104   ar
   147    17    14    1
   148    12    11    1
   149   163   166    1
   150   163   164    1
   151    22    21    1
   152    14    15    1
   153    14    13    1
   154    10    11   ar
   155    10     8   ar
   156   143   144    2
   157   143   142    1
   158    20    21    2
   159    11     9   ar
   160   164   165    2
   161    15    16    2
   162    21    23    1
   163     8     6   ar
   164   145   142    1
   165   145   146    1
   166   142   141    1
   167   149   147   am
   168   148   147    2
   169   147   146    1
   170     9     7   ar
   171     6     7   ar
   172     6     5    1
   173    85    87   ar
   174    85    83   ar
   175    82    83   ar
   176    82    80   ar
   177    87    86   ar
   178   253   252    1
   179    83    81   ar
   180     5     2    1
   181    80    79   ar
   182   241   239   ar
   183   241   240   ar
   184    86    84   ar
   185   239   237   ar
   186    81    79   ar
   187    81    84   ar
   188   252   251   ar
   189   252   250   ar
   190    79    78    1
   191   251   249   ar
   192     1     2    1
   193     2     3    1
   194   240   238   ar
   195   237   236   ar
   196     3     4    2
   197   250   248   ar
   198    78    75    1
   199   249   247   ar
   200    75    74    1
   201    75    76    1
   202   238   236   ar
   203   236   235    1
   204    88    76   am
   205    88    89    1
   206   248   247   ar
   207   247   246    1
   208   139   138    1
   209    76    77    2
   210    89    92    1
   211    89    90    1
   212   137   136    2
   213   136   135    1
   214    92    93    1
   215   235   232    1
   216   232   233    1
   217   232   231    1
   218   138   135    1
   219   138   140    1
   220   246   243    1
   221   114   115    1
   222   114   113    1
   223    90    91    2
   224   242   233   am
   225   242   243    1
   226   135   134    1
   227   233   234    2
   228   243   244    1
   229   113   112    1
   230   244   245    2
   231   112   109    1
   232   108   109    1
   233   109   110    1
   234   110   111    2
   235   110   116   am
   236   116   117    1
   237   117   118    1
   238   118   119    2
   239   128   126   ar
   240   128   129   ar
   241   126   125   ar
   242   129   131   ar
   243   129   127   ar
   244   131   133   ar
   245   125   127   ar
   246   125   124    1
   247   127   130   ar
   248   133   132   ar
   249   124   121    1
   250   120   121    1
   251   130   132   ar
   252   121   122    1
   253   123   122    2
