@<TRIPOS>MOLECULE
tmp/2w77B01.pdb
 97 92 0 0 0
SMALL
GASTEIGER

@<TRIPOS>ATOM
      1  N        -35.2780  -15.3940   16.8240 N.3   222  LEU222     -0.1231
      2  CA       -35.0610  -16.4290   17.8500 C.3   222  LEU222      0.1693
      3  C        -35.8220  -16.0840   19.1380 C.2   222  LEU222      0.2593
      4  O        -35.6110  -15.0300   19.6790 O.2   222  LEU222     -0.2718
      5  CB       -33.5690  -16.5280   18.1450 C.3   222  LEU222      0.0284
      6  CG       -32.6880  -16.9540   16.9690 C.3   222  LEU222      0.0019
      7  CD1      -31.2800  -17.1510   17.4810 C.3   222  LEU222      0.0001
      8  CD2      -33.2070  -18.2470   16.3290 C.3   222  LEU222      0.0001
      9  N        -36.7070  -16.9400   19.6240 N.am  223  GLY223     -0.1942
     10  CA       -37.4620  -16.6340   20.8450 C.3   223  GLY223      0.2014
     11  C        -37.3130  -17.6710   21.9710 C.2   223  GLY223      0.2638
     12  O        -37.0640  -18.8680   21.7040 O.2   223  GLY223     -0.2714
     13  N        -37.4420  -17.2260   23.2300 N.am  224  ALA224     -0.1977
     14  CA       -37.3450  -18.1140   24.4140 C.3   224  ALA224      0.1597
     15  C        -38.4010  -17.6840   25.3790 C.2   224  ALA224      0.2287
     16  O        -38.5420  -16.4830   25.5830 O.2   224  ALA224     -0.2864
     17  CB       -36.0050  -18.0010   25.0890 C.3   224  ALA224      0.0319
     18  N        -36.2490   11.4070   21.7320 N.3   663  ALA663     -0.1231
     19  CA       -35.2360   10.7430   22.5660 C.3   663  ALA663      0.1694
     20  C        -35.4430    9.2250   22.6820 C.2   663  ALA663      0.2591
     21  O        -34.4740    8.4690   22.6450 O.2   663  ALA663     -0.2718
     22  CB       -35.1470   11.3980   23.9510 C.3   663  ALA663      0.0304
     23  N        -36.6860    8.7740   22.7950 N.am  664  LEU664     -0.1980
     24  CA       -36.9520    7.3520   22.9470 C.3   664  LEU664      0.1596
     25  C        -37.6170    6.7050   21.7340 C.2   664  LEU664      0.2287
     26  O        -38.4290    5.8400   21.9160 O.2   664  LEU664     -0.2864
     27  CB       -37.8830    7.1380   24.1370 C.3   664  LEU664      0.0297
     28  CG       -37.5100    7.5670   25.5440 C.3   664  LEU664      0.0022
     29  CD1      -38.7970    7.7850   26.3040 C.3   664  LEU664      0.0001
     30  CD2      -36.6520    6.5000   26.2200 C.3   664  LEU664      0.0001
     31  N        -38.0120    2.7800   21.2310 N.3   667  LEU667     -0.1245
     32  CA       -38.8580    2.0490   22.1730 C.3   667  LEU667      0.1561
     33  C        -40.2900    1.9990   21.7190 C.2   667  LEU667      0.2260
     34  O        -40.8600    3.0380   21.3380 O.2   667  LEU667     -0.2867
     35  CB       -38.8220    2.6880   23.5580 C.3   667  LEU667      0.0270
     36  CG       -39.6870    1.9580   24.6040 C.3   667  LEU667      0.0019
     37  CD1      -39.4290    0.4280   24.5840 C.3   667  LEU667      0.0001
     38  CD2      -39.5450    2.5160   26.0250 C.3   667  LEU667      0.0001
     39  N        -43.0790   -4.9380   25.1860 N.3   706  ALA706     -0.1245
     40  CA       -42.0460   -3.9220   24.9480 C.3   706  ALA706      0.1562
     41  C        -41.0400   -4.4120   23.8920 C.2   706  ALA706      0.2260
     42  O        -40.5980   -5.5830   23.9370 O.2   706  ALA706     -0.2867
     43  CB       -41.3420   -3.5380   26.2390 C.3   706  ALA706      0.0290
     44  N        -37.4840   -2.8010   21.7090 N.3   708  TYR708     -0.1241
     45  CA       -36.4940   -1.7400   21.5630 C.3   708  TYR708      0.1605
     46  C        -35.5710   -2.0740   20.3920 C.2   708  TYR708      0.2264
     47  O        -34.9190   -3.1070   20.3650 O.2   708  TYR708     -0.2867
     48  CB       -35.7170   -1.5050   22.8570 C.3   708  TYR708      0.0534
     49  CG       -34.8740   -0.2420   22.8340 C.ar  708  TYR708     -0.0201
     50  CD1      -33.5850   -0.2390   22.2430 C.ar  708  TYR708     -0.0009
     51  CD2      -35.3480    0.9650   23.3900 C.ar  708  TYR708     -0.0009
     52  CE1      -32.7970    0.9210   22.2060 C.ar  708  TYR708      0.0417
     53  CE2      -34.5690    2.1210   23.3640 C.ar  708  TYR708      0.0417
     54  CZ       -33.2890    2.0960   22.7620 C.ar  708  TYR708      0.1957
     55  OH       -32.5020    3.2400   22.7120 O.3   708  TYR708     -0.2866
     56  N        -35.0850   -6.1570   19.9620 N.3   716  ALA716     -0.1231
     57  CA       -35.3670   -7.1490   21.0150 C.3   716  ALA716      0.1694
     58  C        -36.7220   -6.9000   21.7650 C.2   716  ALA716      0.2593
     59  O        -36.9430   -5.8140   22.3750 O.2   716  ALA716     -0.2718
     60  CB       -34.2180   -7.2070   21.9830 C.3   716  ALA716      0.0304
     61  N        -37.6190   -7.8910   21.7340 N.am  717  SER717     -0.1938
     62  CA       -38.8920   -7.7630   22.4420 C.3   717  SER717      0.2055
     63  C        -39.0530   -8.5780   23.7260 C.2   717  SER717      0.2642
     64  O        -38.2690   -9.4840   23.9960 O.2   717  SER717     -0.2714
     65  CB       -40.0090   -8.1030   21.4890 C.3   717  SER717      0.2130
     66  OG       -39.7050   -7.4460   20.2910 O.3   717  SER717     -0.2179
     67  N        -40.0780   -8.2390   24.5120 N.am  718  VAL718     -0.1977
     68  CA       -40.5370   -9.0790   25.6290 C.3   718  VAL718      0.1596
     69  C        -42.0510   -8.9940   25.7320 C.2   718  VAL718      0.2287
     70  O        -42.6210   -7.8730   25.6650 O.2   718  VAL718     -0.2864
     71  CB       -39.9560   -8.6550   27.0030 C.3   718  VAL718      0.0276
     72  CG1      -40.2960   -7.1950   27.3340 C.3   718  VAL718      0.0022
     73  CG2      -40.4580   -9.5930   28.1070 C.3   718  VAL718      0.0022
     74  N        -39.3510  -13.9000   25.4680 N.3   748  PHE748     -0.1227
     75  CA       -38.2310  -13.0810   24.9740 C.3   748  PHE748      0.1736
     76  C        -37.8700  -13.3190   23.4760 C.2   748  PHE748      0.2596
     77  O        -37.7180  -14.4610   23.0340 O.2   748  PHE748     -0.2718
     78  CB       -37.0300  -13.2630   25.8970 C.3   748  PHE748      0.0547
     79  CG       -37.2710  -12.7240   27.2690 C.ar  748  PHE748     -0.0202
     80  CD1      -38.0160  -13.4400   28.1860 C.ar  748  PHE748     -0.0042
     81  CD2      -36.8060  -11.4380   27.6260 C.ar  748  PHE748     -0.0042
     82  CE1      -38.2340  -12.9140   29.4390 C.ar  748  PHE748     -0.0003
     83  CE2      -37.0520  -10.9110   28.9000 C.ar  748  PHE748     -0.0003
     84  CZ       -37.7540  -11.6420   29.7910 C.ar  748  PHE748     -0.0000
     85  N        -37.7270  -12.2490   22.7010 N.am  749  SER749     -0.1938
     86  CA       -37.6720  -12.3730   21.2590 C.3   749  SER749      0.2055
     87  C        -36.5690  -11.4770   20.6750 C.2   749  SER749      0.2643
     88  O        -36.4540  -10.3450   21.0950 O.2   749  SER749     -0.2714
     89  CB       -39.0170  -11.9120   20.7340 C.3   749  SER749      0.2130
     90  OG       -39.2970  -12.6070   19.5640 O.3   749  SER749     -0.2179
     91  N        -35.7670  -11.9570   19.7280 N.am  750  THR750     -0.1950
     92  CA       -34.8140  -11.0920   19.0150 C.3   750  THR750      0.1897
     93  C        -35.0830  -11.2100   17.5330 C.2   750  THR750      0.2313
     94  O        -35.0270  -12.3030   16.9820 O.2   750  THR750     -0.2863
     95  CB       -33.3620  -11.5280   19.1590 C.3   750  THR750      0.1794
     96  OG1      -33.0810  -11.8950   20.5020 O.3   750  THR750     -0.2208
     97  CG2      -32.4870  -10.3960   18.8240 C.3   750  THR750      0.0378
@<TRIPOS>BOND
     1     8     6    1
     2     1     2    1
     3     6     7    1
     4     6     5    1
     5    94    93    2
     6    93    92    1
     7     2     5    1
     8     2     3    1
     9    97    95    1
    10    92    95    1
    11    92    91    1
    12     3     9   am
    13     3     4    2
    14    95    96    1
    15    90    89    1
    16     9    10    1
    17    91    87   am
    18    56    57    1
    19    66    65    1
    20    47    46    2
    21    46    45    1
    22    87    88    2
    23    87    86    1
    24    89    86    1
    25    10    11    1
    26    57    58    1
    27    57    60    1
    28    31    32    1
    29    86    85    1
    30    34    33    2
    31    65    62    1
    32    45    44    1
    33    45    48    1
    34    12    11    2
    35    33    32    1
    36    18    19    1
    37    61    58   am
    38    61    62    1
    39    25    26    2
    40    25    24    1
    41    58    59    2
    42    11    13   am
    43    32    35    1
    44    52    50   ar
    45    52    54   ar
    46    50    49   ar
    47    62    63    1
    48    19    20    1
    49    19    22    1
    50    21    20    2
    51    20    23   am
    52    85    76   am
    53    55    54    1
    54    54    53   ar
    55    23    24    1
    56    49    48    1
    57    49    51   ar
    58    24    27    1
    59    77    76    2
    60    13    14    1
    61    53    51   ar
    62    76    75    1
    63    35    36    1
    64    63    64    2
    65    63    67   am
    66    41    42    2
    67    41    40    1
    68    27    28    1
    69    14    17    1
    70    14    15    1
    71    67    68    1
    72    37    36    1
    73    36    38    1
    74    40    39    1
    75    40    43    1
    76    75    74    1
    77    75    78    1
    78    15    16    2
    79    28    30    1
    80    28    29    1
    81    68    69    1
    82    68    71    1
    83    70    69    2
    84    78    79    1
    85    71    72    1
    86    71    73    1
    87    79    81   ar
    88    79    80   ar
    89    81    83   ar
    90    80    82   ar
    91    83    84   ar
    92    82    84   ar
