@<TRIPOS>MOLECULE
tmp/2w77A01.pdb
 124 118 0 0 0
SMALL
GASTEIGER

@<TRIPOS>ATOM
      1  N        -25.1070    2.2110   19.0590 N.3   245  TRP245     -0.1241
      2  CA       -24.0390    2.5010   18.0840 C.3   245  TRP245      0.1605
      3  C        -23.4150    1.2130   17.5430 C.2   245  TRP245      0.2264
      4  O        -22.1790    1.0350   17.5530 O.2   245  TRP245     -0.2867
      5  CB       -22.9650    3.4220   18.6840 C.3   245  TRP245      0.0550
      6  CG       -23.5190    4.5890   19.4820 C.ar  245  TRP245      0.0003
      7  CD1      -24.3200    5.6270   19.0130 C.ar  245  TRP245      0.0946
      8  CD2      -23.3090    4.8530   20.8860 C.ar  245  TRP245      0.0152
      9  NE1      -24.6160    6.5040   20.0530 N.ar  245  TRP245     -0.2442
     10  CE2      -24.0220    6.0480   21.2050 C.ar  245  TRP245      0.0810
     11  CE3      -22.5750    4.2060   21.9010 C.ar  245  TRP245      0.0012
     12  CZ2      -24.0150    6.5980   22.4840 C.ar  245  TRP245      0.0191
     13  CZ3      -22.5660    4.7490   23.1680 C.ar  245  TRP245      0.0001
     14  CH2      -23.2870    5.9380   23.4530 C.ar  245  TRP245      0.0015
     15  N        -20.7360   16.1340   21.1170 N.3   337  ARG337     -0.1245
     16  CA       -20.0580   14.9710   21.7130 C.3   337  ARG337      0.1563
     17  C        -19.6470   13.9490   20.6530 C.2   337  ARG337      0.2260
     18  O        -18.8290   13.0820   20.9020 O.2   337  ARG337     -0.2867
     19  CB       -20.9460   14.3010   22.7610 C.3   337  ARG337      0.0307
     20  CG       -21.1910   15.1270   23.9960 C.3   337  ARG337      0.0489
     21  CD       -21.9640   14.3190   25.0070 C.3   337  ARG337      0.2205
     22  NE       -23.3940   14.2200   24.7040 N.pl3 337  ARG337     -0.0865
     23  CZ       -24.2970   13.6180   25.4770 C.cat 337  ARG337      0.5346
     24  NH1      -23.9160   13.0260   26.6260 N.pl3 337  ARG337      0.1354
     25  NH2      -25.5770   13.6070   25.0980 N.pl3 337  ARG337      0.1354
     26  N        -35.0390  -17.1900   31.8880 N.3   728  ILE728     -0.1245
     27  CA       -36.2550  -17.7010   31.2390 C.3   728  ILE728      0.1561
     28  C        -36.3210  -19.2070   31.3160 C.2   728  ILE728      0.2260
     29  O        -37.3900  -19.8010   31.2810 O.2   728  ILE728     -0.2867
     30  CB       -36.2920  -17.3390   29.7540 C.3   728  ILE728      0.0252
     31  CG1      -35.6830  -15.9510   29.5330 C.3   728  ILE728      0.0019
     32  CG2      -37.7280  -17.4310   29.2060 C.3   728  ILE728      0.0019
     33  CD1      -35.3920  -15.6020   28.0840 C.3   728  ILE728      0.0001
     34  N        -31.1600  -20.8670   29.2690 N.3   732  LEU732     -0.1245
     35  CA       -31.1180  -19.5940   28.5680 C.3   732  LEU732      0.1561
     36  C        -31.5780  -18.3790   29.4040 C.2   732  LEU732      0.2260
     37  O        -32.5860  -18.4490   30.0590 O.2   732  LEU732     -0.2867
     38  CB       -31.9030  -19.7110   27.2860 C.3   732  LEU732      0.0270
     39  CG       -31.5570  -18.5850   26.3350 C.3   732  LEU732      0.0019
     40  CD1      -31.3880  -19.0820   24.9130 C.3   732  LEU732      0.0001
     41  CD2      -32.5800  -17.4210   26.3950 C.3   732  LEU732      0.0001
     42  N        -31.9610  -13.7580   29.4160 N.3   734  ALA734     -0.1231
     43  CA       -31.8440  -12.4560   28.7520 C.3   734  ALA734      0.1694
     44  C        -31.6450  -11.2960   29.7450 C.2   734  ALA734      0.2593
     45  O        -32.2930  -11.2310   30.8130 O.2   734  ALA734     -0.2718
     46  CB       -33.0330  -12.1910   27.8810 C.3   734  ALA734      0.0304
     47  N        -30.7580  -10.3760   29.3520 N.am  735  SER735     -0.1938
     48  CA       -30.3560   -9.2390   30.1570 C.3   735  SER735      0.2055
     49  C        -30.4780   -7.9240   29.3810 C.2   735  SER735      0.2642
     50  O        -30.5440   -7.9350   28.1550 O.2   735  SER735     -0.2714
     51  CB       -28.9220   -9.4270   30.6100 C.3   735  SER735      0.2130
     52  OG       -28.7950  -10.7000   31.1760 O.3   735  SER735     -0.2179
     53  N        -30.5530   -6.8190   30.1300 N.am  736  VAL736     -0.1977
     54  CA       -30.4060   -5.4860   29.6050 C.3   736  VAL736      0.1596
     55  C        -29.5810   -4.6430   30.5840 C.2   736  VAL736      0.2287
     56  O        -29.7710   -4.7220   31.8200 O.2   736  VAL736     -0.2864
     57  CB       -31.7570   -4.8010   29.3070 C.3   736  VAL736      0.0276
     58  CG1      -32.6320   -4.6590   30.5670 C.3   736  VAL736      0.0022
     59  CG2      -31.5240   -3.4550   28.6950 C.3   736  VAL736      0.0022
     60  N        -28.5590   -0.5310   31.0690 N.3   738  VAL738     -0.1245
     61  CA       -28.6430    0.8470   30.6600 C.3   738  VAL738      0.1561
     62  C        -27.5720    1.6270   31.4330 C.2   738  VAL738      0.2260
     63  O        -27.5410    1.5860   32.6700 O.2   738  VAL738     -0.2867
     64  CB       -30.0670    1.3920   30.8590 C.3   738  VAL738      0.0252
     65  CG1      -30.2070    2.7740   30.1810 C.3   738  VAL738      0.0019
     66  CG2      -31.0880    0.4040   30.2610 C.3   738  VAL738      0.0019
     67  N        -28.1160   10.5310   31.1850 N.3   743  ASP743     -0.1239
     68  CA       -27.4000   11.0770   30.0210 C.3   743  ASP743      0.1674
     69  C        -26.4960   12.2570   30.3740 C.2   743  ASP743      0.2266
     70  O        -26.3750   13.2000   29.6350 O.2   743  ASP743     -0.2867
     71  CB       -28.3830   11.4100   28.8850 C.3   743  ASP743      0.1410
     72  CG       -27.6860   11.6590   27.5560 C.2   743  ASP743      0.3668
     73  OD1      -26.5070   11.2520   27.4310 O.co2 743  ASP743     -0.2456
     74  OD2      -28.2940   12.2740   26.6340 O.co2 743  ASP743     -0.2456
     75  N        -21.9830    9.0630   26.4650 N.3   761  PRO761     -0.2102
     76  CA       -23.4340    9.2420   26.5640 C.3   761  PRO761      0.1504
     77  C        -24.1730    7.9580   26.9600 C.2   761  PRO761      0.2575
     78  O        -23.5580    6.8700   27.0480 O.2   761  PRO761     -0.2718
     79  CB       -23.8520    9.6540   25.1370 C.3   761  PRO761      0.0282
     80  CG       -22.6730   10.2280   24.5210 C.3   761  PRO761      0.0208
     81  CD       -21.4620    9.5340   25.1730 C.3   761  PRO761      0.0893
     82  N        -25.4860    8.0990   27.1910 N.am  762  ARG762     -0.1980
     83  CA       -26.3540    7.0160   27.6780 C.3   762  ARG762      0.1597
     84  C        -26.1980    5.9030   26.7040 C.2   762  ARG762      0.2287
     85  O        -26.1480    6.1650   25.5130 O.2   762  ARG762     -0.2864
     86  CB       -27.8130    7.4660   27.6580 C.3   762  ARG762      0.0334
     87  CG       -28.7350    6.6000   28.4100 C.3   762  ARG762      0.0492
     88  CD       -30.1340    6.8660   27.9880 C.3   762  ARG762      0.2205
     89  NE       -30.7300    7.9960   28.6940 N.pl3 762  ARG762     -0.0865
     90  CZ       -31.2350    9.0930   28.1230 C.cat 762  ARG762      0.5346
     91  NH1      -31.2380    9.2620   26.8050 N.pl3 762  ARG762      0.1354
     92  NH2      -31.7450   10.0380   28.8890 N.pl3 762  ARG762      0.1354
     93  N        -27.2220    1.4950   25.8470 N.3   764  LEU764     -0.1245
     94  CA       -27.8560    0.2730   26.2990 C.3   764  LEU764      0.1561
     95  C        -27.1390   -0.9500   25.7520 C.2   764  LEU764      0.2260
     96  O        -26.4980   -0.8850   24.7000 O.2   764  LEU764     -0.2867
     97  CB       -29.3240    0.2550   25.8530 C.3   764  LEU764      0.0270
     98  CG       -30.4290    1.1570   26.4210 C.3   764  LEU764      0.0019
     99  CD1      -30.3140    2.5550   25.9200 C.3   764  LEU764      0.0001
    100  CD2      -31.7160    0.6370   25.9200 C.3   764  LEU764      0.0001
    101  N        -28.1560   -5.1440   25.0740 N.3   766  PHE766     -0.1227
    102  CA       -28.9950   -6.3200   25.2060 C.3   766  PHE766      0.1736
    103  C        -28.1670   -7.5700   25.0150 C.2   766  PHE766      0.2596
    104  O        -27.2010   -7.5380   24.2800 O.2   766  PHE766     -0.2718
    105  CB       -30.1050   -6.2440   24.2030 C.3   766  PHE766      0.0547
    106  CG       -31.0390   -5.1210   24.4730 C.ar  766  PHE766     -0.0202
    107  CD1      -30.7910   -3.8460   23.9360 C.ar  766  PHE766     -0.0042
    108  CD2      -32.1370   -5.3080   25.3190 C.ar  766  PHE766     -0.0042
    109  CE1      -31.6460   -2.7850   24.2150 C.ar  766  PHE766     -0.0003
    110  CE2      -33.0010   -4.2680   25.6090 C.ar  766  PHE766     -0.0003
    111  CZ       -32.7690   -2.9990   25.0540 C.ar  766  PHE766     -0.0000
    112  N        -28.4990   -8.6620   25.6990 N.am  767  SER767     -0.1938
    113  CA       -27.7380   -9.8990   25.5180 C.3   767  SER767      0.2055
    114  C        -28.4860  -11.1340   25.9660 C.2   767  SER767      0.2643
    115  O        -29.3750  -11.0260   26.7470 O.2   767  SER767     -0.2714
    116  CB       -26.4130   -9.8140   26.2510 C.3   767  SER767      0.2130
    117  OG       -26.6130   -9.2810   27.5320 O.3   767  SER767     -0.2179
    118  N        -28.1230  -12.2890   25.4370 N.am  768  THR768     -0.1950
    119  CA       -28.6280  -13.5500   25.9090 C.3   768  THR768      0.1897
    120  C        -27.4450  -14.4100   26.1890 C.2   768  THR768      0.2313
    121  O        -26.5250  -14.4500   25.4060 O.2   768  THR768     -0.2863
    122  CB       -29.4200  -14.3390   24.8500 C.3   768  THR768      0.1794
    123  OG1      -29.4130  -13.6320   23.6210 O.3   768  THR768     -0.2208
    124  CG2      -30.8480  -14.5280   25.2570 C.3   768  THR768      0.0378
@<TRIPOS>BOND
     1     3     4    2
     2     3     2    1
     3     2     5    1
     4     2     1    1
     5     5     6    1
     6     7     6   ar
     7     7     9   ar
     8     6     8   ar
     9     9    10   ar
    10    17    18    2
    11    17    16    1
    12     8    10   ar
    13     8    11   ar
    14    15    16    1
    15    10    12   ar
    16    16    19    1
    17    11    13   ar
    18    12    14   ar
    19    19    20    1
    20    13    14   ar
    21   123   122    1
    22   107   109   ar
    23   107   106   ar
    24    20    21    1
    25   105   106    1
    26   105   102    1
    27   109   111   ar
    28   104   103    2
    29   106   108   ar
    30    80    79    1
    31    80    81    1
    32    96    95    2
    33    22    21    1
    34    22    23    2
    35   122   124    1
    36   122   119    1
    37    40    39    1
    38   103   102    1
    39   103   112   am
    40   111   110   ar
    41   101   102    1
    42    25    23    1
    43    79    76    1
    44    81    75    1
    45   108   110   ar
    46   121   120    2
    47   118   119    1
    48   118   114   am
    49    23    24    1
    50    85    84    2
    51   113   112    1
    52   113   114    1
    53   113   116    1
    54    95    94    1
    55    93    94    1
    56    97    94    1
    57    97    98    1
    58   119   120    1
    59   100    98    1
    60    99    98    1
    61   114   115    2
    62   116   117    1
    63    39    41    1
    64    39    38    1
    65    75    76    1
    66    76    77    1
    67    74    72   ar
    68    84    83    1
    69    91    90    1
    70    77    78    2
    71    77    82   am
    72    82    83    1
    73    38    35    1
    74    73    72   ar
    75    72    71    1
    76    86    83    1
    77    86    87    1
    78    46    43    1
    79    88    87    1
    80    88    89    1
    81    33    31    1
    82    90    89    2
    83    90    92    1
    84    50    49    2
    85    35    34    1
    86    35    36    1
    87    59    57    1
    88    43    42    1
    89    43    44    1
    90    71    68    1
    91    32    30    1
    92    57    54    1
    93    57    58    1
    94    47    44   am
    95    47    48    1
    96    49    53   am
    97    49    48    1
    98    36    37    2
    99    31    30    1
   100    54    53    1
   101    54    55    1
   102    70    69    2
   103    44    45    2
   104    30    27    1
   105    68    69    1
   106    68    67    1
   107    48    51    1
   108    65    64    1
   109    66    64    1
   110    55    56    2
   111    51    52    1
   112    61    64    1
   113    61    60    1
   114    61    62    1
   115    27    28    1
   116    27    26    1
   117    29    28    2
   118    62    63    2
