@<TRIPOS>MOLECULE
tmp/2w78B00.pdb
 223 222 0 0 0
SMALL
GASTEIGER

@<TRIPOS>ATOM
      1  N        -55.5990  -29.5230   21.2300 N.3   143  ARG143     -0.1245
      2  CA       -56.8370  -29.2230   20.5460 C.3   143  ARG143      0.1563
      3  C        -57.5290  -28.0940   21.2880 C.2   143  ARG143      0.2260
      4  O        -57.7110  -28.1670   22.4990 O.2   143  ARG143     -0.2867
      5  CB       -57.7980  -30.4290   20.5890 C.3   143  ARG143      0.0307
      6  CG       -57.4720  -31.6300   19.7110 C.3   143  ARG143      0.0489
      7  CD       -58.6370  -32.6000   19.6930 C.3   143  ARG143      0.2205
      8  NE       -58.8010  -33.3410   20.9480 N.pl3 143  ARG143     -0.0865
      9  CZ       -59.8860  -34.0730   21.2480 C.cat 143  ARG143      0.5346
     10  NH1      -60.9060  -34.1380   20.3930 N.pl3 143  ARG143      0.1354
     11  NH2      -59.9690  -34.7360   22.4070 N.pl3 143  ARG143      0.1354
     12  N        -66.0270  -23.4630   13.1670 N.3   154  ASN154     -0.1240
     13  CA       -65.5160  -24.6440   12.4820 C.3   154  ASN154      0.1653
     14  C        -65.3690  -24.4560   10.9480 C.2   154  ASN154      0.2266
     15  O        -65.4960  -25.4070   10.2040 O.2   154  ASN154     -0.2867
     16  CB       -66.3500  -25.8850   12.8770 C.3   154  ASN154      0.1155
     17  CG       -65.9160  -27.1860   12.1530 C.2   154  ASN154      0.2627
     18  OD1      -64.7520  -27.3550   11.7120 O.2   154  ASN154     -0.2716
     19  ND2      -66.8640  -28.1140   12.0370 N.am  154  ASN154     -0.0877
     20  N        -62.9040  -31.0870    9.0750 N.3   166  ARG166     -0.1231
     21  CA       -63.7770  -30.3860   10.0060 C.3   166  ARG166      0.1694
     22  C        -64.2310  -31.1710   11.2470 C.2   166  ARG166      0.2592
     23  O        -65.0730  -30.6940   11.9740 O.2   166  ARG166     -0.2718
     24  CB       -64.9910  -29.8900    9.2400 C.3   166  ARG166      0.0321
     25  CG       -64.7110  -29.5630    7.7690 C.3   166  ARG166      0.0489
     26  CD       -66.0450  -29.3500    7.0740 C.3   166  ARG166      0.2205
     27  NE       -67.0320  -28.8550    8.0370 N.pl3 166  ARG166     -0.0865
     28  CZ       -67.3380  -27.5690    8.1950 C.cat 166  ARG166      0.5346
     29  NH1      -66.7590  -26.6380    7.4280 N.pl3 166  ARG166      0.1354
     30  NH2      -68.2330  -27.2100    9.1120 N.pl3 166  ARG166      0.1354
     31  N        -63.6490  -32.3330   11.5010 N.am  167  ASN167     -0.1960
     32  CA       -63.9730  -33.0990   12.6890 C.3   167  ASN167      0.1819
     33  C        -62.8340  -33.1530   13.7600 C.2   167  ASN167      0.2621
     34  O        -61.8950  -33.9680   13.6670 O.2   167  ASN167     -0.2715
     35  CB       -64.3980  -34.4830   12.2420 C.3   167  ASN167      0.1195
     36  CG       -65.0450  -35.2880   13.3340 C.2   167  ASN167      0.2630
     37  OD1      -64.4870  -35.4660   14.4190 O.2   167  ASN167     -0.2716
     38  ND2      -66.2260  -35.8210   13.0410 N.am  167  ASN167     -0.0877
     39  N        -62.9370  -32.2910   14.7880 N.am  168  VAL168     -0.1963
     40  CA       -61.8630  -32.0920   15.8080 C.3   168  VAL168      0.1727
     41  C        -61.5950  -33.3170   16.6550 C.2   168  VAL168      0.2617
     42  O        -60.6480  -33.3600   17.4620 O.2   168  VAL168     -0.2715
     43  CB       -62.2020  -30.9680   16.7580 C.3   168  VAL168      0.0290
     44  CG1      -61.7860  -29.5970   16.1380 C.3   168  VAL168      0.0023
     45  CG2      -63.6530  -31.0500   17.0870 C.3   168  VAL168      0.0023
     46  N        -62.4620  -34.3060   16.4670 N.am  169  GLY169     -0.1940
     47  CA       -62.2620  -35.6260   17.0290 C.3   169  GLY169      0.2014
     48  C        -61.0620  -36.2660   16.3840 C.2   169  GLY169      0.2638
     49  O        -60.3950  -37.0960   16.9900 O.2   169  GLY169     -0.2714
     50  N        -60.7840  -35.8470   15.1510 N.am  170  TYR170     -0.1973
     51  CA       -59.5690  -36.2330   14.4570 C.3   170  TYR170      0.1639
     52  C        -58.8210  -35.0020   14.0010 C.2   170  TYR170      0.2290
     53  O        -58.4900  -34.9050   12.8150 O.2   170  TYR170     -0.2864
     54  CB       -59.9150  -37.0660   13.2400 C.3   170  TYR170      0.0560
     55  CG       -60.8530  -38.1850   13.5140 C.ar  170  TYR170     -0.0198
     56  CD1      -62.2320  -37.9790   13.5040 C.ar  170  TYR170     -0.0009
     57  CD2      -60.3640  -39.4620   13.7680 C.ar  170  TYR170     -0.0009
     58  CE1      -63.1240  -39.0430   13.7520 C.ar  170  TYR170      0.0417
     59  CE2      -61.2310  -40.5440   14.0070 C.ar  170  TYR170      0.0417
     60  CZ       -62.6070  -40.3250   14.0000 C.ar  170  TYR170      0.1957
     61  OH       -63.4400  -41.3760   14.2460 O.3   170  TYR170     -0.2866
     62  N        -55.3920  -35.9770   26.8490 N.3   301  TRP301     -0.1227
     63  CA       -56.5640  -36.2590   26.0290 C.3   301  TRP301      0.1737
     64  C        -57.7240  -36.0410   26.9360 C.2   301  TRP301      0.2596
     65  O        -57.6480  -36.3670   28.1350 O.2   301  TRP301     -0.2718
     66  CB       -56.5580  -37.7190   25.5990 C.3   301  TRP301      0.0564
     67  CG       -57.5490  -38.0900   24.5770 C.ar  301  TRP301      0.0003
     68  CD1      -58.3120  -37.2510   23.8220 C.ar  301  TRP301      0.0946
     69  CD2      -57.8750  -39.4150   24.1570 C.ar  301  TRP301      0.0152
     70  NE1      -59.1140  -37.9780   22.9660 N.ar  301  TRP301     -0.2442
     71  CE2      -58.8650  -39.3090   23.1580 C.ar  301  TRP301      0.0810
     72  CE3      -57.4300  -40.6840   24.5330 C.ar  301  TRP301      0.0012
     73  CZ2      -59.4080  -40.4290   22.5160 C.ar  301  TRP301      0.0191
     74  CZ3      -57.9750  -41.7930   23.8990 C.ar  301  TRP301      0.0001
     75  CH2      -58.9560  -41.6550   22.8960 C.ar  301  TRP301      0.0015
     76  N        -58.8060  -35.5150   26.3590 N.am  302  SER302     -0.1952
     77  CA       -60.0080  -35.0870   27.0970 C.3   302  SER302      0.1924
     78  C        -59.6700  -34.4200   28.4470 C.2   302  SER302      0.2314
     79  O        -59.6340  -35.0630   29.4960 O.2   302  SER302     -0.2863
     80  CB       -61.0390  -36.2170   27.2120 C.3   302  SER302      0.2116
     81  OG       -60.4850  -37.3520   27.8430 O.3   302  SER302     -0.2180
     82  N        -50.4240  -36.5950   19.9640 N.3   330  TRP330     -0.1241
     83  CA       -51.4500  -36.3330   18.9700 C.3   330  TRP330      0.1605
     84  C        -50.8220  -35.5900   17.8240 C.2   330  TRP330      0.2264
     85  O        -51.2040  -34.4650   17.5130 O.2   330  TRP330     -0.2867
     86  CB       -52.6160  -35.5140   19.5400 C.3   330  TRP330      0.0550
     87  CG       -53.8050  -35.4720   18.5920 C.ar  330  TRP330      0.0003
     88  CD1      -53.7780  -35.2550   17.2360 C.ar  330  TRP330      0.0946
     89  CD2      -55.1610  -35.6530   18.9300 C.ar  330  TRP330      0.0152
     90  NE1      -55.0400  -35.3110   16.7070 N.ar  330  TRP330     -0.2442
     91  CE2      -55.9150  -35.5440   17.7260 C.ar  330  TRP330      0.0810
     92  CE3      -55.8230  -35.8840   20.1280 C.ar  330  TRP330      0.0012
     93  CZ2      -57.2940  -35.6580   17.6870 C.ar  330  TRP330      0.0191
     94  CZ3      -57.2050  -36.0110   20.1000 C.ar  330  TRP330      0.0001
     95  CH2      -57.9310  -35.8960   18.8750 C.ar  330  TRP330      0.0015
     96  N        -58.3220  -41.2350   32.1380 N.3   370  MET370     -0.1245
     97  CA       -59.6850  -40.6980   32.1360 C.3   370  MET370      0.1570
     98  C        -60.6680  -41.6270   32.8230 C.2   370  MET370      0.2261
     99  O        -60.4280  -42.8620   32.9310 O.2   370  MET370     -0.2867
    100  CB       -60.1830  -40.2730   30.7420 C.3   370  MET370      0.0387
    101  CG       -60.4890  -41.3960   29.7720 C.3   370  MET370      0.0595
    102  SD       -60.8890  -40.7140   28.1320 S.3   370  MET370     -0.1393
    103  CE       -59.3150  -40.1090   27.5520 C.3   370  MET370      0.0692
    104  N        -56.6680  -44.7650   29.5550 N.3   383  VAL383     -0.1245
    105  CA       -57.4700  -45.1750   28.4180 C.3   383  VAL383      0.1561
    106  C        -56.6410  -44.8530   27.1900 C.2   383  VAL383      0.2260
    107  O        -56.2640  -43.7000   26.9880 O.2   383  VAL383     -0.2867
    108  CB       -58.8280  -44.4710   28.4260 C.3   383  VAL383      0.0252
    109  CG1      -59.4110  -44.3700   27.0410 C.3   383  VAL383      0.0019
    110  CG2      -59.7310  -45.2030   29.3790 C.3   383  VAL383      0.0019
    111  N        -55.8710  -45.3380   22.9730 N.3   385  GLN385     -0.1245
    112  CA       -56.4260  -45.5570   21.6140 C.3   385  GLN385      0.1566
    113  C        -55.5870  -44.8570   20.5770 C.2   385  GLN385      0.2260
    114  O        -55.1620  -43.7310   20.7940 O.2   385  GLN385     -0.2867
    115  CB       -57.8190  -44.9850   21.4950 C.3   385  GLN385      0.0367
    116  CG       -58.8400  -45.8290   22.1130 C.3   385  GLN385      0.0905
    117  CD       -60.1700  -45.1430   22.1440 C.2   385  GLN385      0.2608
    118  OE1      -60.4100  -44.1990   21.3890 O.2   385  GLN385     -0.2717
    119  NE2      -61.0630  -45.6160   23.0160 N.am  385  GLN385     -0.0878
    120  N        -55.1150  -43.2390   16.6670 N.3   387  TYR387     -0.1241
    121  CA       -55.9010  -42.6670   15.5670 C.3   387  TYR387      0.1605
    122  C        -54.9540  -42.0790   14.5750 C.2   387  TYR387      0.2264
    123  O        -54.2420  -41.1070   14.8990 O.2   387  TYR387     -0.2867
    124  CB       -56.7920  -41.5360   16.0370 C.3   387  TYR387      0.0534
    125  CG       -57.9050  -41.9810   16.8940 C.ar  387  TYR387     -0.0201
    126  CD1      -59.0320  -42.5120   16.3380 C.ar  387  TYR387     -0.0009
    127  CD2      -57.8380  -41.8530   18.2680 C.ar  387  TYR387     -0.0009
    128  CE1      -60.0850  -42.9320   17.1280 C.ar  387  TYR387      0.0417
    129  CE2      -58.8800  -42.2530   19.0840 C.ar  387  TYR387      0.0417
    130  CZ       -60.0100  -42.8080   18.5080 C.ar  387  TYR387      0.1957
    131  OH       -61.0730  -43.2480   19.2770 O.3   387  TYR387     -0.2866
    132  N        -58.6820  -49.6820   19.0420 N.3   430  TRP430     -0.1241
    133  CA       -58.9530  -49.8210   20.4800 C.3   430  TRP430      0.1605
    134  C        -58.9690  -51.2220   21.1230 C.2   430  TRP430      0.2264
    135  O        -59.4370  -51.3900   22.2550 O.2   430  TRP430     -0.2867
    136  CB       -60.1890  -49.0130   20.8630 C.3   430  TRP430      0.0550
    137  CG       -61.3280  -49.3510   20.0540 C.ar  430  TRP430      0.0003
    138  CD1      -62.0890  -50.4620   20.1590 C.ar  430  TRP430      0.0946
    139  CD2      -61.8610  -48.5900   18.9830 C.ar  430  TRP430      0.0152
    140  NE1      -63.0780  -50.4480   19.2140 N.ar  430  TRP430     -0.2442
    141  CE2      -62.9660  -49.3050   18.4760 C.ar  430  TRP430      0.0810
    142  CE3      -61.5200  -47.3720   18.3990 C.ar  430  TRP430      0.0012
    143  CZ2      -63.7360  -48.8450   17.4060 C.ar  430  TRP430      0.0191
    144  CZ3      -62.2950  -46.9030   17.3350 C.ar  430  TRP430      0.0001
    145  CH2      -63.3870  -47.6410   16.8510 C.ar  430  TRP430      0.0015
    146  N        -61.5490  -49.7610   13.3730 N.3   459  GLN459     -0.1245
    147  CA       -62.4500  -49.0100   12.4910 C.3   459  GLN459      0.1566
    148  C        -61.6850  -48.6060   11.2680 C.2   459  GLN459      0.2260
    149  O        -60.4860  -48.5450   11.3140 O.2   459  GLN459     -0.2867
    150  CB       -63.0640  -47.7810   13.1680 C.3   459  GLN459      0.0367
    151  CG       -64.3730  -47.3650   12.4730 C.3   459  GLN459      0.0905
    152  CD       -65.0330  -46.0790   12.9970 C.2   459  GLN459      0.2608
    153  OE1      -64.7450  -45.6050   14.1020 O.2   459  GLN459     -0.2717
    154  NE2      -65.9350  -45.5120   12.1920 N.am  459  GLN459     -0.0878
    155  N        -73.9020  -34.8740   10.5090 N.3   536  ASP536     -0.1239
    156  CA       -73.1410  -36.1470   10.5370 C.3   536  ASP536      0.1674
    157  C        -74.1290  -37.3030   10.5000 C.2   536  ASP536      0.2266
    158  O        -75.2770  -37.1480   10.9100 O.2   536  ASP536     -0.2867
    159  CB       -72.2790  -36.2810   11.7990 C.3   536  ASP536      0.1410
    160  CG       -71.1000  -35.2820   11.8380 C.2   536  ASP536      0.3668
    161  OD1      -70.6570  -34.8480   10.7460 O.co2 536  ASP536     -0.2456
    162  OD2      -70.6180  -34.9300   12.9610 O.co2 536  ASP536     -0.2456
    163  N        -74.8610  -39.8200   12.1810 N.3   538  TRP538     -0.1227
    164  CA       -75.4970  -40.3940   13.3810 C.3   538  TRP538      0.1737
    165  C        -76.6170  -39.5350   13.9690 C.2   538  TRP538      0.2595
    166  O        -77.3620  -39.9720   14.8360 O.2   538  TRP538     -0.2718
    167  CB       -74.4610  -40.7710   14.4440 C.3   538  TRP538      0.0564
    168  CG       -73.4350  -39.7270   14.5960 C.ar  538  TRP538      0.0003
    169  CD1      -73.5720  -38.5260   15.2550 C.ar  538  TRP538      0.0946
    170  CD2      -72.1080  -39.7340   14.0470 C.ar  538  TRP538      0.0152
    171  NE1      -72.4080  -37.7900   15.1670 N.ar  538  TRP538     -0.2442
    172  CE2      -71.4880  -38.5000   14.4370 C.ar  538  TRP538      0.0810
    173  CE3      -71.3720  -40.6620   13.2830 C.ar  538  TRP538      0.0012
    174  CZ2      -70.1620  -38.1700   14.0850 C.ar  538  TRP538      0.0191
    175  CZ3      -70.0530  -40.3430   12.9290 C.ar  538  TRP538      0.0001
    176  CH2      -69.4640  -39.0950   13.3300 C.ar  538  TRP538      0.0015
    177  N        -76.7420  -38.3100   13.4900 N.am  539  TYR539     -0.1976
    178  CA       -77.8410  -37.4550   13.8970 C.3   539  TYR539      0.1639
    179  C        -79.0460  -37.7780   13.0350 C.2   539  TYR539      0.2290
    180  O        -79.2770  -37.1810   11.9790 O.2   539  TYR539     -0.2864
    181  CB       -77.4580  -35.9790   13.7760 C.3   539  TYR539      0.0560
    182  CG       -76.3920  -35.5620   14.7500 C.ar  539  TYR539     -0.0198
    183  CD1      -76.5100  -35.8760   16.1000 C.ar  539  TYR539     -0.0009
    184  CD2      -75.2560  -34.8430   14.3290 C.ar  539  TYR539     -0.0009
    185  CE1      -75.5450  -35.5040   16.9930 C.ar  539  TYR539      0.0417
    186  CE2      -74.2880  -34.4510   15.2230 C.ar  539  TYR539      0.0417
    187  CZ       -74.4460  -34.7900   16.5500 C.ar  539  TYR539      0.1957
    188  OH       -73.5120  -34.4360   17.4820 O.3   539  TYR539     -0.2866
    189  N        -82.7830  -38.3750   17.3540 N.3   602  TYR602     -0.1241
    190  CA       -82.5750  -36.9420   17.4740 C.3   602  TYR602      0.1605
    191  C        -83.6500  -36.1780   16.7760 C.2   602  TYR602      0.2264
    192  O        -84.2240  -36.6730   15.8300 O.2   602  TYR602     -0.2867
    193  CB       -81.2540  -36.5330   16.8350 C.3   602  TYR602      0.0534
    194  CG       -80.0610  -37.0520   17.5610 C.ar  602  TYR602     -0.0201
    195  CD1      -79.5650  -38.3170   17.2830 C.ar  602  TYR602     -0.0009
    196  CD2      -79.4260  -36.2850   18.5370 C.ar  602  TYR602     -0.0009
    197  CE1      -78.4690  -38.8120   17.9530 C.ar  602  TYR602      0.0417
    198  CE2      -78.3050  -36.7680   19.2180 C.ar  602  TYR602      0.0417
    199  CZ       -77.8440  -38.0380   18.9140 C.ar  602  TYR602      0.1957
    200  OH       -76.7600  -38.5600   19.5570 O.3   602  TYR602     -0.2866
    201  N        -65.5560  -31.3040   29.9770 N.3   734  PHE734     -0.1227
    202  CA       -65.4720  -31.8700   28.6490 C.3   734  PHE734      0.1736
    203  C        -64.9930  -33.2710   28.9070 C.2   734  PHE734      0.2595
    204  O        -63.8190  -33.4450   29.2620 O.2   734  PHE734     -0.2718
    205  CB       -64.4800  -31.0950   27.7810 C.3   734  PHE734      0.0547
    206  CG       -64.0200  -31.8650   26.5960 C.ar  734  PHE734     -0.0202
    207  CD1      -64.9020  -32.1500   25.5600 C.ar  734  PHE734     -0.0042
    208  CD2      -62.7080  -32.3470   26.5220 C.ar  734  PHE734     -0.0042
    209  CE1      -64.5210  -32.9120   24.4740 C.ar  734  PHE734     -0.0003
    210  CE2      -62.2950  -33.0870   25.4210 C.ar  734  PHE734     -0.0003
    211  CZ       -63.2320  -33.3870   24.4020 C.ar  734  PHE734     -0.0000
    212  N        -65.8870  -34.2560   28.7290 N.am  735  TYR735     -0.1976
    213  CA       -65.6820  -35.6060   29.2870 C.3   735  TYR735      0.1639
    214  C        -65.2750  -35.4840   30.7230 C.2   735  TYR735      0.2290
    215  O        -64.3460  -36.1690   31.1830 O.2   735  TYR735     -0.2864
    216  CB       -64.6010  -36.3980   28.5670 C.3   735  TYR735      0.0560
    217  CG       -65.0280  -36.7880   27.2000 C.ar  735  TYR735     -0.0198
    218  CD1      -65.9040  -37.8630   26.9990 C.ar  735  TYR735     -0.0009
    219  CD2      -64.5800  -36.0770   26.0970 C.ar  735  TYR735     -0.0009
    220  CE1      -66.3130  -38.2110   25.7210 C.ar  735  TYR735      0.0417
    221  CE2      -64.9740  -36.4210   24.8270 C.ar  735  TYR735      0.0417
    222  CZ       -65.8340  -37.4790   24.6380 C.ar  735  TYR735      0.1957
    223  OH       -66.1970  -37.7890   23.3610 O.3   735  TYR735     -0.2866
@<TRIPOS>BOND
     1    26    25    1
     2    26    27    1
     3    29    28    1
     4    25    24    1
     5    27    28    2
     6    28    30    1
     7    20    21    1
     8    24    21    1
     9    21    22    1
    10    15    14    2
    11   157   156    1
    12   157   158    2
    13   155   156    1
    14   156   159    1
    15   161   160   ar
    16    14    13    1
    17    22    31   am
    18    22    23    2
    19   148   149    2
    20   148   147    1
    21    31    32    1
    22    18    17    2
    23   159   160    1
    24   160   162   ar
    25   180   179    2
    26    19    17   am
    27    17    16    1
    28   163   164    1
    29   154   152   am
    30    35    32    1
    31    35    36    1
    32   151   152    1
    33   151   150    1
    34    13    16    1
    35    13    12    1
    36   147   150    1
    37   147   146    1
    38    32    33    1
    39    53    52    2
    40   175   173   ar
    41   175   176   ar
    42   152   153    2
    43   179   178    1
    44    38    36   am
    45    54    55    1
    46    54    51    1
    47   173   170   ar
    48   176   174   ar
    49    36    37    2
    50   164   165    1
    51   164   167    1
    52   177   178    1
    53   177   165   am
    54    56    55   ar
    55    56    58   ar
    56    55    57   ar
    57    34    33    2
    58    58    60   ar
    59    33    39   am
    60    57    59   ar
    61   181   178    1
    62   181   182    1
    63   165   166    2
    64    60    59   ar
    65    60    61    1
    66    52    51    1
    67   170   172   ar
    68   170   168   ar
    69   174   172   ar
    70   184   182   ar
    71   184   186   ar
    72   172   171   ar
    73   167   168    1
    74    51    50    1
    75   122   123    2
    76   122   121    1
    77   168   169   ar
    78   182   183   ar
    79    39    40    1
    80    50    48   am
    81   171   169   ar
    82   186   187   ar
    83   121   124    1
    84   121   120    1
    85    40    41    1
    86    40    43    1
    87   192   191    2
    88   124   125    1
    89   183   185   ar
    90    44    43    1
    91   126   125   ar
    92   126   128   ar
    93    48    49    2
    94    48    47    1
    95    46    41   am
    96    46    47    1
    97   187   185   ar
    98   187   188    1
    99    41    42    2
   100    90    88   ar
   101    90    91   ar
   102    43    45    1
   103   191   190    1
   104   193   190    1
   105   193   194    1
   106   145   144   ar
   107   145   143   ar
   108   125   127   ar
   109   128   130   ar
   110    88    87   ar
   111   195   194   ar
   112   195   197   ar
   113   144   142   ar
   114   189   190    1
   115   143   141   ar
   116    85    84    2
   117   194   196   ar
   118    93    91   ar
   119    93    95   ar
   120    91    89   ar
   121    84    83    1
   122   197   199   ar
   123   127   129   ar
   124   142   139   ar
   125   141   139   ar
   126   141   140   ar
   127   130   129   ar
   128   130   131    1
   129   196   198   ar
   130    87    89   ar
   131    87    86    1
   132    95    94   ar
   133   199   198   ar
   134   199   200    1
   135    89    92   ar
   136    83    86    1
   137    83    82    1
   138   139   137   ar
   139   132   133    1
   140   140   138   ar
   141     7     6    1
   142     7     8    1
   143     6     5    1
   144   137   138   ar
   145   137   136    1
   146    94    92   ar
   147    10     9    1
   148   133   136    1
   149   133   134    1
   150     2     5    1
   151     2     1    1
   152     2     3    1
   153   113   114    2
   154   113   112    1
   155     8     9    2
   156   134   135    2
   157     9    11    1
   158     3     4    2
   159   118   117    2
   160   115   112    1
   161   115   116    1
   162   112   111    1
   163   116   117    1
   164   117   119   am
   165    73    75   ar
   166    73    71   ar
   167    75    74   ar
   168    70    71   ar
   169    70    68   ar
   170    71    69   ar
   171   223   222    1
   172    68    67   ar
   173    74    72   ar
   174    69    72   ar
   175    69    67   ar
   176   211   209   ar
   177   211   210   ar
   178   209   207   ar
   179    67    66    1
   180   222   221   ar
   181   222   220   ar
   182   221   219   ar
   183   210   208   ar
   184   207   206   ar
   185    66    63    1
   186   220   218   ar
   187    63    62    1
   188    63    64    1
   189   219   217   ar
   190    76    64   am
   191    76    77    1
   192   208   206   ar
   193   206   205    1
   194    64    65    2
   195   107   106    2
   196   218   217   ar
   197   109   108    1
   198    77    80    1
   199    77    78    1
   200   106   105    1
   201   217   216    1
   202    80    81    1
   203   103   102    1
   204   205   202    1
   205   102   101    1
   206   105   108    1
   207   105   104    1
   208   108   110    1
   209    78    79    2
   210   216   213    1
   211   202   203    1
   212   202   201    1
   213   212   203   am
   214   212   213    1
   215   203   204    2
   216   213   214    1
   217   101   100    1
   218   214   215    2
   219   100    97    1
   220    97    96    1
   221    97    98    1
   222    98    99    2
