@<TRIPOS>MOLECULE
tmp/2w78B02.pdb
 109 107 0 0 0
SMALL
GASTEIGER

@<TRIPOS>ATOM
      1  N        -59.8940  -28.3710   24.6310 N.3   139  TYR139     -0.1241
      2  CA       -60.2650  -29.7710   24.8020 C.3   139  TYR139      0.1605
      3  C        -59.1790  -30.5660   25.5330 C.2   139  TYR139      0.2264
      4  O        -59.4830  -31.3140   26.4610 O.2   139  TYR139     -0.2867
      5  CB       -60.5430  -30.4350   23.4910 C.3   139  TYR139      0.0534
      6  CG       -61.6780  -29.8630   22.6980 C.ar  139  TYR139     -0.0201
      7  CD1      -63.0100  -29.9890   23.1110 C.ar  139  TYR139     -0.0009
      8  CD2      -61.4280  -29.2550   21.4790 C.ar  139  TYR139     -0.0009
      9  CE1      -64.0440  -29.4780   22.3260 C.ar  139  TYR139      0.0417
     10  CE2      -62.4460  -28.7730   20.7050 C.ar  139  TYR139      0.0417
     11  CZ       -63.7290  -28.8780   21.1330 C.ar  139  TYR139      0.1957
     12  OH       -64.6630  -28.3430   20.3160 O.3   139  TYR139     -0.2866
     13  N        -55.5990  -29.5230   21.2300 N.3   143  ARG143     -0.1245
     14  CA       -56.8370  -29.2230   20.5460 C.3   143  ARG143      0.1563
     15  C        -57.5290  -28.0940   21.2880 C.2   143  ARG143      0.2260
     16  O        -57.7110  -28.1670   22.4990 O.2   143  ARG143     -0.2867
     17  CB       -57.7980  -30.4290   20.5890 C.3   143  ARG143      0.0307
     18  CG       -57.4720  -31.6300   19.7110 C.3   143  ARG143      0.0489
     19  CD       -58.6370  -32.6000   19.6930 C.3   143  ARG143      0.2205
     20  NE       -58.8010  -33.3410   20.9480 N.pl3 143  ARG143     -0.0865
     21  CZ       -59.8860  -34.0730   21.2480 C.cat 143  ARG143      0.5346
     22  NH1      -60.9060  -34.1380   20.3930 N.pl3 143  ARG143      0.1354
     23  NH2      -59.9690  -34.7360   22.4070 N.pl3 143  ARG143      0.1354
     24  N        -60.9440  -25.0060   20.9910 N.3   145  ASN145     -0.1240
     25  CA       -62.1990  -24.6470   20.4480 C.3   145  ASN145      0.1653
     26  C        -62.2430  -23.1360   20.3350 C.2   145  ASN145      0.2266
     27  O        -61.6020  -22.4620   21.0980 O.2   145  ASN145     -0.2867
     28  CB       -63.3090  -25.1160   21.3580 C.3   145  ASN145      0.1155
     29  CG       -64.6650  -24.6870   20.8390 C.2   145  ASN145      0.2627
     30  OD1      -65.2030  -25.2950   19.9060 O.2   145  ASN145     -0.2716
     31  ND2      -65.1880  -23.5870   21.3810 N.am  145  ASN145     -0.0877
     32  N        -65.0030  -19.9540   20.0850 N.3   147  TYR147     -0.1241
     33  CA       -66.4010  -19.5370   20.0190 C.3   147  TYR147      0.1605
     34  C        -66.5680  -18.1580   19.3560 C.2   147  TYR147      0.2264
     35  O        -65.7600  -17.1940   19.6170 O.2   147  TYR147     -0.2867
     36  CB       -66.9570  -19.3760   21.4330 C.3   147  TYR147      0.0534
     37  CG       -67.1110  -20.5810   22.2930 C.ar  147  TYR147     -0.0201
     38  CD1      -68.1120  -21.5200   22.0570 C.ar  147  TYR147     -0.0009
     39  CD2      -66.3070  -20.7500   23.4090 C.ar  147  TYR147     -0.0009
     40  CE1      -68.2690  -22.6260   22.9150 C.ar  147  TYR147      0.0417
     41  CE2      -66.4600  -21.8380   24.2620 C.ar  147  TYR147      0.0417
     42  CZ       -67.4430  -22.7380   24.0080 C.ar  147  TYR147      0.1957
     43  OH       -67.5950  -23.7580   24.8550 O.3   147  TYR147     -0.2866
     44  N        -69.3940  -22.6630   17.9810 N.3   152  SER152     -0.1217
     45  CA       -68.0340  -23.1320   17.7370 C.3   152  SER152      0.1889
     46  C        -67.5920  -22.7690   16.3430 C.2   152  SER152      0.2288
     47  O        -68.2430  -23.1390   15.3900 O.2   152  SER152     -0.2866
     48  CB       -67.9780  -24.6100   17.8840 C.3   152  SER152      0.2089
     49  OG       -67.4710  -24.8530   19.1570 O.3   152  SER152     -0.2183
     50  N        -62.9370  -32.2910   14.7880 N.3   168  VAL168     -0.1231
     51  CA       -61.8630  -32.0920   15.8080 C.3   168  VAL168      0.1692
     52  C        -61.5950  -33.3170   16.6550 C.2   168  VAL168      0.2592
     53  O        -60.6480  -33.3600   17.4620 O.2   168  VAL168     -0.2718
     54  CB       -62.2020  -30.9680   16.7580 C.3   168  VAL168      0.0266
     55  CG1      -61.7860  -29.5970   16.1380 C.3   168  VAL168      0.0020
     56  CG2      -63.6530  -31.0500   17.0870 C.3   168  VAL168      0.0020
     57  N        -62.4620  -34.3060   16.4670 N.am  169  GLY169     -0.1957
     58  CA       -62.2620  -35.6260   17.0290 C.3   169  GLY169      0.1869
     59  C        -61.0620  -36.2660   16.3840 C.2   169  GLY169      0.2309
     60  O        -60.3950  -37.0960   16.9900 O.2   169  GLY169     -0.2863
     61  N        -55.3920  -35.9770   26.8490 N.3   301  TRP301     -0.1241
     62  CA       -56.5640  -36.2590   26.0290 C.3   301  TRP301      0.1605
     63  C        -57.7240  -36.0410   26.9360 C.2   301  TRP301      0.2264
     64  O        -57.6480  -36.3670   28.1350 O.2   301  TRP301     -0.2867
     65  CB       -56.5580  -37.7190   25.5990 C.3   301  TRP301      0.0550
     66  CG       -57.5490  -38.0900   24.5770 C.ar  301  TRP301      0.0003
     67  CD1      -58.3120  -37.2510   23.8220 C.ar  301  TRP301      0.0946
     68  CD2      -57.8750  -39.4150   24.1570 C.ar  301  TRP301      0.0152
     69  NE1      -59.1140  -37.9780   22.9660 N.ar  301  TRP301     -0.2442
     70  CE2      -58.8650  -39.3090   23.1580 C.ar  301  TRP301      0.0810
     71  CE3      -57.4300  -40.6840   24.5330 C.ar  301  TRP301      0.0012
     72  CZ2      -59.4080  -40.4290   22.5160 C.ar  301  TRP301      0.0191
     73  CZ3      -57.9750  -41.7930   23.8990 C.ar  301  TRP301      0.0001
     74  CH2      -58.9560  -41.6550   22.8960 C.ar  301  TRP301      0.0015
     75  N        -76.7420  -38.3100   13.4900 N.3   539  TYR539     -0.1241
     76  CA       -77.8410  -37.4550   13.8970 C.3   539  TYR539      0.1605
     77  C        -79.0460  -37.7780   13.0350 C.2   539  TYR539      0.2264
     78  O        -79.2770  -37.1810   11.9790 O.2   539  TYR539     -0.2867
     79  CB       -77.4580  -35.9790   13.7760 C.3   539  TYR539      0.0534
     80  CG       -76.3920  -35.5620   14.7500 C.ar  539  TYR539     -0.0201
     81  CD1      -76.5100  -35.8760   16.1000 C.ar  539  TYR539     -0.0009
     82  CD2      -75.2560  -34.8430   14.3290 C.ar  539  TYR539     -0.0009
     83  CE1      -75.5450  -35.5040   16.9930 C.ar  539  TYR539      0.0417
     84  CE2      -74.2880  -34.4510   15.2230 C.ar  539  TYR539      0.0417
     85  CZ       -74.4460  -34.7900   16.5500 C.ar  539  TYR539      0.1957
     86  OH       -73.5120  -34.4360   17.4820 O.3   539  TYR539     -0.2866
     87  N        -65.5560  -31.3040   29.9770 N.3   734  PHE734     -0.1227
     88  CA       -65.4720  -31.8700   28.6490 C.3   734  PHE734      0.1736
     89  C        -64.9930  -33.2710   28.9070 C.2   734  PHE734      0.2595
     90  O        -63.8190  -33.4450   29.2620 O.2   734  PHE734     -0.2718
     91  CB       -64.4800  -31.0950   27.7810 C.3   734  PHE734      0.0547
     92  CG       -64.0200  -31.8650   26.5960 C.ar  734  PHE734     -0.0202
     93  CD1      -64.9020  -32.1500   25.5600 C.ar  734  PHE734     -0.0042
     94  CD2      -62.7080  -32.3470   26.5220 C.ar  734  PHE734     -0.0042
     95  CE1      -64.5210  -32.9120   24.4740 C.ar  734  PHE734     -0.0003
     96  CE2      -62.2950  -33.0870   25.4210 C.ar  734  PHE734     -0.0003
     97  CZ       -63.2320  -33.3870   24.4020 C.ar  734  PHE734     -0.0000
     98  N        -65.8870  -34.2560   28.7290 N.am  735  TYR735     -0.1976
     99  CA       -65.6820  -35.6060   29.2870 C.3   735  TYR735      0.1639
    100  C        -65.2750  -35.4840   30.7230 C.2   735  TYR735      0.2290
    101  O        -64.3460  -36.1690   31.1830 O.2   735  TYR735     -0.2864
    102  CB       -64.6010  -36.3980   28.5670 C.3   735  TYR735      0.0560
    103  CG       -65.0280  -36.7880   27.2000 C.ar  735  TYR735     -0.0198
    104  CD1      -65.9040  -37.8630   26.9990 C.ar  735  TYR735     -0.0009
    105  CD2      -64.5800  -36.0770   26.0970 C.ar  735  TYR735     -0.0009
    106  CE1      -66.3130  -38.2110   25.7210 C.ar  735  TYR735      0.0417
    107  CE2      -64.9740  -36.4210   24.8270 C.ar  735  TYR735      0.0417
    108  CZ       -65.8340  -37.4790   24.6380 C.ar  735  TYR735      0.1957
    109  OH       -66.1970  -37.7890   23.3610 O.3   735  TYR735     -0.2866
@<TRIPOS>BOND
     1    78    77    2
     2    77    76    1
     3    75    76    1
     4    79    76    1
     5    79    80    1
     6    82    80   ar
     7    82    84   ar
     8    80    81   ar
     9    50    51    1
    10    84    85   ar
    11    47    46    2
    12    51    52    1
    13    51    54    1
    14    81    83   ar
    15    55    54    1
    16    46    45    1
    17    59    60    2
    18    59    58    1
    19    57    52   am
    20    57    58    1
    21    85    83   ar
    22    85    86    1
    23    52    53    2
    24    54    56    1
    25    45    48    1
    26    45    44    1
    27    48    49    1
    28    34    35    2
    29    34    33    1
    30    19    18    1
    31    19    20    1
    32    18    17    1
    33    30    29    2
    34    33    32    1
    35    33    36    1
    36    12    11    1
    37    26    25    1
    38    26    27    2
    39    22    21    1
    40    25    24    1
    41    25    28    1
    42    14    17    1
    43    14    13    1
    44    14    15    1
    45    10    11   ar
    46    10     8   ar
    47    29    28    1
    48    29    31   am
    49    20    21    2
    50    11     9   ar
    51    21    23    1
    52    15    16    2
    53    36    37    1
    54     8     6   ar
    55    38    37   ar
    56    38    40   ar
    57    37    39   ar
    58     9     7   ar
    59    72    74   ar
    60    72    70   ar
    61     6     7   ar
    62     6     5    1
    63    74    73   ar
    64    40    42   ar
    65    69    70   ar
    66    69    67   ar
    67    70    68   ar
    68   109   108    1
    69    39    41   ar
    70     5     2    1
    71    67    66   ar
    72    73    71   ar
    73    42    41   ar
    74    42    43    1
    75    68    71   ar
    76    68    66   ar
    77    97    95   ar
    78    97    96   ar
    79    95    93   ar
    80    66    65    1
    81     1     2    1
    82   108   107   ar
    83   108   106   ar
    84     2     3    1
    85   107   105   ar
    86    96    94   ar
    87     3     4    2
    88    93    92   ar
    89    65    62    1
    90   106   104   ar
    91    62    61    1
    92    62    63    1
    93   105   103   ar
    94    94    92   ar
    95    92    91    1
    96    63    64    2
    97   104   103   ar
    98   103   102    1
    99    91    88    1
   100   102    99    1
   101    88    89    1
   102    88    87    1
   103    98    89   am
   104    98    99    1
   105    89    90    2
   106    99   100    1
   107   100   101    2
