@<TRIPOS>MOLECULE
tmp/2w7fA01.pdb
 109 103 0 0 0
SMALL
GASTEIGER

@<TRIPOS>ATOM
      1  N          9.4730   16.1740   14.1780 N.3    31  SER31      -0.1217
      2  CA         9.2680   14.7010   14.1840 C.3    31  SER31       0.1889
      3  C          8.7970   14.1300   12.8440 C.2    31  SER31       0.2288
      4  O          8.7010   12.8970   12.6950 O.2    31  SER31      -0.2866
      5  CB         8.2390   14.3110   15.2490 C.3    31  SER31       0.2089
      6  OG         7.1020   15.1300   15.1280 O.3    31  SER31      -0.2183
      7  N          4.3040    1.4940   18.7240 N.3    93  SER93      -0.1202
      8  CA         4.5760    2.9210   18.8080 C.3    93  SER93       0.2020
      9  C          5.7720    3.1530   19.7460 C.2    93  SER93       0.2619
     10  O          6.1470    2.2520   20.4950 O.2    93  SER93      -0.2717
     11  CB         3.3450    3.6520   19.3790 C.3    93  SER93       0.2103
     12  OG         3.2130    3.3780   20.7800 O.3    93  SER93      -0.2182
     13  N          6.2810    4.3850   19.7560 N.am   94  GLY94      -0.1942
     14  CA         7.2980    4.8050   20.7430 C.3    94  GLY94       0.2014
     15  C          6.7320    4.7090   22.1620 C.2    94  GLY94       0.2638
     16  O          7.4370    4.2780   23.0860 O.2    94  GLY94      -0.2714
     17  N          5.4630    5.0940   22.3260 N.am   95  ALA95      -0.1977
     18  CA         4.7880    4.9780   23.6430 C.3    95  ALA95       0.1597
     19  C          4.8390    3.5150   24.1340 C.2    95  ALA95       0.2287
     20  O          5.2420    3.2380   25.2760 O.2    95  ALA95      -0.2864
     21  CB         3.3610    5.4700   23.5690 C.3    95  ALA95       0.0319
     22  N          8.3790    2.4020   25.1610 N.3    98  ASN98      -0.1240
     23  CA         8.6870    2.9300   26.5000 C.3    98  ASN98       0.1653
     24  C          7.9170    2.1660   27.5850 C.2    98  ASN98       0.2266
     25  O          8.4950    1.7080   28.5680 O.2    98  ASN98      -0.2867
     26  CB         8.3970    4.4200   26.5440 C.3    98  ASN98       0.1155
     27  CG         9.3530    5.2110   25.6660 C.2    98  ASN98       0.2627
     28  OD1       10.2810    4.6410   25.0960 O.2    98  ASN98      -0.2716
     29  ND2        9.1430    6.5080   25.5680 N.am   98  ASN98      -0.0877
     30  N          9.7170   14.0400   26.9670 N.3   122  HIS122     -0.1241
     31  CA         8.4850   13.5790   26.2930 C.3   122  HIS122      0.1621
     32  C          7.3570   13.2570   27.2800 C.2   122  HIS122      0.2264
     33  O          7.6040   12.9050   28.4410 O.2   122  HIS122     -0.2867
     34  CB         8.7700   12.3290   25.4720 C.3   122  HIS122      0.0745
     35  CG         7.6350   11.9280   24.5810 C.ar  122  HIS122      0.0817
     36  ND1        6.9500   10.7450   24.7400 N.ar  122  HIS122     -0.2268
     37  CD2        7.0470   12.5710   23.5410 C.ar  122  HIS122      0.1154
     38  CE1        5.9910   10.6700   23.8310 C.ar  122  HIS122      0.1986
     39  NE2        6.0330   11.7610   23.0870 N.ar  122  HIS122     -0.2212
     40  N          7.6830   10.3100   29.4160 N.3   125  HIS125     -0.1241
     41  CA         8.7960   10.4080   30.3780 C.3   125  HIS125      0.1621
     42  C          8.2800   11.0250   31.6820 C.2   125  HIS125      0.2264
     43  O          9.0080   11.7360   32.3740 O.2   125  HIS125     -0.2867
     44  CB         9.9660   11.2520   29.8200 C.3   125  HIS125      0.0745
     45  CG        10.5130   10.7680   28.5090 C.ar  125  HIS125      0.0817
     46  ND1       11.4270   11.4960   27.7680 N.ar  125  HIS125     -0.2268
     47  CD2       10.2770    9.6340   27.8060 C.ar  125  HIS125      0.1154
     48  CE1       11.7280   10.8240   26.6660 C.ar  125  HIS125      0.1986
     49  NE2       11.0530    9.6850   26.6740 N.ar  125  HIS125     -0.2212
     50  N         14.8340   13.1340   24.4700 N.3   171  ALA171     -0.1231
     51  CA        13.9990   14.3070   24.4610 C.3   171  ALA171      0.1694
     52  C         13.2290   14.4290   23.1630 C.2   171  ALA171      0.2592
     53  O         13.6460   13.8960   22.1200 O.2   171  ALA171     -0.2718
     54  CB        14.8830   15.5410   24.6200 C.3   171  ALA171      0.0304
     55  N         12.1300   15.1710   23.2500 N.am  172  SER172     -0.1952
     56  CA        11.3170   15.5660   22.0970 C.3   172  SER172      0.1924
     57  C         11.7290   16.9330   21.5400 C.2   172  SER172      0.2314
     58  O         11.4310   17.2710   20.3950 O.2   172  SER172     -0.2863
     59  CB         9.8450   15.6220   22.4990 C.3   172  SER172      0.2116
     60  OG         9.3960   14.3830   23.0060 O.3   172  SER172     -0.2180
     61  N         15.7200    7.1470   25.2780 N.3   197  ASP197     -0.1239
     62  CA        14.6700    7.2280   24.2570 C.3   197  ASP197      0.1674
     63  C         15.2290    8.0860   23.1240 C.2   197  ASP197      0.2266
     64  O         15.2180    9.3280   23.1980 O.2   197  ASP197     -0.2867
     65  CB        13.4050    7.8530   24.8470 C.3   197  ASP197      0.1410
     66  CG        12.2380    7.9150   23.8440 C.2   197  ASP197      0.3668
     67  OD1       12.4450    7.6480   22.6290 O.co2 197  ASP197     -0.2456
     68  OD2       11.1110    8.2620   24.2840 O.co2 197  ASP197     -0.2456
     69  N         14.1940    8.4380   20.0300 N.3   199  ALA199     -0.1231
     70  CA        13.2250    8.5690   18.9280 C.3   199  ALA199      0.1694
     71  C         13.6050    9.6850   17.9330 C.2   199  ALA199      0.2592
     72  O         13.6500    9.4740   16.7080 O.2   199  ALA199     -0.2718
     73  CB        11.8190    8.8240   19.4920 C.3   199  ALA199      0.0304
     74  N         13.8500   10.8800   18.4500 N.am  200  HIS200     -0.1976
     75  CA        14.1270   12.0250   17.5700 C.3   200  HIS200      0.1656
     76  C         15.4140   11.8910   16.7360 C.2   200  HIS200      0.2291
     77  O         15.4730   12.3130   15.5610 O.2   200  HIS200     -0.2864
     78  CB        14.1040   13.3180   18.3750 C.3   200  HIS200      0.0771
     79  CG        12.7990   14.0280   18.2650 C.ar  200  HIS200      0.0820
     80  ND1       12.5530   14.9720   17.2930 N.ar  200  HIS200     -0.2267
     81  CD2       11.6280   13.8450   18.9230 C.ar  200  HIS200      0.1154
     82  CE1       11.2990   15.3810   17.3930 C.ar  200  HIS200      0.1986
     83  NE2       10.7190   14.7190   18.3790 N.ar  200  HIS200     -0.2212
     84  N         11.2580    5.5060   18.1220 N.3   223  THR223     -0.1218
     85  CA        10.2920    5.3720   17.0500 C.3   223  THR223      0.1862
     86  C         11.0570    5.0340   15.7730 C.2   223  THR223      0.2287
     87  O         12.2700    5.2680   15.6710 O.2   223  THR223     -0.2866
     88  CB         9.4840    6.6640   16.8910 C.3   223  THR223      0.1770
     89  OG1       10.3870    7.7630   16.7150 O.3   223  THR223     -0.2211
     90  CG2        8.6110    6.8850   18.1560 C.3   223  THR223      0.0375
     91  N          9.9350    6.3010   12.7620 N.3   225  HIS225     -0.1226
     92  CA         9.4700    7.3560   11.7980 C.3   225  HIS225      0.1752
     93  C          9.9800    8.8290   11.8060 C.2   225  HIS225      0.2595
     94  O          9.5090    9.6720   11.0240 O.2   225  HIS225     -0.2718
     95  CB         7.9430    7.4340   11.8390 C.3   225  HIS225      0.0759
     96  CG         7.3640    7.6840   13.2020 C.ar  225  HIS225      0.0818
     97  ND1        7.1920    6.6790   14.1300 N.ar  225  HIS225     -0.2268
     98  CD2        6.8640    8.8120   13.7710 C.ar  225  HIS225      0.1154
     99  CE1        6.6270    7.1790   15.2170 C.ar  225  HIS225      0.1986
    100  NE2        6.4180    8.4710   15.0250 N.ar  225  HIS225     -0.2212
    101  N         10.9010    9.1670   12.6610 N.am  226  LYS226     -0.1980
    102  CA        11.3280   10.5630   12.7060 C.3   226  LYS226      0.1596
    103  C         12.5640   10.6870   11.8040 C.2   226  LYS226      0.2287
    104  O         12.4580   10.5080   10.5780 O.2   226  LYS226     -0.2864
    105  CB        11.5500   10.9860   14.1600 C.3   226  LYS226      0.0298
    106  CG        10.2470   10.8990   14.9830 C.3   226  LYS226      0.0038
    107  CD        10.4670   11.4530   16.3960 C.3   226  LYS226      0.0206
    108  CE         9.2120   11.3500   17.2650 C.3   226  LYS226      0.1093
    109  NZ         8.6300    9.9770   17.2710 N.3   226  LYS226     -0.1314
@<TRIPOS>BOND
     1   104   103    2
     2    94    93    2
     3    92    93    1
     4    92    95    1
     5    92    91    1
     6   103   102    1
     7    93   101   am
     8    95    96    1
     9   101   102    1
    10     4     3    2
    11   102   105    1
    12     3     2    1
    13    96    98   ar
    14    96    97   ar
    15    98   100   ar
    16    97    99   ar
    17   105   106    1
    18     1     2    1
    19     2     5    1
    20   106   107    1
    21   100    99   ar
    22     6     5    1
    23    77    76    2
    24    87    86    2
    25    86    85    1
    26   107   108    1
    27    72    71    2
    28    89    88    1
    29    76    75    1
    30    88    85    1
    31    88    90    1
    32    85    84    1
    33   108   109    1
    34    80    82   ar
    35    80    79   ar
    36    82    83   ar
    37    75    78    1
    38    75    74    1
    39    71    74   am
    40    71    70    1
    41    79    78    1
    42    79    81   ar
    43    83    81   ar
    44     7     8    1
    45     8    11    1
    46     8     9    1
    47    70    73    1
    48    70    69    1
    49    11    12    1
    50     9    13   am
    51     9    10    2
    52    13    14    1
    53    58    57    2
    54    14    15    1
    55    57    56    1
    56    56    59    1
    57    56    55    1
    58    53    52    2
    59    15    17   am
    60    15    16    2
    61    17    18    1
    62    59    60    1
    63    67    66   ar
    64    39    37   ar
    65    39    38   ar
    66    63    64    2
    67    63    62    1
    68    52    55   am
    69    52    51    1
    70    37    35   ar
    71    21    18    1
    72    18    19    1
    73    38    36   ar
    74    66    68   ar
    75    66    65    1
    76    19    20    2
    77    62    65    1
    78    62    61    1
    79    51    50    1
    80    51    54    1
    81    35    36   ar
    82    35    34    1
    83    28    27    2
    84    22    23    1
    85    34    31    1
    86    29    27   am
    87    27    26    1
    88    31    30    1
    89    31    32    1
    90    23    26    1
    91    23    24    1
    92    48    49   ar
    93    48    46   ar
    94    49    47   ar
    95    32    33    2
    96    24    25    2
    97    46    45   ar
    98    47    45   ar
    99    45    44    1
   100    40    41    1
   101    44    41    1
   102    41    42    1
   103    42    43    2
