@<TRIPOS>MOLECULE
tmp/2w7yA00.pdb
 205 200 0 0 0
SMALL
GASTEIGER

@<TRIPOS>ATOM
      1  N         23.4700    5.5350   56.0930 N.3     8  GLY8       -0.1210
      2  CA        23.9780    5.7670   54.7410 C.3     8  GLY8        0.1956
      3  C         23.7290    7.1550   54.1660 C.2     8  GLY8        0.2612
      4  O         23.8280    7.3590   52.9560 O.2     8  GLY8       -0.2717
      5  N         23.4150    8.1160   55.0280 N.am    9  TYR9       -0.1962
      6  CA        23.1970    9.4930   54.5930 C.3     9  TYR9        0.1771
      7  C         24.5010   10.2910   54.6710 C.2     9  TYR9        0.2620
      8  O         24.7140   11.0880   55.5850 O.2     9  TYR9       -0.2715
      9  CB        22.0690   10.1440   55.3980 C.3     9  TYR9        0.0574
     10  CG        20.7310    9.4480   55.2460 C.ar    9  TYR9       -0.0198
     11  CD1       19.9540    9.6230   54.0980 C.ar    9  TYR9       -0.0009
     12  CD2       20.2450    8.6100   56.2450 C.ar    9  TYR9       -0.0009
     13  CE1       18.7260    8.9770   53.9530 C.ar    9  TYR9        0.0417
     14  CE2       19.0140    7.9630   56.1110 C.ar    9  TYR9        0.0417
     15  CZ        18.2610    8.1500   54.9630 C.ar    9  TYR9        0.1957
     16  OH        17.0460    7.5100   54.8150 O.3     9  TYR9       -0.2866
     17  N         25.3680   10.0470   53.6880 N.am   10  HIS10      -0.1959
     18  CA        26.7200   10.6180   53.6210 C.3    10  HIS10       0.1787
     19  C         26.7970   11.7960   52.6530 C.2    10  HIS10       0.2620
     20  O         27.7830   12.5270   52.6270 O.2    10  HIS10      -0.2715
     21  CB        27.7030    9.5380   53.1640 C.3    10  HIS10       0.0785
     22  CG        27.3400    8.9110   51.8520 C.ar   10  HIS10       0.0821
     23  ND1       27.6600    9.4840   50.6390 N.ar   10  HIS10      -0.2267
     24  CD2       26.6820    7.7630   51.5630 C.ar   10  HIS10       0.1154
     25  CE1       27.2150    8.7160   49.6600 C.ar   10  HIS10       0.1986
     26  NE2       26.6190    7.6650   50.1930 N.ar   10  HIS10      -0.2212
     27  N         25.7420   11.9570   51.8610 N.am   11  HIS11      -0.1973
     28  CA        25.7070   12.8810   50.7330 C.3    11  HIS11       0.1656
     29  C         25.8610   14.3390   51.1460 C.2    11  HIS11       0.2291
     30  O         25.2910   14.7760   52.1510 O.2    11  HIS11      -0.2864
     31  CB        24.3910   12.7090   49.9590 C.3    11  HIS11       0.0771
     32  CG        24.0360   11.2800   49.6810 C.ar   11  HIS11       0.0820
     33  ND1       24.1300   10.7190   48.4250 N.ar   11  HIS11      -0.2267
     34  CD2       23.6030   10.2940   50.5020 C.ar   11  HIS11       0.1154
     35  CE1       23.7640    9.4520   48.4840 C.ar   11  HIS11       0.1986
     36  NE2       23.4420    9.1680   49.7330 N.ar   11  HIS11      -0.2212
     37  N         22.5320   15.4290   47.4390 N.3    16  TRP16      -0.1241
     38  CA        21.2520   14.9580   47.9810 C.3    16  TRP16       0.1605
     39  C         20.9220   15.6690   49.3020 C.2    16  TRP16       0.2264
     40  O         21.4030   15.2600   50.3620 O.2    16  TRP16      -0.2867
     41  CB        21.2550   13.4290   48.1660 C.3    16  TRP16       0.0550
     42  CG        19.8820   12.8040   48.2710 C.ar   16  TRP16       0.0003
     43  CD1       18.7460   13.2000   47.6200 C.ar   16  TRP16       0.0946
     44  CD2       19.5160   11.6520   49.0450 C.ar   16  TRP16       0.0152
     45  NE1       17.6960   12.3780   47.9510 N.ar   16  TRP16      -0.2442
     46  CE2       18.1400   11.4180   48.8230 C.ar   16  TRP16       0.0810
     47  CE3       20.2140   10.8020   49.9130 C.ar   16  TRP16       0.0012
     48  CZ2       17.4450   10.3670   49.4390 C.ar   16  TRP16       0.0191
     49  CZ3       19.5230    9.7540   50.5250 C.ar   16  TRP16       0.0001
     50  CH2       18.1510    9.5480   50.2810 C.ar   16  TRP16       0.0015
     51  N         26.1860   -0.5670   53.5210 N.3    46  LEU46      -0.1245
     52  CA        25.7640   -0.6550   54.9180 C.3    46  LEU46       0.1561
     53  C         25.7200   -2.0940   55.4080 C.2    46  LEU46       0.2260
     54  O         25.9150   -2.3540   56.5980 O.2    46  LEU46      -0.2867
     55  CB        24.3850   -0.0160   55.1170 C.3    46  LEU46       0.0270
     56  CG        24.2880    1.5040   55.2640 C.3    46  LEU46       0.0019
     57  CD1       22.8260    1.9350   55.1990 C.3    46  LEU46       0.0001
     58  CD2       24.9380    1.9830   56.5570 C.3    46  LEU46       0.0001
     59  N         21.0440    1.8900   60.9100 N.3    63  ASP63      -0.1239
     60  CA        19.8880    2.0900   60.0440 C.3    63  ASP63       0.1674
     61  C         20.1680    1.3910   58.7230 C.2    63  ASP63       0.2266
     62  O         20.9940    1.8370   57.9240 O.2    63  ASP63      -0.2867
     63  CB        19.5790    3.5820   59.8290 C.3    63  ASP63       0.1410
     64  CG        18.4540    3.8130   58.8110 C.2    63  ASP63       0.3668
     65  OD1       18.4710    4.8720   58.1450 O.co2  63  ASP63      -0.2456
     66  OD2       17.5630    2.9430   58.6610 O.co2  63  ASP63      -0.2456
     67  N         18.2710    0.9780   56.1700 N.3    65  ALA65      -0.1231
     68  CA        17.7650    1.7270   55.0100 C.3    65  ALA65       0.1694
     69  C         17.0680    0.8630   53.9540 C.2    65  ALA65       0.2593
     70  O         17.2610    1.0640   52.7520 O.2    65  ALA65      -0.2718
     71  CB        18.8840    2.5520   54.3760 C.3    65  ALA65       0.0304
     72  N         16.2610   -0.0890   54.4180 N.am   66  GLY66      -0.1942
     73  CA        15.5430   -1.0110   53.5390 C.3    66  GLY66       0.2014
     74  C         16.1650   -2.3970   53.4700 C.2    66  GLY66       0.2638
     75  O         15.4830   -3.3690   53.1360 O.2    66  GLY66      -0.2714
     76  N         17.4640   -2.4820   53.7710 N.am   67  ASN67      -0.1972
     77  CA        18.1890   -3.7520   53.7560 C.3    67  ASN67       0.1688
     78  C         17.7040   -4.6900   54.8490 C.2    67  ASN67       0.2292
     79  O         17.3200   -4.2430   55.9230 O.2    67  ASN67      -0.2864
     80  CB        19.6980   -3.5280   53.8920 C.3    67  ASN67       0.1181
     81  CG        20.3020   -2.8390   52.6810 C.2    67  ASN67       0.2629
     82  OD1       20.8190   -1.7230   52.7810 O.2    67  ASN67      -0.2716
     83  ND2       20.2420   -3.5010   51.5310 N.am   67  ASN67      -0.0877
     84  N         11.9270    0.3780   60.3430 N.3   112  HIS112     -0.1241
     85  CA        12.2500    1.3600   59.3180 C.3   112  HIS112      0.1621
     86  C         11.3480    2.5850   59.4880 C.2   112  HIS112      0.2264
     87  O         10.1250    2.4880   59.3500 O.2   112  HIS112     -0.2867
     88  CB        12.0800    0.7180   57.9350 C.3   112  HIS112      0.0745
     89  CG        12.8450    1.3920   56.8360 C.ar  112  HIS112      0.0817
     90  ND1       12.6290    1.1070   55.5030 N.ar  112  HIS112     -0.2268
     91  CD2       13.8130    2.3390   56.8630 C.ar  112  HIS112      0.1154
     92  CE1       13.4360    1.8430   54.7590 C.ar  112  HIS112      0.1986
     93  NE2       14.1620    2.6020   55.5590 N.ar  112  HIS112     -0.2212
     94  N         11.1120    5.0490   57.5360 N.3   114  GLN114     -0.1231
     95  CA        10.5500    5.3410   56.2260 C.3   114  GLN114      0.1698
     96  C         10.0660    4.0350   55.6260 C.2   114  GLN114      0.2592
     97  O         10.8330    3.0830   55.5220 O.2   114  GLN114     -0.2718
     98  CB        11.6190    5.9160   55.3110 C.3   114  GLN114      0.0381
     99  CG        12.1270    7.2770   55.6880 C.3   114  GLN114      0.0905
    100  CD        13.4290    7.6070   54.9960 C.2   114  GLN114      0.2608
    101  OE1       14.4360    7.8300   55.6520 O.2   114  GLN114     -0.2717
    102  NE2       13.4190    7.6310   53.6650 N.am  114  GLN114     -0.0878
    103  N          8.8010    3.9900   55.2270 N.am  115  LEU115     -0.1966
    104  CA         8.2240    2.7810   54.6570 C.3   115  LEU115      0.1728
    105  C          8.7130    2.5010   53.2380 C.2   115  LEU115      0.2616
    106  O          8.8990    3.4180   52.4410 O.2   115  LEU115     -0.2715
    107  CB         6.6970    2.8640   54.6900 C.3   115  LEU115      0.0311
    108  CG         5.9200    2.1700   55.8130 C.3   115  LEU115      0.0022
    109  CD1        6.7370    1.9130   57.0840 C.3   115  LEU115      0.0001
    110  CD2        4.6570    2.9520   56.1190 C.3   115  LEU115      0.0001
    111  N          8.9140    1.2200   52.9380 N.am  116  PHE116     -0.1974
    112  CA         9.3250    0.7830   51.6110 C.3   116  PHE116      0.1639
    113  C          8.1100    0.7330   50.6830 C.2   116  PHE116      0.2290
    114  O          7.7380   -0.3230   50.1580 O.2   116  PHE116     -0.2864
    115  CB        10.0370   -0.5730   51.6760 C.3   116  PHE116      0.0560
    116  CG        11.1930   -0.6890   50.7230 C.ar  116  PHE116     -0.0200
    117  CD1       12.4780   -0.3440   51.1290 C.ar  116  PHE116     -0.0042
    118  CD2       10.9970   -1.1170   49.4140 C.ar  116  PHE116     -0.0042
    119  CE1       13.5530   -0.4350   50.2510 C.ar  116  PHE116     -0.0003
    120  CE2       12.0670   -1.2110   48.5350 C.ar  116  PHE116     -0.0003
    121  CZ        13.3460   -0.8670   48.9490 C.ar  116  PHE116     -0.0000
    122  N         19.3180   -4.1050   39.8030 N.3   162  GLU162     -0.1245
    123  CA        18.4960   -4.0230   41.0140 C.3   162  GLU162      0.1567
    124  C         17.0120   -3.7490   40.7040 C.2   162  GLU162      0.2260
    125  O         16.1440   -4.4110   41.2720 O.2   162  GLU162     -0.2867
    126  CB        19.0460   -2.9710   41.9920 C.3   162  GLU162      0.0388
    127  CG        18.2140   -2.7970   43.2740 C.3   162  GLU162      0.1160
    128  CD        18.6260   -1.5850   44.1020 C.2   162  GLU162      0.3649
    129  OE1       18.6790   -1.7010   45.3420 O.co2 162  GLU162     -0.2457
    130  OE2       18.8980   -0.5130   43.5190 O.co2 162  GLU162     -0.2457
    131  N         12.0740   -5.7740   41.0540 N.3   166  ARG166     -0.1245
    132  CA        10.7820   -5.1400   41.3160 C.3   166  ARG166      0.1563
    133  C          9.7360   -5.6170   40.3110 C.2   166  ARG166      0.2260
    134  O          8.5420   -5.6640   40.6240 O.2   166  ARG166     -0.2867
    135  CB        10.8830   -3.6060   41.2770 C.3   166  ARG166      0.0307
    136  CG        12.1500   -2.9980   41.8690 C.3   166  ARG166      0.0489
    137  CD        12.3320   -3.3260   43.3480 C.3   166  ARG166      0.2205
    138  NE        13.4010   -2.5280   43.9450 N.pl3 166  ARG166     -0.0865
    139  CZ        13.9160   -2.7380   45.1520 C.cat 166  ARG166      0.5346
    140  NH1       13.4660   -3.7290   45.9130 N.pl3 166  ARG166      0.1354
    141  NH2       14.8830   -1.9500   45.5970 N.pl3 166  ARG166      0.1354
    142  N         22.5570   -0.1330   39.4460 N.3   216  ASP216     -0.1225
    143  CA        21.4910   -0.0870   40.4530 C.3   216  ASP216      0.1805
    144  C         20.5860    1.1260   40.2310 C.2   216  ASP216      0.2598
    145  O         20.8660    1.9650   39.3670 O.2   216  ASP216     -0.2718
    146  CB        22.0810   -0.0580   41.8690 C.3   216  ASP216      0.1424
    147  CG        22.7580   -1.3670   42.2520 C.2   216  ASP216      0.3668
    148  OD1       22.7600   -2.3050   41.4220 O.co2 216  ASP216     -0.2456
    149  OD2       23.2900   -1.4620   43.3850 O.co2 216  ASP216     -0.2456
    150  N         19.5140    1.2180   41.0190 N.am  217  ALA217     -0.1966
    151  CA        18.5180    2.2900   40.8770 C.3   217  ALA217      0.1728
    152  C         19.1200    3.6960   40.9540 C.2   217  ALA217      0.2616
    153  O         18.6530    4.6160   40.2790 O.2   217  ALA217     -0.2715
    154  CB        17.4020    2.1290   41.9090 C.3   217  ALA217      0.0334
    155  N         20.1600    3.8510   41.7680 N.am  218  ASN218     -0.1972
    156  CA        20.8130    5.1450   41.9590 C.3   218  ASN218      0.1688
    157  C         21.4800    5.6960   40.6980 C.2   218  ASN218      0.2292
    158  O         21.5360    6.9110   40.5000 O.2   218  ASN218     -0.2864
    159  CB        21.8190    5.0760   43.1170 C.3   218  ASN218      0.1181
    160  CG        21.1470    5.1260   44.4880 C.2   218  ASN218      0.2629
    161  OD1       20.0840    5.7270   44.6520 O.2   218  ASN218     -0.2716
    162  ND2       21.7760    4.5030   45.4800 N.am  218  ASN218     -0.0877
    163  N         11.4930    2.6900   41.0350 N.3   234  ASN234     -0.1240
    164  CA        11.9400    3.1280   42.3570 C.3   234  ASN234      0.1653
    165  C         10.7520    3.5610   43.2190 C.2   234  ASN234      0.2266
    166  O          9.6550    3.7810   42.7040 O.2   234  ASN234     -0.2867
    167  CB        12.9850    4.2440   42.2500 C.3   234  ASN234      0.1155
    168  CG        13.8830    4.3310   43.4790 C.2   234  ASN234      0.2627
    169  OD1       13.8670    3.4450   44.3370 O.2   234  ASN234     -0.2716
    170  ND2       14.6670    5.4030   43.5700 N.am  234  ASN234     -0.0877
    171  N          9.9160    7.6150   47.6840 N.3   237  TRP237     -0.1241
    172  CA        10.9720    8.4760   48.2080 C.3   237  TRP237      0.1605
    173  C         11.7790    9.1820   47.1130 C.2   237  TRP237      0.2264
    174  O         12.5430   10.1020   47.4010 O.2   237  TRP237     -0.2867
    175  CB        11.8980    7.6620   49.1170 C.3   237  TRP237      0.0550
    176  CG        12.4730    6.4330   48.4530 C.ar  237  TRP237      0.0003
    177  CD1       13.6000    6.3720   47.6860 C.ar  237  TRP237      0.0946
    178  CD2       11.9450    5.0980   48.4970 C.ar  237  TRP237      0.0152
    179  NE1       13.8100    5.0870   47.2550 N.ar  237  TRP237     -0.2442
    180  CE2       12.8080    4.2840   47.7320 C.ar  237  TRP237      0.0810
    181  CE3       10.8300    4.5090   49.1100 C.ar  237  TRP237      0.0012
    182  CZ2       12.5950    2.9120   47.5700 C.ar  237  TRP237      0.0191
    183  CZ3       10.6200    3.1460   48.9460 C.ar  237  TRP237      0.0001
    184  CH2       11.4960    2.3650   48.1820 C.ar  237  TRP237      0.0015
    185  N          9.6990   11.2660   51.8440 N.3   299  ALA299     -0.1245
    186  CA         9.4360    9.8390   52.0330 C.3   299  ALA299      0.1562
    187  C          8.1250    9.5550   52.7670 C.2   299  ALA299      0.2260
    188  O          7.5150   10.4600   53.3390 O.2   299  ALA299     -0.2867
    189  CB        10.6030    9.1870   52.7490 C.3   299  ALA299      0.0290
    190  N         13.3290   -9.1940   49.6560 N.3   341  SER341     -0.1217
    191  CA        14.3140   -8.9760   50.7120 C.3   341  SER341      0.1889
    192  C         13.7530   -9.1420   52.1260 C.2   341  SER341      0.2288
    193  O         14.3970   -9.7450   52.9790 O.2   341  SER341     -0.2866
    194  CB        14.9360   -7.5840   50.5590 C.3   341  SER341      0.2089
    195  OG        16.0950   -7.4600   51.3620 O.3   341  SER341     -0.2183
    196  N         17.4320  -12.1550   47.7430 N.3   349  HIS349     -0.1241
    197  CA        17.3860  -10.8620   47.0450 C.3   349  HIS349      0.1621
    198  C         18.5660  -10.6870   46.0660 C.2   349  HIS349      0.2264
    199  O         18.3560  -10.5310   44.8580 O.2   349  HIS349     -0.2867
    200  CB        17.3380   -9.7500   48.1050 C.3   349  HIS349      0.0745
    201  CG        17.4160   -8.3570   47.5630 C.ar  349  HIS349      0.0817
    202  ND1       16.3310   -7.7040   47.0220 N.ar  349  HIS349     -0.2268
    203  CD2       18.4400   -7.4710   47.5330 C.ar  349  HIS349      0.1154
    204  CE1       16.6880   -6.4860   46.6560 C.ar  349  HIS349      0.1986
    205  NE2       17.9620   -6.3180   46.9600 N.ar  349  HIS349     -0.2212
@<TRIPOS>BOND
     1   145   144    2
     2   142   143    1
     3   122   123    1
     4   144   143    1
     5   144   150   am
     6   153   152    2
     7   133   134    2
     8   133   132    1
     9   143   146    1
    10   158   157    2
    11   157   156    1
    12   124   123    1
    13   124   125    2
    14   151   152    1
    15   151   150    1
    16   151   154    1
    17   152   155   am
    18   123   126    1
    19   163   164    1
    20   131   132    1
    21   135   132    1
    22   135   136    1
    23   148   147   ar
    24   155   156    1
    25   146   147    1
    26   136   137    1
    27   156   159    1
    28   126   127    1
    29   167   164    1
    30   167   168    1
    31   147   149   ar
    32   164   165    1
    33   166   165    2
    34   159   160    1
    35   127   128    1
    36   137   138    1
    37   168   170   am
    38   168   169    2
    39   130   128   ar
    40   138   139    2
    41   128   129   ar
    42   160   161    2
    43   160   162   am
    44   199   198    2
    45   139   141    1
    46   139   140    1
    47   198   197    1
    48   204   205   ar
    49   204   202   ar
    50   205   203   ar
    51   202   201   ar
    52   197   196    1
    53   197   200    1
    54   173   174    2
    55   173   172    1
    56   179   177   ar
    57   179   180   ar
    58    37    38    1
    59   203   201   ar
    60   201   200    1
    61   182   180   ar
    62   182   184   ar
    63    43    45   ar
    64    43    42   ar
    65   171   172    1
    66   177   176   ar
    67   180   178   ar
    68    45    46   ar
    69    38    41    1
    70    38    39    1
    71    41    42    1
    72   184   183   ar
    73   172   175    1
    74    42    44   ar
    75    33    35   ar
    76    33    32   ar
    77   176   178   ar
    78   176   175    1
    79    35    36   ar
    80   178   181   ar
    81   120   121   ar
    82   120   118   ar
    83    46    44   ar
    84    46    48   ar
    85   183   181   ar
    86   121   119   ar
    87    44    47   ar
    88    39    40    2
    89   118   116   ar
    90    48    50   ar
    91   190   191    1
    92    25    26   ar
    93    25    23   ar
    94    32    31    1
    95    32    34   ar
    96    36    34   ar
    97    47    49   ar
    98    31    28    1
    99   114   113    2
   100    26    24   ar
   101   119   117   ar
   102    50    49   ar
   103   194   191    1
   104   194   195    1
   105    23    22   ar
   106   113   112    1
   107   191   192    1
   108   116   117   ar
   109   116   115    1
   110    28    29    1
   111    28    27    1
   112    29    30    2
   113    83    81   am
   114    24    22   ar
   115   112   115    1
   116   112   111    1
   117   185   186    1
   118    22    21    1
   119    27    19   am
   120   186   189    1
   121   186   187    1
   122   192   193    2
   123   106   105    2
   124    20    19    2
   125    19    18    1
   126    81    82    2
   127    81    80    1
   128    70    69    2
   129   187   188    2
   130   111   105   am
   131     4     3    2
   132    75    74    2
   133    21    18    1
   134   105   104    1
   135    74    73    1
   136    74    76   am
   137    51    52    1
   138    73    72    1
   139    18    17    1
   140   102   100   am
   141    17     7   am
   142    77    76    1
   143    77    80    1
   144    77    78    1
   145    13    11   ar
   146    13    15   ar
   147    69    72   am
   148    69    68    1
   149    11    10   ar
   150     3     2    1
   151     3     5   am
   152    71    68    1
   153     6     7    1
   154     6     5    1
   155     6     9    1
   156   104   107    1
   157   104   103    1
   158     7     8    2
   159   107   108    1
   160     2     1    1
   161    92    90   ar
   162    92    93   ar
   163    16    15    1
   164    78    79    2
   165    52    55    1
   166    52    53    1
   167    15    14   ar
   168   100   101    2
   169   100    99    1
   170    68    67    1
   171    55    56    1
   172    57    56    1
   173   103    96   am
   174    10     9    1
   175    10    12   ar
   176    56    58    1
   177    98    99    1
   178    98    95    1
   179    53    54    2
   180    90    89   ar
   181    97    96    2
   182    93    91   ar
   183    96    95    1
   184   108   110    1
   185   108   109    1
   186    14    12   ar
   187    95    94    1
   188    89    91   ar
   189    89    88    1
   190    62    61    2
   191    88    85    1
   192    65    64   ar
   193    66    64   ar
   194    61    60    1
   195    64    63    1
   196    85    86    1
   197    85    84    1
   198    87    86    2
   199    63    60    1
   200    60    59    1
