@<TRIPOS>MOLECULE
tmp/2w87A00.pdb
 101 96 0 0 0
SMALL
GASTEIGER

@<TRIPOS>ATOM
      1  N        -13.8240    1.9190   14.3920 N.3    19  ASP19      -0.1239
      2  CA       -14.8770    0.9370   14.4910 C.3    19  ASP19       0.1674
      3  C        -16.2310    1.6380   14.5110 C.2    19  ASP19       0.2266
      4  O        -16.3280    2.8680   14.6910 O.2    19  ASP19      -0.2867
      5  CB       -14.7470    0.1230   15.7850 C.3    19  ASP19       0.1410
      6  CG       -13.5410   -0.7590   15.8210 C.2    19  ASP19       0.3668
      7  OD1      -12.7390   -0.7770   14.8610 O.co2  19  ASP19      -0.2456
      8  OD2      -13.4100   -1.4690   16.8420 O.co2  19  ASP19      -0.2456
      9  N        -19.2050   -0.6670   15.5850 N.3    21  ASN21      -0.1225
     10  CA       -20.0260   -1.8120   16.0080 C.3    21  ASN21       0.1785
     11  C        -20.7160   -1.6340   17.3660 C.2    21  ASN21       0.2597
     12  O        -21.2310   -2.5980   17.9370 O.2    21  ASN21      -0.2718
     13  CB       -19.1760   -3.0830   16.0410 C.3    21  ASN21       0.1169
     14  CG       -18.0740   -3.0150   17.0740 C.2    21  ASN21       0.2627
     15  OD1      -17.5320   -1.9460   17.3280 O.2    21  ASN21      -0.2716
     16  ND2      -17.7420   -4.1540   17.6810 N.am   21  ASN21      -0.0877
     17  N        -20.7040   -0.4230   17.8950 N.am   22  HIS22      -0.1975
     18  CA       -21.5190   -0.0720   19.0540 C.3    22  HIS22       0.1656
     19  C        -22.2650    1.2010   18.6960 C.2    22  HIS22       0.2291
     20  O        -21.6650    2.1300   18.1870 O.2    22  HIS22      -0.2864
     21  CB       -20.6480    0.2220   20.2810 C.3    22  HIS22       0.0771
     22  CG       -19.8110   -0.9300   20.7310 C.ar   22  HIS22       0.0820
     23  ND1      -20.3570   -2.1170   21.1690 N.ar   22  HIS22      -0.2267
     24  CD2      -18.4690   -1.0560   20.8620 C.ar   22  HIS22       0.1154
     25  CE1      -19.3820   -2.9340   21.5320 C.ar   22  HIS22       0.1986
     26  NE2      -18.2260   -2.3170   21.3440 N.ar   22  HIS22      -0.2212
     27  N        -15.8480    5.4940   15.6390 N.3    30  PHE30      -0.1241
     28  CA       -15.0940    5.8880   16.8160 C.3    30  PHE30       0.1605
     29  C        -13.7320    5.2240   16.7750 C.2    30  PHE30       0.2264
     30  O        -13.5480    4.2090   16.1040 O.2    30  PHE30      -0.2867
     31  CB       -15.8450    5.5030   18.0860 C.3    30  PHE30       0.0534
     32  CG       -16.2770    4.0580   18.1440 C.ar   30  PHE30      -0.0203
     33  CD1      -15.4160    3.0720   18.5880 C.ar   30  PHE30      -0.0042
     34  CD2      -17.5580    3.6890   17.7670 C.ar   30  PHE30      -0.0042
     35  CE1      -15.8210    1.7590   18.6520 C.ar   30  PHE30      -0.0003
     36  CE2      -17.9710    2.3850   17.8370 C.ar   30  PHE30      -0.0003
     37  CZ       -17.1080    1.4130   18.2800 C.ar   30  PHE30      -0.0000
     38  N        -10.9050    3.0620   18.3230 N.3    32  ASN32      -0.1225
     39  CA       -10.7580    1.9870   19.2930 C.3    32  ASN32       0.1785
     40  C         -9.2800    1.6180   19.4460 C.2    32  ASN32       0.2597
     41  O         -8.7160    0.9480   18.5860 O.2    32  ASN32      -0.2718
     42  CB       -11.5390    0.7680   18.8030 C.3    32  ASN32       0.1169
     43  CG       -11.3460   -0.4540   19.6770 C.2    32  ASN32       0.2627
     44  OD1      -10.6630   -0.4000   20.7120 O.2    32  ASN32      -0.2716
     45  ND2      -11.9640   -1.5750   19.2650 N.am   32  ASN32      -0.0877
     46  N         -8.6420    2.0810   20.5090 N.am   33  THR33      -0.1953
     47  CA        -7.2210    1.7760   20.7210 C.3    33  THR33       0.1897
     48  C         -6.9920    0.3000   21.0300 C.2    33  THR33       0.2313
     49  O         -7.8300   -0.3550   21.6620 O.2    33  THR33      -0.2863
     50  CB        -6.5970    2.5730   21.8960 C.3    33  THR33       0.1794
     51  OG1       -7.3340    2.3310   23.1050 O.3    33  THR33      -0.2208
     52  CG2       -6.5610    4.0590   21.5750 C.3    33  THR33       0.0378
     53  N         -5.4880   -2.4900   23.2800 N.3    35  ASN35      -0.1240
     54  CA        -5.5060   -2.5770   24.7310 C.3    35  ASN35       0.1653
     55  C         -4.0780   -2.7090   25.2560 C.2    35  ASN35       0.2266
     56  O         -3.6070   -3.8080   25.5860 O.2    35  ASN35      -0.2867
     57  CB        -6.4180   -3.7300   25.1530 C.3    35  ASN35       0.1155
     58  CG        -7.7710   -3.6770   24.4410 C.2    35  ASN35       0.2627
     59  OD1       -8.2940   -2.5910   24.1600 O.2    35  ASN35      -0.2716
     60  ND2       -8.3030   -4.8350   24.0910 N.am   35  ASN35      -0.0877
     61  N         -9.9990    4.4640   32.4220 N.3    67  ARG67      -0.1245
     62  CA        -8.9600    4.2960   31.4310 C.3    67  ARG67       0.1563
     63  C         -8.4130    5.7030   31.1260 C.2    67  ARG67       0.2260
     64  O         -8.5420    6.2190   30.0000 O.2    67  ARG67      -0.2867
     65  CB        -9.5500    3.6540   30.2080 C.3    67  ARG67       0.0307
     66  CG        -9.9740    2.2490   30.4180 C.3    67  ARG67       0.0489
     67  CD       -10.3720    1.6490   29.1070 C.3    67  ARG67       0.2205
     68  NE       -10.8590    0.2850   29.2620 N.pl3  67  ARG67      -0.0865
     69  CZ       -11.0450   -0.5470   28.2430 C.cat  67  ARG67       0.5346
     70  NH1      -10.7800   -0.1640   27.0030 N.pl3  67  ARG67       0.1354
     71  NH2      -11.4800   -1.7840   28.4660 N.pl3  67  ARG67       0.1354
     72  N        -20.5460    0.0190   26.3640 N.3    91  TRP91      -0.1241
     73  CA       -19.8880    0.5130   25.1560 C.3    91  TRP91       0.1605
     74  C        -20.8240    1.3430   24.2720 C.2    91  TRP91       0.2264
     75  O        -20.3970    1.9920   23.3100 O.2    91  TRP91      -0.2867
     76  CB       -19.2670   -0.6380   24.3470 C.3    91  TRP91       0.0550
     77  CG       -18.1900   -1.3160   25.0840 C.ar   91  TRP91       0.0003
     78  CD1      -18.2130   -2.5740   25.6300 C.ar   91  TRP91       0.0946
     79  CD2      -16.9090   -0.7580   25.4250 C.ar   91  TRP91       0.0152
     80  NE1      -17.0270   -2.8350   26.2570 N.ar   91  TRP91      -0.2442
     81  CE2      -16.2050   -1.7440   26.1480 C.ar   91  TRP91       0.0810
     82  CE3      -16.2840    0.4590   25.1680 C.ar   91  TRP91       0.0012
     83  CZ2      -14.9130   -1.5350   26.6380 C.ar   91  TRP91       0.0191
     84  CZ3      -14.9880    0.6700   25.6590 C.ar   91  TRP91       0.0001
     85  CH2      -14.3130   -0.3190   26.3750 C.ar   91  TRP91       0.0015
     86  N         -7.2390    3.0670   25.8480 N.3   120  LEU120     -0.1245
     87  CA        -8.2240    4.1090   26.0750 C.3   120  LEU120      0.1561
     88  C         -9.6500    3.5840   26.0360 C.2   120  LEU120      0.2260
     89  O         -9.9010    2.4690   25.6080 O.2   120  LEU120     -0.2867
     90  CB        -8.0740    5.2050   25.0080 C.3   120  LEU120      0.0270
     91  CG        -6.8320    6.0840   25.1020 C.3   120  LEU120      0.0019
     92  CD1       -6.7910    7.0370   23.8600 C.3   120  LEU120      0.0001
     93  CD2       -6.8240    6.8860   26.3920 C.3   120  LEU120      0.0001
     94  N        -13.2500    3.9040   24.0190 N.3   122  ASN122     -0.1240
     95  CA       -13.5240    4.2110   22.6200 C.3   122  ASN122      0.1653
     96  C        -13.7810    5.7080   22.5030 C.2   122  ASN122      0.2266
     97  O        -14.5370    6.2660   23.3020 O.2   122  ASN122     -0.2867
     98  CB       -14.7330    3.4080   22.1450 C.3   122  ASN122      0.1155
     99  CG       -14.4350    1.9170   21.9910 C.2   122  ASN122      0.2627
    100  OD1      -13.2740    1.5040   21.8330 O.2   122  ASN122     -0.2716
    101  ND2      -15.4850    1.1090   21.9860 N.am  122  ASN122     -0.0877
@<TRIPOS>BOND
     1     1     2    1
     2     2     3    1
     3     2     5    1
     4     3     4    2
     5     7     6   ar
     6     9    10    1
     7    27    28    1
     8     5     6    1
     9     6     8   ar
    10    10    13    1
    11    10    11    1
    12    13    14    1
    13    30    29    2
    14    29    28    1
    15    28    31    1
    16    14    15    2
    17    14    16   am
    18    11    17   am
    19    11    12    2
    20    34    36   ar
    21    34    32   ar
    22    36    37   ar
    23    17    18    1
    24    31    32    1
    25    32    33   ar
    26    20    19    2
    27    37    35   ar
    28    38    39    1
    29    41    40    2
    30    33    35   ar
    31    19    18    1
    32    42    39    1
    33    42    43    1
    34    18    21    1
    35    45    43   am
    36    39    40    1
    37    40    46   am
    38    43    44    2
    39    21    22    1
    40    46    47    1
    41    47    48    1
    42    47    50    1
    43    22    24   ar
    44    22    23   ar
    45    24    26   ar
    46    48    49    2
    47    23    25   ar
    48    26    25   ar
    49    52    50    1
    50   100    99    2
    51    50    51    1
    52   101    99   am
    53    99    98    1
    54    98    95    1
    55    96    95    1
    56    96    97    2
    57    95    94    1
    58    53    54    1
    59    75    74    2
    60    92    91    1
    61    60    58   am
    62    59    58    2
    63    74    73    1
    64    76    77    1
    65    76    73    1
    66    58    57    1
    67    54    57    1
    68    54    55    1
    69    90    91    1
    70    90    87    1
    71    77    79   ar
    72    77    78   ar
    73    91    93    1
    74    73    72    1
    75    82    79   ar
    76    82    84   ar
    77    55    56    2
    78    79    81   ar
    79    89    88    2
    80    78    80   ar
    81    84    85   ar
    82    86    87    1
    83    88    87    1
    84    81    80   ar
    85    81    83   ar
    86    85    83   ar
    87    70    69    1
    88    69    71    1
    89    69    68    2
    90    67    68    1
    91    67    66    1
    92    64    63    2
    93    65    66    1
    94    65    62    1
    95    63    62    1
    96    62    61    1
