@<TRIPOS>MOLECULE
tmp/2w8dA00.pdb
 94 90 0 0 0
SMALL
GASTEIGER

@<TRIPOS>ATOM
      1  N         31.4370  -21.1870  127.7650 N.3   142  ASP142     -0.1225
      2  CA        30.3390  -22.1910  127.8670 C.3   142  ASP142      0.1805
      3  C         29.2220  -21.8900  126.8990 C.2   142  ASP142      0.2597
      4  O         28.5980  -22.8070  126.3980 O.2   142  ASP142     -0.2718
      5  CB        29.6900  -22.2780  129.2800 C.3   142  ASP142      0.1424
      6  CG        30.6690  -22.6630  130.3550 C.2   142  ASP142      0.3668
      7  OD1       31.1410  -23.7980  130.2970 O.co2 142  ASP142     -0.2456
      8  OD2       31.0030  -21.8260  131.2300 O.co2 142  ASP142     -0.2456
      9  N         28.9350  -20.6080  126.6730 N.am  143  LYS143     -0.1979
     10  CA        27.7610  -20.2550  125.8800 C.3   143  LYS143      0.1596
     11  C         28.0040  -19.1220  124.8790 C.2   143  LYS143      0.2287
     12  O         28.6920  -18.1450  125.1670 O.2   143  LYS143     -0.2864
     13  CB        26.5860  -19.8970  126.7940 C.3   143  LYS143      0.0298
     14  CG        26.0350  -21.0230  127.6800 C.3   143  LYS143      0.0038
     15  CD        25.1990  -20.3860  128.7750 C.3   143  LYS143      0.0206
     16  CE        24.7200  -21.3600  129.8410 C.3   143  LYS143      0.1093
     17  NZ        23.7740  -22.3530  129.2640 N.3   143  LYS143     -0.1314
     18  N         25.7140  -16.5950  122.7610 N.3   145  PHE145     -0.1241
     19  CA        24.4360  -16.0160  122.3300 C.3   145  PHE145      0.1605
     20  C         24.6250  -15.1880  121.0760 C.2   145  PHE145      0.2264
     21  O         24.7790  -13.9750  121.1540 O.2   145  PHE145     -0.2867
     22  CB        23.7870  -15.1750  123.4410 C.3   145  PHE145      0.0534
     23  CG        23.3490  -15.9850  124.6340 C.ar  145  PHE145     -0.0203
     24  CD1       22.2150  -16.7770  124.5730 C.ar  145  PHE145     -0.0042
     25  CD2       24.0940  -15.9780  125.8060 C.ar  145  PHE145     -0.0042
     26  CE1       21.8010  -17.5670  125.6740 C.ar  145  PHE145     -0.0003
     27  CE2       23.7010  -16.7480  126.9090 C.ar  145  PHE145     -0.0003
     28  CZ        22.5570  -17.5600  126.8350 C.ar  145  PHE145     -0.0000
     29  N         19.6610  -15.6720  118.5800 N.3   149  TYR149     -0.1241
     30  CA        18.8820  -15.4000  119.7790 C.3   149  TYR149      0.1605
     31  C         18.2570  -14.0060  119.8140 C.2   149  TYR149      0.2264
     32  O         17.6020  -13.6550  120.7940 O.2   149  TYR149     -0.2867
     33  CB        19.7350  -15.5810  121.0240 C.3   149  TYR149      0.0534
     34  CG        20.1040  -17.0020  121.3330 C.ar  149  TYR149     -0.0201
     35  CD1       19.3510  -17.7650  122.2390 C.ar  149  TYR149     -0.0009
     36  CD2       21.2300  -17.5890  120.7430 C.ar  149  TYR149     -0.0009
     37  CE1       19.7020  -19.0910  122.5300 C.ar  149  TYR149      0.0417
     38  CE2       21.5830  -18.9020  121.0250 C.ar  149  TYR149      0.0417
     39  CZ        20.8340  -19.6370  121.9160 C.ar  149  TYR149      0.1957
     40  OH        21.2230  -20.9430  122.1630 O.3   149  TYR149     -0.2866
     41  N         18.4710  -13.0200  128.7670 N.3   171  LEU171     -0.1245
     42  CA        19.4530  -14.0390  128.5340 C.3   171  LEU171      0.1561
     43  C         20.5070  -13.9470  129.6370 C.2   171  LEU171      0.2260
     44  O         20.8870  -14.9440  130.2330 O.2   171  LEU171     -0.2867
     45  CB        20.0390  -13.8990  127.1330 C.3   171  LEU171      0.0270
     46  CG        18.9760  -13.9550  126.0320 C.3   171  LEU171      0.0019
     47  CD1       19.6070  -13.5590  124.7230 C.3   171  LEU171      0.0001
     48  CD2       18.2490  -15.3750  125.9320 C.3   171  LEU171      0.0001
     49  N         19.4040  -15.1800  133.0960 N.3   174  SER174     -0.1202
     50  CA        19.1920  -16.6220  133.2050 C.3   174  SER174      0.2020
     51  C         20.5130  -17.3570  133.5450 C.2   174  SER174      0.2619
     52  O         20.5220  -18.5550  133.7980 O.2   174  SER174     -0.2717
     53  CB        18.5210  -17.1790  131.9330 C.3   174  SER174      0.2103
     54  OG        19.4910  -17.5650  130.9580 O.3   174  SER174     -0.2182
     55  N         21.6180  -16.6280  133.5850 N.am  175  LEU175     -0.1966
     56  CA        22.9220  -17.2600  133.7840 C.3   175  LEU175      0.1713
     57  C         23.1650  -17.6190  135.2460 C.2   175  LEU175      0.2458
     58  O         23.0520  -16.7700  136.1310 O.2   175  LEU175     -0.2730
     59  CB        24.0500  -16.3610  133.2700 C.3   175  LEU175      0.0310
     60  CG        24.6340  -16.5660  131.8660 C.3   175  LEU175      0.0022
     61  CD1       23.5900  -16.8530  130.8010 C.3   175  LEU175      0.0001
     62  CD2       25.5100  -15.3640  131.4510 C.3   175  LEU175      0.0001
     63  N         23.5350  -18.8840  135.5100 N.am  176  PRO176     -0.2727
     64  CA        23.8590  -19.2120  136.9030 C.3   176  PRO176      0.1402
     65  C         25.0800  -18.3740  137.3290 C.2   176  PRO176      0.2269
     66  O         25.9970  -18.1570  136.5390 O.2   176  PRO176     -0.2865
     67  CB        24.1640  -20.7060  136.8520 C.3   176  PRO176      0.0296
     68  CG        24.5630  -20.9560  135.4520 C.3   176  PRO176      0.0237
     69  CD        23.8950  -19.9590  134.5740 C.3   176  PRO176      0.0939
     70  N         28.9150  -26.5880  122.6950 N.3   403  ASP403     -0.1239
     71  CA        28.0410  -26.7020  121.5450 C.3   403  ASP403      0.1674
     72  C         27.2380  -25.4270  121.4810 C.2   403  ASP403      0.2266
     73  O         26.6290  -25.0330  122.4690 O.2   403  ASP403     -0.2867
     74  CB        27.1150  -27.8880  121.6920 C.3   403  ASP403      0.1410
     75  CG        26.0540  -27.9370  120.5980 C.2   403  ASP403      0.3668
     76  OD1       26.4650  -27.8750  119.3920 O.co2 403  ASP403     -0.2456
     77  OD2       24.8360  -28.0570  120.9680 O.co2 403  ASP403     -0.2456
     78  N         24.8400  -24.5660  118.9440 N.3   405  THR405     -0.1218
     79  CA        23.6130  -24.6340  118.1840 C.3   405  THR405      0.1862
     80  C         22.4540  -24.1780  119.0970 C.2   405  THR405      0.2287
     81  O         22.3650  -24.6050  120.2620 O.2   405  THR405     -0.2866
     82  CB        23.3910  -26.0830  117.6850 C.3   405  THR405      0.1770
     83  OG1       24.5310  -26.5150  116.9210 O.3   405  THR405     -0.2211
     84  CG2       22.1280  -26.1910  116.8280 C.3   405  THR405      0.0375
     85  N         18.6620  -24.4440  120.0780 N.3   407  HIS407     -0.1241
     86  CA        17.7180  -25.5310  119.8680 C.3   407  HIS407      0.1621
     87  C         16.2970  -25.0730  119.5640 C.2   407  HIS407      0.2264
     88  O         15.7510  -25.4460  118.5200 O.2   407  HIS407     -0.2867
     89  CB        17.7650  -26.5740  120.9880 C.3   407  HIS407      0.0745
     90  CG        17.8220  -27.9840  120.4730 C.ar  407  HIS407      0.0817
     91  ND1       18.9450  -28.5060  119.8600 N.ar  407  HIS407     -0.2268
     92  CD2       16.8880  -28.9720  120.4530 C.ar  407  HIS407      0.1154
     93  CE1       18.7030  -29.7560  119.4940 C.ar  407  HIS407      0.1986
     94  NE2       17.4640  -30.0640  119.8440 N.ar  407  HIS407     -0.2212
@<TRIPOS>BOND
     1    84    82    1
     2    83    82    1
     3    82    79    1
     4    79    78    1
     5    79    80    1
     6    88    87    2
     7    29    30    1
     8    80    81    2
     9    76    75   ar
    10    93    94   ar
    11    93    91   ar
    12    87    86    1
    13    30    31    1
    14    30    33    1
    15    31    32    2
    16    94    92   ar
    17    91    90   ar
    18    86    85    1
    19    86    89    1
    20    92    90   ar
    21    90    89    1
    22    75    77   ar
    23    75    74    1
    24    36    38   ar
    25    36    34   ar
    26    33    34    1
    27    38    39   ar
    28    20    21    2
    29    20    19    1
    30    34    35   ar
    31    72    71    1
    32    72    73    2
    33    71    74    1
    34    71    70    1
    35    39    40    1
    36    39    37   ar
    37    35    37   ar
    38    19    18    1
    39    19    22    1
    40    22    23    1
    41    24    23   ar
    42    24    26   ar
    43    23    25   ar
    44    47    46    1
    45    11    12    2
    46    11    10    1
    47    26    28   ar
    48    25    27   ar
    49    10     9    1
    50    10    13    1
    51    48    46    1
    52    46    45    1
    53     4     3    2
    54     9     3   am
    55    13    14    1
    56    28    27   ar
    57     3     2    1
    58    45    42    1
    59    14    15    1
    60     1     2    1
    61     2     5    1
    62    42    41    1
    63    42    43    1
    64    15    16    1
    65    17    16    1
    66     5     6    1
    67    43    44    2
    68     7     6   ar
    69     6     8   ar
    70    61    60    1
    71    54    53    1
    72    62    60    1
    73    60    59    1
    74    53    50    1
    75    49    50    1
    76    50    51    1
    77    59    56    1
    78    51    55   am
    79    51    52    2
    80    55    56    1
    81    56    57    1
    82    69    68    1
    83    69    63    1
    84    57    63   am
    85    57    58    2
    86    68    67    1
    87    63    64    1
    88    66    65    2
    89    67    64    1
    90    64    65    1
