@<TRIPOS>MOLECULE
tmp/2w8gA00.pdb
 96 97 0 0 0
SMALL
GASTEIGER

@<TRIPOS>ATOM
      1  N         46.4080  -33.9770   12.9680 N.3    91  TYR91      -0.1241
      2  CA        47.1410  -34.4030   11.7860 C.3    91  TYR91       0.1605
      3  C         46.8420  -35.8270   11.2630 C.2    91  TYR91       0.2264
      4  O         47.3060  -36.1710   10.1700 O.2    91  TYR91      -0.2867
      5  CB        48.6200  -34.3070   12.0610 C.3    91  TYR91       0.0534
      6  CG        49.1460  -32.9220   12.1950 C.ar   91  TYR91      -0.0201
      7  CD1       48.3830  -31.8250   11.8510 C.ar   91  TYR91      -0.0009
      8  CD2       50.4540  -32.7040   12.6520 C.ar   91  TYR91      -0.0009
      9  CE1       48.8930  -30.5690   11.9520 C.ar   91  TYR91       0.0417
     10  CE2       50.9580  -31.4550   12.7630 C.ar   91  TYR91       0.0417
     11  CZ        50.1710  -30.3990   12.3960 C.ar   91  TYR91       0.1957
     12  OH        50.6420  -29.1430   12.4950 O.3    91  TYR91      -0.2866
     13  N         48.7150  -36.1430   16.9080 N.3   141  LYS141     -0.1245
     14  CA        49.3060  -34.8140   16.9290 C.3   141  LYS141      0.1561
     15  C         48.3350  -33.7180   16.4830 C.2   141  LYS141      0.2260
     16  O         47.5290  -33.9370   15.5690 O.2   141  LYS141     -0.2867
     17  CB        50.5070  -34.8070   16.0190 C.3   141  LYS141      0.0271
     18  CG        51.6060  -35.7220   16.4960 C.3   141  LYS141      0.0035
     19  CD        52.7840  -35.7960   15.4970 C.3   141  LYS141      0.0206
     20  CE        53.8320  -36.7540   16.0000 C.3   141  LYS141      0.1093
     21  NZ        54.8830  -36.8910   15.0230 N.3   141  LYS141     -0.1314
     22  N         49.0770  -26.2470   13.9400 N.3   144  SER144     -0.1202
     23  CA        48.6140  -25.4090   12.8370 C.3   144  SER144      0.2020
     24  C         48.7710  -26.1890   11.5500 C.2   144  SER144      0.2619
     25  O         49.6700  -26.9830   11.4230 O.2   144  SER144     -0.2717
     26  CB        49.4190  -24.1270   12.7460 C.3   144  SER144      0.2103
     27  OG        49.2470  -23.4950   11.5000 O.3   144  SER144     -0.2182
     28  N         47.8790  -25.9860   10.6000 N.am  145  TRP145     -0.1961
     29  CA        48.0330  -26.6330    9.3110 C.3   145  TRP145      0.1771
     30  C         49.0240  -25.8810    8.4330 C.2   145  TRP145      0.2619
     31  O         49.8600  -26.4980    7.7770 O.2   145  TRP145     -0.2715
     32  CB        46.6760  -26.7520    8.6110 C.3   145  TRP145      0.0590
     33  CG        46.6560  -27.6590    7.4170 C.ar  145  TRP145      0.0006
     34  CD1       46.3660  -27.3120    6.1370 C.ar  145  TRP145      0.0946
     35  CD2       46.9340  -29.0540    7.4070 C.ar  145  TRP145      0.0152
     36  NE1       46.4490  -28.4090    5.3150 N.ar  145  TRP145     -0.2442
     37  CE2       46.7960  -29.4970    6.0700 C.ar  145  TRP145      0.0810
     38  CE3       47.2920  -29.9800    8.3970 C.ar  145  TRP145      0.0012
     39  CZ2       46.9860  -30.8360    5.6950 C.ar  145  TRP145      0.0191
     40  CZ3       47.4940  -31.3010    8.0280 C.ar  145  TRP145      0.0001
     41  CH2       47.3490  -31.7150    6.6770 C.ar  145  TRP145      0.0015
     42  N         48.9710  -24.5550    8.4360 N.am  146  VAL146     -0.1963
     43  CA        49.8080  -23.8180    7.4920 C.3   146  VAL146      0.1727
     44  C         50.8260  -22.8360    8.0860 C.2   146  VAL146      0.2616
     45  O         51.6100  -22.2590    7.3470 O.2   146  VAL146     -0.2715
     46  CB        48.9340  -23.1330    6.4390 C.3   146  VAL146      0.0290
     47  CG1       48.2290  -24.2080    5.5870 C.3   146  VAL146      0.0023
     48  CG2       47.9320  -22.1890    7.1020 C.3   146  VAL146      0.0023
     49  N         50.8440  -22.6640    9.4040 N.am  147  TYR147     -0.1974
     50  CA        51.8530  -21.8200   10.0550 C.3   147  TYR147      0.1639
     51  C         52.9610  -22.6650   10.7100 C.2   147  TYR147      0.2290
     52  O         52.6730  -23.5200   11.5850 O.2   147  TYR147     -0.2864
     53  CB        51.2310  -20.9010   11.1420 C.3   147  TYR147      0.0560
     54  CG        50.2670  -19.8380   10.6650 C.ar  147  TYR147     -0.0198
     55  CD1       50.7190  -18.5890   10.2070 C.ar  147  TYR147     -0.0009
     56  CD2       48.8910  -20.0680   10.7200 C.ar  147  TYR147     -0.0009
     57  CE1       49.8170  -17.6050    9.8060 C.ar  147  TYR147      0.0417
     58  CE2       47.9900  -19.1130   10.3130 C.ar  147  TYR147      0.0417
     59  CZ        48.4400  -17.8790    9.8520 C.ar  147  TYR147      0.1957
     60  OH        47.4670  -16.9640    9.4350 O.3   147  TYR147     -0.2866
     61  N         61.9270  -30.8580    9.1670 N.3   186  TYR186     -0.1241
     62  CA        61.9770  -31.7460    7.9820 C.3   186  TYR186      0.1605
     63  C         63.2660  -31.4210    7.2210 C.2   186  TYR186      0.2264
     64  O         63.5990  -30.2340    7.0570 O.2   186  TYR186     -0.2867
     65  CB        60.6660  -31.6980    7.1520 C.3   186  TYR186      0.0534
     66  CG        59.4080  -31.9140    8.0130 C.ar  186  TYR186     -0.0201
     67  CD1       59.4760  -32.5770    9.2600 C.ar  186  TYR186     -0.0009
     68  CD2       58.1580  -31.4490    7.5840 C.ar  186  TYR186     -0.0009
     69  CE1       58.3130  -32.7620   10.0730 C.ar  186  TYR186      0.0417
     70  CE2       56.9910  -31.6330    8.3610 C.ar  186  TYR186      0.0417
     71  CZ        57.0540  -32.2860    9.6250 C.ar  186  TYR186      0.1957
     72  OH        55.8980  -32.4600   10.4270 O.3   186  TYR186     -0.2866
     73  N         64.5680  -30.9690    4.5090 N.3   188  CYS188     -0.1221
     74  CA        64.5970  -29.9040    3.4790 C.3   188  CYS188      0.1808
     75  C         64.9180  -28.5030    4.0510 C.2   188  CYS188      0.2601
     76  O         65.8710  -27.8130    3.6630 O.2   188  CYS188     -0.2717
     77  CB        63.2050  -29.8230    2.8020 C.3   188  CYS188      0.0970
     78  SG        61.7240  -29.5780    3.9810 S.3   188  CYS188     -0.0800
     79  N         64.1100  -28.1390    5.0250 N.am  189  CYS189     -0.1970
     80  CA        63.7470  -26.7590    5.2790 C.3   189  CYS189      0.1712
     81  C         64.3550  -26.2580    6.6010 C.2   189  CYS189      0.2296
     82  O         64.7050  -27.0630    7.4710 O.2   189  CYS189     -0.2864
     83  CB        62.2070  -26.6820    5.3320 C.3   189  CYS189      0.0983
     84  SG        61.2910  -27.5640    3.9190 S.3   189  CYS189     -0.0798
     85  N         58.8340  -26.9530   13.0210 N.3   193  TYR193     -0.1241
     86  CA        57.4140  -27.3160   13.0720 C.3   193  TYR193      0.1605
     87  C         57.0170  -27.8510   14.4490 C.2   193  TYR193      0.2264
     88  O         57.7950  -28.4790   15.1640 O.2   193  TYR193     -0.2867
     89  CB        57.0640  -28.2750   11.9310 C.3   193  TYR193      0.0534
     90  CG        57.0110  -27.5690   10.5800 C.ar  193  TYR193     -0.0201
     91  CD1       58.1470  -27.4910    9.7550 C.ar  193  TYR193     -0.0009
     92  CD2       55.8430  -26.9460   10.1470 C.ar  193  TYR193     -0.0009
     93  CE1       58.1060  -26.8390    8.5160 C.ar  193  TYR193      0.0417
     94  CE2       55.7950  -26.2700    8.9180 C.ar  193  TYR193      0.0417
     95  CZ        56.9250  -26.2230    8.1010 C.ar  193  TYR193      0.1957
     96  OH        56.8570  -25.5500    6.8880 O.3   193  TYR193     -0.2866
@<TRIPOS>BOND
     1    77    74    1
     2    77    78    1
     3    74    75    1
     4    74    73    1
     5    76    75    2
     6    84    78    1
     7    84    83    1
     8    75    79   am
     9    79    80    1
    10    80    83    1
    11    80    81    1
    12    36    37   ar
    13    36    34   ar
    14    47    46    1
    15    39    37   ar
    16    39    41   ar
    17    37    35   ar
    18    34    33   ar
    19    46    48    1
    20    46    43    1
    21    81    82    2
    22    41    40   ar
    23    96    95    1
    24    64    63    2
    25    65    62    1
    26    65    66    1
    27    63    62    1
    28    45    44    2
    29    35    33   ar
    30    35    38   ar
    31    33    32    1
    32    43    44    1
    33    43    42    1
    34    68    66   ar
    35    68    70   ar
    36    31    30    2
    37    62    61    1
    38    66    67   ar
    39    40    38   ar
    40    44    49   am
    41    95    93   ar
    42    95    94   ar
    43    70    71   ar
    44    30    42   am
    45    30    29    1
    46    93    91   ar
    47    32    29    1
    48    94    92   ar
    49    67    69   ar
    50    29    28    1
    51    49    50    1
    52    60    59    1
    53    71    69   ar
    54    71    72    1
    55    91    90   ar
    56    57    59   ar
    57    57    55   ar
    58    59    58   ar
    59    50    51    1
    60    50    53    1
    61    92    90   ar
    62     4     3    2
    63    55    54   ar
    64    58    56   ar
    65    90    89    1
    66    28    24   am
    67    54    56   ar
    68    54    53    1
    69    51    52    2
    70     3     2    1
    71    25    24    2
    72    27    26    1
    73    24    23    1
    74     2     5    1
    75     2     1    1
    76     7     9   ar
    77     7     6   ar
    78    89    86    1
    79     9    11   ar
    80     5     6    1
    81     6     8   ar
    82    11    12    1
    83    11    10   ar
    84     8    10   ar
    85    26    23    1
    86    23    22    1
    87    85    86    1
    88    86    87    1
    89    87    88    2
    90    21    20    1
    91    19    20    1
    92    19    18    1
    93    16    15    2
    94    17    18    1
    95    17    14    1
    96    15    14    1
    97    13    14    1
