@<TRIPOS>MOLECULE
tmp/2w8jA00.pdb
 152 142 0 0 0
SMALL
GASTEIGER

@<TRIPOS>ATOM
      1  N          8.0250   23.8500   38.6780 N.3    52  TYR52      -0.1241
      2  CA         8.9750   23.3420   37.6640 C.3    52  TYR52       0.1605
      3  C          9.3180   24.3900   36.5780 C.2    52  TYR52       0.2264
      4  O          9.5890   24.0680   35.4320 O.2    52  TYR52      -0.2867
      5  CB         8.4500   22.0140   37.0780 C.3    52  TYR52       0.0534
      6  CG         8.1510   21.0160   38.1700 C.ar   52  TYR52      -0.0201
      7  CD1        9.1690   20.2690   38.7460 C.ar   52  TYR52      -0.0009
      8  CD2        6.8630   20.8690   38.6750 C.ar   52  TYR52      -0.0009
      9  CE1        8.9170   19.3790   39.7840 C.ar   52  TYR52       0.0417
     10  CE2        6.5980   19.9880   39.7080 C.ar   52  TYR52       0.0417
     11  CZ         7.6270   19.2440   40.2590 C.ar   52  TYR52       0.1957
     12  OH         7.3840   18.3630   41.2910 O.3    52  TYR52      -0.2866
     13  N          3.6460   18.0030   22.1560 N.3   112  THR112     -0.1203
     14  CA         3.8830   17.9090   23.6070 C.3   112  THR112      0.1994
     15  C          5.1440   17.0720   23.8730 C.2   112  THR112      0.2618
     16  O          5.5680   16.2760   23.0230 O.2   112  THR112     -0.2717
     17  CB         2.7110   17.2510   24.3770 C.3   112  THR112      0.1784
     18  OG1        2.5750   15.8850   23.9800 O.3   112  THR112     -0.2211
     19  CG2        1.3830   17.9820   24.1270 C.3   112  THR112      0.0376
     20  N          5.7300   17.2390   25.0590 N.am  113  GLY113     -0.1942
     21  CA         6.7990   16.3650   25.5300 C.3   113  GLY113      0.2014
     22  C          6.3520   14.9110   25.6200 C.2   113  GLY113      0.2638
     23  O          7.0720   14.0010   25.2050 O.2   113  GLY113     -0.2714
     24  N          5.1470   14.7070   26.1430 N.am  114  TYR114     -0.1973
     25  CA         4.5650   13.3740   26.2410 C.3   114  TYR114      0.1639
     26  C          4.5710   12.6880   24.8620 C.2   114  TYR114      0.2290
     27  O          4.9510   11.5180   24.7400 O.2   114  TYR114     -0.2864
     28  CB         3.1510   13.4580   26.8430 C.3   114  TYR114      0.0560
     29  CG         2.4110   12.1470   26.8950 C.ar  114  TYR114     -0.0198
     30  CD1        2.3390   11.4070   28.0650 C.ar  114  TYR114     -0.0009
     31  CD2        1.8030   11.6310   25.7470 C.ar  114  TYR114     -0.0009
     32  CE1        1.6630   10.1760   28.0970 C.ar  114  TYR114      0.0417
     33  CE2        1.1210   10.4190   25.7690 C.ar  114  TYR114      0.0417
     34  CZ         1.0710    9.6950   26.9290 C.ar  114  TYR114      0.1957
     35  OH         0.4100    8.5020   26.9340 O.3   114  TYR114     -0.2866
     36  N          8.1090   11.5560   23.5500 N.3   117  ASN117     -0.1240
     37  CA         8.5050   10.2390   24.0850 C.3   117  ASN117      0.1653
     38  C          7.6560    9.0990   23.4980 C.2   117  ASN117      0.2266
     39  O          8.1860    8.0730   23.0570 O.2   117  ASN117     -0.2867
     40  CB         8.4530   10.2130   25.6200 C.3   117  ASN117      0.1155
     41  CG         9.7640   10.6830   26.2610 C.2   117  ASN117      0.2627
     42  OD1       10.8440   10.4580   25.7070 O.2   117  ASN117     -0.2716
     43  ND2        9.6750   11.2920   27.4500 N.am  117  ASN117     -0.0877
     44  N          9.6980    7.8080   33.5050 N.3   138  HIS138     -0.1241
     45  CA         8.4880    8.6360   33.3880 C.3   138  HIS138      0.1621
     46  C          7.3700    7.9000   32.6500 C.2   138  HIS138      0.2264
     47  O          7.6350    7.1030   31.7420 O.2   138  HIS138     -0.2867
     48  CB         8.7840    9.9450   32.6450 C.3   138  HIS138      0.0745
     49  CG         7.6580   10.9350   32.6910 C.ar  138  HIS138      0.0817
     50  ND1        6.8150   11.1580   31.6260 N.ar  138  HIS138     -0.2268
     51  CD2        7.2330   11.7530   33.6840 C.ar  138  HIS138      0.1154
     52  CE1        5.9160   12.0700   31.9580 C.ar  138  HIS138      0.1986
     53  NE2        6.1540   12.4510   33.2000 N.ar  138  HIS138     -0.2212
     54  N          5.4270    8.7340   30.3180 N.3   140  SER140     -0.1217
     55  CA         5.4190    8.8940   28.8630 C.3   140  SER140      0.1889
     56  C          6.3550    7.9150   28.1570 C.2   140  SER140      0.2288
     57  O          6.1100    7.5300   27.0140 O.2   140  SER140     -0.2866
     58  CB         5.7460   10.3380   28.4580 C.3   140  SER140      0.2089
     59  OG         7.0550   10.7040   28.8670 O.3   140  SER140     -0.2183
     60  N         16.9730    8.7420   31.9530 N.3   181  GLU181     -0.1245
     61  CA        16.6900   10.1420   32.2730 C.3   181  GLU181      0.1567
     62  C         17.8870   10.7200   33.0290 C.2   181  GLU181      0.2260
     63  O         18.5490    9.9980   33.7710 O.2   181  GLU181     -0.2867
     64  CB        15.4330   10.2680   33.1350 C.3   181  GLU181      0.0388
     65  CG        14.1730    9.7420   32.4480 C.3   181  GLU181      0.1160
     66  CD        12.9460    9.7480   33.3370 C.2   181  GLU181      0.3649
     67  OE1       12.6390   10.7830   33.9540 O.co2 181  GLU181     -0.2457
     68  OE2       12.2790    8.7000   33.4170 O.co2 181  GLU181     -0.2457
     69  N         17.8660   13.5940   35.2110 N.3   183  VAL183     -0.1245
     70  CA        17.3310   13.8160   36.5480 C.3   183  VAL183      0.1561
     71  C         16.0020   13.0960   36.6140 C.2   183  VAL183      0.2260
     72  O         15.1460   13.3110   35.7510 O.2   183  VAL183     -0.2867
     73  CB        17.0530   15.3000   36.8090 C.3   183  VAL183      0.0252
     74  CG1       16.3130   15.4750   38.1370 C.3   183  VAL183      0.0019
     75  CG2       18.3320   16.1080   36.8030 C.3   183  VAL183      0.0019
     76  N         12.4160   12.6570   38.2650 N.3   185  SER185     -0.1217
     77  CA        11.5780   13.7060   38.8230 C.3   185  SER185      0.1889
     78  C         10.9400   13.3780   40.1720 C.2   185  SER185      0.2288
     79  O         10.4950   14.2960   40.8440 O.2   185  SER185     -0.2866
     80  CB        10.4800   14.0910   37.8350 C.3   185  SER185      0.2089
     81  OG         9.7640   12.9430   37.4270 O.3   185  SER185     -0.2183
     82  N         16.4470   11.4580   28.3090 N.3   210  ASP210     -0.1239
     83  CA        15.4170   12.4680   28.5480 C.3   210  ASP210      0.1674
     84  C         16.0070   13.5050   29.5070 C.2   210  ASP210      0.2266
     85  O         16.3170   13.1870   30.6640 O.2   210  ASP210     -0.2867
     86  CB        14.1470   11.7860   29.1020 C.3   210  ASP210      0.1410
     87  CG        13.0210   12.7500   29.4310 C.2   210  ASP210      0.3668
     88  OD1       13.2840   13.8870   29.8640 O.co2 210  ASP210     -0.2456
     89  OD2       11.8360   12.3370   29.3020 O.co2 210  ASP210     -0.2456
     90  N         14.4820   16.4720   30.4040 N.3   212  ALA212     -0.1231
     91  CA        13.3820   17.3900   30.7220 C.3   212  ALA212      0.1694
     92  C         13.6900   18.2520   31.9530 C.2   212  ALA212      0.2592
     93  O         13.3400   19.4340   31.9850 O.2   212  ALA212     -0.2718
     94  CB        12.0950   16.6200   30.9470 C.3   212  ALA212      0.0304
     95  N         14.3480   17.6590   32.9540 N.am  213  HIS213     -0.1976
     96  CA        14.5490   18.3210   34.2460 C.3   213  HIS213      0.1656
     97  C         15.9590   18.8780   34.4620 C.2   213  HIS213      0.2291
     98  O         16.3610   19.1270   35.5930 O.2   213  HIS213     -0.2864
     99  CB        14.1320   17.3750   35.3830 C.3   213  HIS213      0.0771
    100  CG        12.6600   17.1290   35.4180 C.ar  213  HIS213      0.0820
    101  ND1       11.7700   18.0520   35.9230 N.ar  213  HIS213     -0.2267
    102  CD2       11.9130   16.1020   34.9430 C.ar  213  HIS213      0.1154
    103  CE1       10.5400   17.5860   35.7910 C.ar  213  HIS213      0.1986
    104  NE2       10.6000   16.4110   35.1910 N.ar  213  HIS213     -0.2212
    105  N         13.4930   16.0720   25.0280 N.3   240  GLY240     -0.1210
    106  CA        13.1860   17.1020   25.9880 C.3   240  GLY240      0.1956
    107  C         11.8020   17.6740   25.8010 C.2   240  GLY240      0.2612
    108  O         11.0150   17.2240   24.9580 O.2   240  GLY240     -0.2717
    109  N         11.5070   18.6680   26.6250 N.am  241  THR241     -0.1952
    110  CA        10.2090   19.3340   26.6290 C.3   241  THR241      0.1897
    111  C         10.4100   20.8350   26.6570 C.2   241  THR241      0.2313
    112  O         11.4890   21.3360   27.0460 O.2   241  THR241     -0.2863
    113  CB         9.3390   18.8940   27.8330 C.3   241  THR241      0.1794
    114  OG1        8.0970   19.6010   27.8240 O.3   241  THR241     -0.2208
    115  CG2       10.0200   19.1850   29.1640 C.3   241  THR241      0.0378
    116  N          8.1540   22.4340   28.5110 N.3   243  SER243     -0.1202
    117  CA         7.3160   22.7620   29.6810 C.3   243  SER243      0.2020
    118  C          8.0400   22.8730   31.0220 C.2   243  SER243      0.2618
    119  O          7.4110   22.8030   32.0840 O.2   243  SER243     -0.2717
    120  CB         6.1570   21.7730   29.8020 C.3   243  SER243      0.2103
    121  OG         6.5840   20.5140   30.2830 O.3   243  SER243     -0.2182
    122  N          9.3500   23.0380   30.9930 N.am  244  LYS244     -0.1979
    123  CA        10.0980   23.2130   32.2240 C.3   244  LYS244      0.1596
    124  C         10.9300   24.4760   32.0610 C.2   244  LYS244      0.2287
    125  O         10.3680   25.5670   32.1140 O.2   244  LYS244     -0.2864
    126  CB        10.8780   21.9340   32.5700 C.3   244  LYS244      0.0298
    127  CG         9.9760   20.6860   32.6970 C.3   244  LYS244      0.0038
    128  CD         9.1700   20.7090   33.9490 C.3   244  LYS244      0.0206
    129  CE         8.0200   19.6970   33.9090 C.3   244  LYS244      0.1093
    130  NZ         6.8270   20.2310   33.1760 N.3   244  LYS244     -0.1314
    131  N          4.4900   24.8380   25.9710 N.3   249  VAL249     -0.1231
    132  CA         4.2090   23.4390   25.6780 C.3   249  VAL249      0.1692
    133  C          4.9220   23.0170   24.4130 C.2   249  VAL249      0.2592
    134  O          5.2270   23.8520   23.5470 O.2   249  VAL249     -0.2718
    135  CB         2.7040   23.1220   25.5290 C.3   249  VAL249      0.0266
    136  CG1        2.0040   23.1840   26.8900 C.3   249  VAL249      0.0020
    137  CG2        2.0560   23.9970   24.4370 C.3   249  VAL249      0.0020
    138  N          5.1770   21.7140   24.3170 N.am  250  GLY250     -0.1957
    139  CA         5.8680   21.1260   23.1760 C.3   250  GLY250      0.1869
    140  C          6.9380   20.1440   23.6100 C.2   250  GLY250      0.2309
    141  O          7.4060   20.1680   24.7530 O.2   250  GLY250     -0.2863
    142  N          1.4310   12.6020   43.5010 N.3   357  ARG357     -0.1245
    143  CA         0.2260   12.0730   42.8490 C.3   357  ARG357      0.1563
    144  C          0.1410   10.5490   43.0030 C.2   357  ARG357      0.2260
    145  O          1.1010    9.8430   42.6780 O.2   357  ARG357     -0.2867
    146  CB         0.2210   12.4120   41.3560 C.3   357  ARG357      0.0307
    147  CG         0.1760   13.8940   41.0350 C.3   357  ARG357      0.0489
    148  CD         0.4540   14.1140   39.5530 C.3   357  ARG357      0.2205
    149  NE         1.8680   13.9290   39.2460 N.pl3 357  ARG357     -0.0865
    150  CZ         2.4110   14.0710   38.0390 C.cat 357  ARG357      0.5346
    151  NH1        1.6660   14.3950   36.9770 N.pl3 357  ARG357      0.1354
    152  NH2        3.7190   13.8800   37.8940 N.pl3 357  ARG357      0.1354
@<TRIPOS>BOND
     1    13    14    1
     2    16    15    2
     3    39    38    2
     4   139   140    1
     5   139   138    1
     6    38    37    1
     7   134   133    2
     8    36    37    1
     9    14    15    1
    10    14    17    1
    11   140   141    2
    12    15    20   am
    13    18    17    1
    14    37    40    1
    15    19    17    1
    16   138   133   am
    17   133   132    1
    18   137   135    1
    19    27    26    2
    20    26    25    1
    21   108   107    2
    22   105   106    1
    23    20    21    1
    24    23    22    2
    25   135   132    1
    26   135   136    1
    27    21    22    1
    28    22    24   am
    29    40    41    1
    30   132   131    1
    31    42    41    2
    32    31    33   ar
    33    31    29   ar
    34    33    34   ar
    35   107   106    1
    36   107   109   am
    37    24    25    1
    38    25    28    1
    39    41    43   am
    40   109   110    1
    41   110   111    1
    42   110   113    1
    43   111   112    2
    44    28    29    1
    45    29    30   ar
    46    34    35    1
    47    34    32   ar
    48    57    56    2
    49   114   113    1
    50   113   115    1
    51    30    32   ar
    52    56    55    1
    53    82    83    1
    54    58    55    1
    55    58    59    1
    56   116   117    1
    57    83    86    1
    58    83    84    1
    59    55    54    1
    60    86    87    1
    61    89    87   ar
    62    87    88   ar
    63    84    85    2
    64   117   120    1
    65   117   118    1
    66   120   121    1
    67    90    91    1
    68    91    94    1
    69    91    92    1
    70   122   118   am
    71   122   123    1
    72   118   119    2
    73    50    52   ar
    74    50    49   ar
    75    47    46    2
    76    60    61    1
    77    92    93    2
    78    92    95   am
    79    52    53   ar
    80   124   125    2
    81   124   123    1
    82   123   126    1
    83    61    62    1
    84    61    64    1
    85    65    64    1
    86    65    66    1
    87   126   127    1
    88    48    49    1
    89    48    45    1
    90    46    45    1
    91    49    51   ar
    92   127   128    1
    93    95    96    1
    94    62    63    2
    95   130   129    1
    96    53    51   ar
    97    66    68   ar
    98    66    67   ar
    99    45    44    1
   100   129   128    1
   101    96    97    1
   102    96    99    1
   103    97    98    2
   104   102   104   ar
   105   102   100   ar
   106   104   103   ar
   107    69    70    1
   108    99   100    1
   109   100   101   ar
   110     4     3    2
   111    72    71    2
   112   103   101   ar
   113    70    71    1
   114    70    73    1
   115     3     2    1
   116    75    73    1
   117    73    74    1
   118   151   150    1
   119     5     2    1
   120     5     6    1
   121    81    80    1
   122     2     1    1
   123    80    77    1
   124   152   150    1
   125   150   149    2
   126     6     8   ar
   127     6     7   ar
   128    76    77    1
   129     8    10   ar
   130     7     9   ar
   131    77    78    1
   132   149   148    1
   133   148   147    1
   134    10    11   ar
   135     9    11   ar
   136    78    79    2
   137    11    12    1
   138   147   146    1
   139   146   143    1
   140   145   144    2
   141   143   144    1
   142   143   142    1
