@<TRIPOS>MOLECULE
tmp/2w8qA00.pdb
 113 106 0 0 0
SMALL
GASTEIGER

@<TRIPOS>ATOM
      1  N         10.4920  -42.0710  -58.7370 N.3   109  TYR109     -0.1241
      2  CA        10.7180  -43.2970  -59.4800 C.3   109  TYR109      0.1605
      3  C         11.3180  -44.3490  -58.5480 C.2   109  TYR109      0.2264
      4  O         10.9050  -45.5130  -58.5450 O.2   109  TYR109     -0.2867
      5  CB        11.6720  -43.0090  -60.6330 C.3   109  TYR109      0.0534
      6  CG        11.7470  -44.0920  -61.6750 C.ar  109  TYR109     -0.0201
      7  CD1       10.6000  -44.5440  -62.3180 C.ar  109  TYR109     -0.0009
      8  CD2       12.9770  -44.6120  -62.0770 C.ar  109  TYR109     -0.0009
      9  CE1       10.6760  -45.4800  -63.3440 C.ar  109  TYR109      0.0417
     10  CE2       13.0640  -45.5510  -63.1040 C.ar  109  TYR109      0.0417
     11  CZ        11.9090  -45.9750  -63.7330 C.ar  109  TYR109      0.1957
     12  OH        11.9900  -46.8750  -64.7690 O.3   109  TYR109     -0.2866
     13  N         24.8210  -42.7180  -61.9330 N.3   155  ASN155     -0.1225
     14  CA        23.7870  -41.9950  -62.6860 C.3   155  ASN155      0.1785
     15  C         22.4740  -41.7660  -61.9550 C.2   155  ASN155      0.2597
     16  O         21.9460  -40.6500  -61.9550 O.2   155  ASN155     -0.2718
     17  CB        23.5310  -42.7090  -64.0060 C.3   155  ASN155      0.1169
     18  CG        24.8150  -43.0500  -64.7140 C.2   155  ASN155      0.2627
     19  OD1       25.4030  -44.1120  -64.4850 O.2   155  ASN155     -0.2716
     20  ND2       25.2880  -42.1340  -65.5530 N.am  155  ASN155     -0.0877
     21  N         21.9370  -42.8250  -61.3560 N.am  156  PHE156     -0.1976
     22  CA        20.7000  -42.7320  -60.5830 C.3   156  PHE156      0.1639
     23  C         21.0170  -43.4040  -59.2570 C.2   156  PHE156      0.2290
     24  O         20.5680  -44.5130  -58.9810 O.2   156  PHE156     -0.2864
     25  CB        19.5490  -43.4370  -61.3050 C.3   156  PHE156      0.0560
     26  CG        19.2180  -42.8250  -62.6420 C.ar  156  PHE156     -0.0200
     27  CD1       19.9410  -43.1760  -63.7840 C.ar  156  PHE156     -0.0042
     28  CD2       18.2200  -41.8530  -62.7500 C.ar  156  PHE156     -0.0042
     29  CE1       19.6790  -42.5700  -65.0080 C.ar  156  PHE156     -0.0003
     30  CE2       17.9480  -41.2370  -63.9700 C.ar  156  PHE156     -0.0003
     31  CZ        18.6790  -41.5950  -65.1030 C.ar  156  PHE156     -0.0000
     32  N         18.4750  -46.8300  -59.0770 N.3   160  MET160     -0.1245
     33  CA        19.2040  -48.0260  -59.5120 C.3   160  MET160      0.1570
     34  C         19.3320  -49.0600  -58.3970 C.2   160  MET160      0.2261
     35  O         19.4120  -50.2610  -58.6610 O.2   160  MET160     -0.2867
     36  CB        20.6130  -47.6700  -60.0140 C.3   160  MET160      0.0387
     37  CG        20.6800  -46.9330  -61.3480 C.3   160  MET160      0.0595
     38  SD        20.3260  -47.9300  -62.8370 S.3   160  MET160     -0.1393
     39  CE        20.3020  -49.5910  -62.1470 C.3   160  MET160      0.0692
     40  N         15.3680  -50.3970  -57.4480 N.3   163  ARG163     -0.1245
     41  CA        14.7250  -51.3120  -58.4010 C.3   163  ARG163      0.1563
     42  C         15.2530  -52.7430  -58.2850 C.2   163  ARG163      0.2260
     43  O         14.6070  -53.6790  -58.7470 O.2   163  ARG163     -0.2867
     44  CB        14.9120  -50.8280  -59.8460 C.3   163  ARG163      0.0307
     45  CG        16.2790  -51.1850  -60.4460 C.3   163  ARG163      0.0489
     46  CD        16.4340  -50.7060  -61.8890 C.3   163  ARG163      0.2205
     47  NE        16.4700  -49.2500  -61.9840 N.pl3 163  ARG163     -0.0865
     48  CZ        16.5910  -48.5780  -63.1260 C.cat 163  ARG163      0.5346
     49  NH1       16.6920  -49.2380  -64.2750 N.pl3 163  ARG163      0.1354
     50  NH2       16.6000  -47.2450  -63.1210 N.pl3 163  ARG163      0.1354
     51  N         24.9310  -53.0350  -62.5130 N.3   233  THR233     -0.1218
     52  CA        24.5910  -52.0850  -63.5650 C.3   233  THR233      0.1862
     53  C         25.8150  -51.1870  -63.6850 C.2   233  THR233      0.2287
     54  O         26.2460  -50.5790  -62.6990 O.2   233  THR233     -0.2866
     55  CB        23.3640  -51.2320  -63.2070 C.3   233  THR233      0.1770
     56  OG1       22.2260  -52.0830  -63.0460 O.3   233  THR233     -0.2211
     57  CG2       23.0700  -50.2310  -64.3070 C.3   233  THR233      0.0375
     58  N         22.9800  -54.8820  -66.3650 N.3   256  GLU256     -0.1245
     59  CA        22.6940  -53.9350  -67.4320 C.3   256  GLU256      0.1567
     60  C         24.0150  -53.2390  -67.7430 C.2   256  GLU256      0.2260
     61  O         24.6240  -52.6520  -66.8500 O.2   256  GLU256     -0.2867
     62  CB        21.6710  -52.9190  -66.9440 C.3   256  GLU256      0.0388
     63  CG        20.9480  -52.1760  -68.0360 C.3   256  GLU256      0.1160
     64  CD        20.1250  -51.0290  -67.4880 C.2   256  GLU256      0.3649
     65  OE1       20.7390  -50.0110  -67.0890 O.co2 256  GLU256     -0.2457
     66  OE2       18.8730  -51.1450  -67.4420 O.co2 256  GLU256     -0.2457
     67  N         18.5200  -35.4160  -70.5620 N.3   284  ARG284     -0.1245
     68  CA        18.0390  -35.7420  -69.2140 C.3   284  ARG284      0.1563
     69  C         19.2550  -36.2730  -68.4600 C.2   284  ARG284      0.2260
     70  O         19.7770  -37.3350  -68.8050 O.2   284  ARG284     -0.2867
     71  CB        16.9580  -36.8300  -69.2440 C.3   284  ARG284      0.0307
     72  CG        16.4660  -37.2280  -67.8480 C.3   284  ARG284      0.0489
     73  CD        15.6860  -38.5460  -67.8240 C.3   284  ARG284      0.2205
     74  NE        16.5140  -39.7030  -68.1780 N.pl3 284  ARG284     -0.0865
     75  CZ        16.1120  -40.9730  -68.1010 C.cat 284  ARG284      0.5346
     76  NH1       14.8870  -41.2630  -67.6780 N.pl3 284  ARG284      0.1354
     77  NH2       16.9330  -41.9590  -68.4510 N.pl3 284  ARG284      0.1354
     78  N         23.5070  -41.2300  -69.0850 N.3   289  THR289     -0.1203
     79  CA        22.7140  -42.4260  -68.7720 C.3   289  THR289      0.1994
     80  C         22.9360  -43.4620  -69.8870 C.2   289  THR289      0.2618
     81  O         23.2600  -43.1060  -71.0240 O.2   289  THR289     -0.2717
     82  CB        21.1840  -42.1300  -68.6660 C.3   289  THR289      0.1784
     83  OG1       20.6550  -41.8490  -69.9650 O.3   289  THR289     -0.2211
     84  CG2       20.9130  -40.9440  -67.7540 C.3   289  THR289      0.0376
     85  N         22.7710  -44.7400  -69.5610 N.am  290  ALA290     -0.1965
     86  CA        22.9630  -45.8000  -70.5500 C.3   290  ALA290      0.1728
     87  C         21.8600  -45.7790  -71.6120 C.2   290  ALA290      0.2616
     88  O         22.0760  -46.1850  -72.7540 O.2   290  ALA290     -0.2715
     89  CB        23.0050  -47.1670  -69.8530 C.3   290  ALA290      0.0334
     90  N         20.6830  -45.2940  -71.2270 N.am  291  VAL291     -0.1977
     91  CA        19.5380  -45.2150  -72.1300 C.3   291  VAL291      0.1596
     92  C         19.4420  -43.8540  -72.8310 C.2   291  VAL291      0.2287
     93  O         18.3920  -43.4920  -73.3630 O.2   291  VAL291     -0.2864
     94  CB        18.2200  -45.4830  -71.3610 C.3   291  VAL291      0.0276
     95  CG1       18.3400  -46.7840  -70.5770 C.3   291  VAL291      0.0022
     96  CG2       17.9070  -44.3180  -70.4220 C.3   291  VAL291      0.0022
     97  N         10.7810  -44.5110  -69.1040 N.3   448  SER448     -0.1217
     98  CA        10.8570  -45.0220  -67.7370 C.3   448  SER448      0.1889
     99  C          9.4960  -45.4160  -67.2030 C.2   448  SER448      0.2288
    100  O          8.5020  -44.7430  -67.4550 O.2   448  SER448     -0.2866
    101  CB        11.4720  -43.9810  -66.8010 C.3   448  SER448      0.2089
    102  OG        12.8700  -43.8750  -67.0100 O.3   448  SER448     -0.2183
    103  N         12.8000  -53.5680  -67.7610 N.3   454  PHE454     -0.1241
    104  CA        14.0100  -52.8890  -68.2360 C.3   454  PHE454      0.1605
    105  C         15.2100  -53.8360  -68.3410 C.2   454  PHE454      0.2264
    106  O         15.4660  -54.6440  -67.4370 O.2   454  PHE454     -0.2867
    107  CB        14.3810  -51.7310  -67.3070 C.3   454  PHE454      0.0534
    108  CG        13.8670  -50.4000  -67.7650 C.ar  454  PHE454     -0.0203
    109  CD1       12.4920  -50.1590  -67.8610 C.ar  454  PHE454     -0.0042
    110  CD2       14.7570  -49.3830  -68.1210 C.ar  454  PHE454     -0.0042
    111  CE1       12.0050  -48.9190  -68.3070 C.ar  454  PHE454     -0.0003
    112  CE2       14.2820  -48.1410  -68.5670 C.ar  454  PHE454     -0.0003
    113  CZ        12.9000  -47.9100  -68.6610 C.ar  454  PHE454     -0.0000
@<TRIPOS>BOND
     1    93    92    2
     2    92    91    1
     3    88    87    2
     4    91    94    1
     5    91    90    1
     6    87    90   am
     7    87    86    1
     8    94    95    1
     9    94    96    1
    10    81    80    2
    11    67    68    1
    12    86    89    1
    13    86    85    1
    14    83    82    1
    15    80    85   am
    16    80    79    1
    17    71    68    1
    18    71    72    1
    19    68    69    1
    20    97    98    1
    21    78    79    1
    22    70    69    2
    23    79    82    1
    24    82    84    1
    25   113   112   ar
    26   113   111   ar
    27   112   110   ar
    28    77    75    1
    29   105   104    1
    30   105   106    2
    31   111   109   ar
    32   104   103    1
    33   104   107    1
    34    74    75    2
    35    74    73    1
    36   110   108   ar
    37    75    76    1
    38    63    64    1
    39    63    62    1
    40   109   108   ar
    41    72    73    1
    42   108   107    1
    43    60    59    1
    44    60    61    2
    45    98    99    1
    46    98   101    1
    47    64    66   ar
    48    64    65   ar
    49   100    99    2
    50    59    62    1
    51    59    58    1
    52   102   101    1
    53    20    18   am
    54    31    29   ar
    55    31    30   ar
    56    29    27   ar
    57    12    11    1
    58    18    19    2
    59    18    17    1
    60    57    55    1
    61    49    48    1
    62    17    14    1
    63    30    28   ar
    64    27    26   ar
    65    11     9   ar
    66    11    10   ar
    67    53    52    1
    68    53    54    2
    69    52    55    1
    70    52    51    1
    71     9     7   ar
    72    55    56    1
    73    48    50    1
    74    48    47    2
    75    10     8   ar
    76    38    39    1
    77    38    37    1
    78    28    26   ar
    79    14    15    1
    80    14    13    1
    81    26    25    1
    82     7     6   ar
    83     8     6   ar
    84    47    46    1
    85    16    15    2
    86    15    21   am
    87    46    45    1
    88     6     5    1
    89    21    22    1
    90    37    36    1
    91    25    22    1
    92     5     2    1
    93    22    23    1
    94    45    44    1
    95    36    33    1
    96    44    41    1
    97    33    32    1
    98    33    34    1
    99     2     1    1
   100     2     3    1
   101    23    24    2
   102    43    42    2
   103    35    34    2
   104     3     4    2
   105    41    42    1
   106    41    40    1
