@<TRIPOS>MOLECULE
tmp/2w8rA00.pdb
 164 162 0 0 0
SMALL
GASTEIGER

@<TRIPOS>ATOM
      1  N         25.5490  -54.3400  -57.0650 N.3   151  ILE151     -0.1231
      2  CA        26.5350  -53.3140  -57.4200 C.3   151  ILE151      0.1692
      3  C         25.9310  -52.3370  -58.4250 C.2   151  ILE151      0.2593
      4  O         25.6150  -52.7200  -59.5520 O.2   151  ILE151     -0.2718
      5  CB        27.7990  -53.9490  -58.0480 C.3   151  ILE151      0.0266
      6  CG1       28.5180  -54.8120  -57.0090 C.3   151  ILE151      0.0019
      7  CG2       28.7280  -52.8690  -58.5730 C.3   151  ILE151      0.0020
      8  CD1       29.7950  -55.4250  -57.5130 C.3   151  ILE151      0.0001
      9  N         25.8090  -51.0750  -58.0130 N.am  152  THR152     -0.1940
     10  CA        25.2070  -50.0190  -58.8280 C.3   152  THR152      0.2013
     11  C         26.1120  -48.8390  -59.2360 C.2   152  THR152      0.2484
     12  O         27.1180  -48.5520  -58.5920 O.2   152  THR152     -0.2729
     13  CB        24.0010  -49.4320  -58.0900 C.3   152  THR152      0.1807
     14  OG1       24.4380  -48.8970  -56.8320 O.3   152  THR152     -0.2208
     15  CG2       22.9520  -50.5030  -57.8450 C.3   152  THR152      0.0379
     16  N         25.7370  -48.1270  -60.3150 N.am  153  PRO153     -0.2715
     17  CA        26.4700  -46.9730  -60.8470 C.3   153  PRO153      0.1536
     18  C         26.0480  -45.6580  -60.1840 C.2   153  PRO153      0.2599
     19  O         25.1420  -45.6360  -59.3460 O.2   153  PRO153     -0.2715
     20  CB        26.1070  -47.0090  -62.3170 C.3   153  PRO153      0.0310
     21  CG        24.6630  -47.3940  -62.2570 C.3   153  PRO153      0.0237
     22  CD        24.6570  -48.5170  -61.2420 C.3   153  PRO153      0.0939
     23  N         26.6890  -44.5620  -60.5840 N.am  154  TRP154     -0.1960
     24  CA        26.3910  -43.2530  -60.0100 C.3   154  TRP154      0.1771
     25  C         25.2000  -42.5190  -60.6430 C.2   154  TRP154      0.2619
     26  O         24.5870  -41.6730  -59.9950 O.2   154  TRP154     -0.2715
     27  CB        27.6190  -42.3500  -60.1130 C.3   154  TRP154      0.0590
     28  CG        27.9050  -41.9490  -61.5220 C.ar  154  TRP154      0.0006
     29  CD1       28.6080  -42.6620  -62.4510 C.ar  154  TRP154      0.0946
     30  CD2       27.3890  -40.7960  -62.2090 C.ar  154  TRP154      0.0152
     31  NE1       28.5550  -42.0310  -63.6730 N.ar  154  TRP154     -0.2442
     32  CE2       27.8120  -40.8840  -63.5530 C.ar  154  TRP154      0.0810
     33  CE3       26.6020  -39.7010  -61.8180 C.ar  154  TRP154      0.0012
     34  CZ2       27.4750  -39.9200  -64.5140 C.ar  154  TRP154      0.0191
     35  CZ3       26.2650  -38.7370  -62.7790 C.ar  154  TRP154      0.0001
     36  CH2       26.7030  -38.8580  -64.1090 C.ar  154  TRP154      0.0015
     37  N         24.8910  -42.8320  -61.9030 N.am  155  ASN155     -0.1972
     38  CA        23.8000  -42.1930  -62.6630 C.3   155  ASN155      0.1688
     39  C         22.5110  -41.9460  -61.8970 C.2   155  ASN155      0.2292
     40  O         22.0350  -40.8130  -61.7950 O.2   155  ASN155     -0.2864
     41  CB        23.4730  -43.0250  -63.8970 C.3   155  ASN155      0.1181
     42  CG        24.7040  -43.3730  -64.6880 C.2   155  ASN155      0.2629
     43  OD1       25.4810  -44.2430  -64.2920 O.2   155  ASN155     -0.2716
     44  ND2       24.9100  -42.6790  -65.8040 N.am  155  ASN155     -0.0877
     45  N         26.8500  -52.4060  -52.8440 N.3   178  LYS178     -0.1231
     46  CA        28.1440  -51.7580  -52.9940 C.3   178  LYS178      0.1678
     47  C         27.8970  -50.6120  -53.9750 C.2   178  LYS178      0.2434
     48  O         27.9870  -50.7940  -55.1900 O.2   178  LYS178     -0.2733
     49  CB        29.1500  -52.7590  -53.5580 C.3   178  LYS178      0.0284
     50  CG        30.5770  -52.4840  -53.1500 C.3   178  LYS178      0.0035
     51  CD        31.1240  -51.3210  -53.9120 C.3   178  LYS178      0.0206
     52  CE        31.2810  -51.6940  -55.3580 C.3   178  LYS178      0.1093
     53  NZ        31.5320  -50.4650  -56.1110 N.3   178  LYS178     -0.1314
     54  N         27.5660  -49.4140  -53.4540 N.am  179  PRO179     -0.2718
     55  CA        27.2900  -48.2380  -54.2780 C.3   179  PRO179      0.1535
     56  C         28.5270  -47.6390  -54.9310 C.2   179  PRO179      0.2598
     57  O         29.6570  -47.9590  -54.5540 O.2   179  PRO179     -0.2715
     58  CB        26.6280  -47.2880  -53.2890 C.3   179  PRO179      0.0310
     59  CG        27.4000  -47.5400  -52.0480 C.3   179  PRO179      0.0237
     60  CD        27.5240  -49.0600  -52.0220 C.3   179  PRO179      0.0939
     61  N         28.2960  -46.7760  -55.9160 N.am  180  ALA180     -0.1964
     62  CA        29.3710  -46.1170  -56.6400 C.3   180  ALA180      0.1728
     63  C         30.0250  -45.1080  -55.7110 C.2   180  ALA180      0.2616
     64  O         29.3370  -44.4480  -54.9330 O.2   180  ALA180     -0.2715
     65  CB        28.8140  -45.4240  -57.8690 C.3   180  ALA180      0.0334
     66  N         31.3490  -44.9900  -55.7900 N.am  181  GLU181     -0.1977
     67  CA        32.0830  -44.0690  -54.9280 C.3   181  GLU181      0.1602
     68  C         31.7160  -42.6150  -55.1690 C.2   181  GLU181      0.2287
     69  O         31.9070  -41.7690  -54.2960 O.2   181  GLU181     -0.2864
     70  CB        33.5960  -44.2460  -55.1000 C.3   181  GLU181      0.0415
     71  CG        34.1110  -44.1270  -56.5280 C.3   181  GLU181      0.1163
     72  CD        33.9580  -45.4110  -57.3230 C.2   181  GLU181      0.3649
     73  OE1       33.5550  -46.4390  -56.7390 O.co2 181  GLU181     -0.2457
     74  OE2       34.2500  -45.3990  -58.5380 O.co2 181  GLU181     -0.2457
     75  N         37.2490  -50.9940  -55.0040 N.3   214  ALA214     -0.1231
     76  CA        36.2280  -51.5520  -55.8930 C.3   214  ALA214      0.1694
     77  C         36.5640  -52.9700  -56.3820 C.2   214  ALA214      0.2591
     78  O         35.7850  -53.9010  -56.1760 O.2   214  ALA214     -0.2718
     79  CB        36.0170  -50.6210  -57.0910 C.3   214  ALA214      0.0304
     80  N         37.7200  -53.1220  -57.0270 N.am  215  LYS215     -0.1980
     81  CA        38.1670  -54.4120  -57.5530 C.3   215  LYS215      0.1596
     82  C         38.1360  -55.4950  -56.4690 C.2   215  LYS215      0.2287
     83  O         37.4860  -56.5300  -56.6310 O.2   215  LYS215     -0.2864
     84  CB        39.5920  -54.2880  -58.1050 C.3   215  LYS215      0.0298
     85  CG        39.8630  -53.0170  -58.9290 C.3   215  LYS215      0.0038
     86  CD        41.3760  -52.8190  -59.1700 C.3   215  LYS215      0.0206
     87  CE        41.7040  -51.4760  -59.8320 C.3   215  LYS215      0.1093
     88  NZ        43.1770  -51.3020  -60.0370 N.3   215  LYS215     -0.1314
     89  N         34.4330  -55.9110  -54.8530 N.3   218  GLY218     -0.1225
     90  CA        33.5500  -56.5500  -55.8090 C.3   218  GLY218      0.1811
     91  C         33.8680  -58.0290  -55.9200 C.2   218  GLY218      0.2280
     92  O         32.9670  -58.8700  -55.9390 O.2   218  GLY218     -0.2866
     93  N         24.0250  -56.3740  -61.2140 N.3   232  PHE232     -0.1227
     94  CA        24.9450  -55.2890  -61.5340 C.3   232  PHE232      0.1736
     95  C         24.5030  -54.4360  -62.7170 C.2   232  PHE232      0.2596
     96  O         23.9800  -54.9510  -63.7070 O.2   232  PHE232     -0.2718
     97  CB        26.3280  -55.8820  -61.8470 C.3   232  PHE232      0.0547
     98  CG        27.2500  -54.9390  -62.5590 C.ar  232  PHE232     -0.0202
     99  CD1       27.9290  -53.9460  -61.8630 C.ar  232  PHE232     -0.0042
    100  CD2       27.4140  -55.0210  -63.9340 C.ar  232  PHE232     -0.0042
    101  CE1       28.7570  -53.0470  -62.5260 C.ar  232  PHE232     -0.0003
    102  CE2       28.2360  -54.1280  -64.6030 C.ar  232  PHE232     -0.0003
    103  CZ        28.9090  -53.1390  -63.8980 C.ar  232  PHE232     -0.0000
    104  N         24.7230  -53.1310  -62.6050 N.am  233  THR233     -0.1939
    105  CA        24.4090  -52.2040  -63.6840 C.3   233  THR233      0.2028
    106  C         25.6300  -51.3030  -63.8560 C.2   233  THR233      0.2643
    107  O         26.0560  -50.6380  -62.9060 O.2   233  THR233     -0.2714
    108  CB        23.1830  -51.3390  -63.3650 C.3   233  THR233      0.1808
    109  OG1       22.0250  -52.1720  -63.2550 O.3   233  THR233     -0.2208
    110  CG2       22.9500  -50.3270  -64.4750 C.3   233  THR233      0.0379
    111  N         26.2030  -51.3000  -65.0600 N.am  234  GLY234     -0.1939
    112  CA        27.3780  -50.4840  -65.3300 C.3   234  GLY234      0.2014
    113  C         27.9770  -50.7110  -66.7080 C.2   234  GLY234      0.2639
    114  O         27.2510  -50.9460  -67.6750 O.2   234  GLY234     -0.2714
    115  N         29.3030  -50.6450  -66.8030 N.am  235  SER235     -0.1949
    116  CA        29.9970  -50.8300  -68.0780 C.3   235  SER235      0.1924
    117  C         30.1660  -52.2980  -68.4090 C.2   235  SER235      0.2314
    118  O         30.2230  -53.1430  -67.5210 O.2   235  SER235     -0.2863
    119  CB        31.3840  -50.2010  -68.0370 C.3   235  SER235      0.2116
    120  OG        32.2870  -51.0530  -67.3510 O.3   235  SER235     -0.2180
    121  N         33.3320  -54.0230  -66.8060 N.3   238  THR238     -0.1218
    122  CA        33.1840  -54.4880  -65.4370 C.3   238  THR238      0.1862
    123  C         32.2720  -55.6980  -65.3910 C.2   238  THR238      0.2287
    124  O         32.5230  -56.6510  -64.6560 O.2   238  THR238     -0.2866
    125  CB        32.5950  -53.4070  -64.5390 C.3   238  THR238      0.1770
    126  OG1       33.5010  -52.2990  -64.4860 O.3   238  THR238     -0.2211
    127  CG2       32.3640  -53.9560  -63.1360 C.3   238  THR238      0.0375
    128  N         33.9650  -58.9420  -66.0440 N.3   241  ILE241     -0.1231
    129  CA        34.8200  -59.2830  -64.9110 C.3   241  ILE241      0.1692
    130  C         34.0140  -60.0020  -63.8290 C.2   241  ILE241      0.2591
    131  O         34.4790  -60.9780  -63.2380 O.2   241  ILE241     -0.2718
    132  CB        35.4380  -58.0250  -64.2970 C.3   241  ILE241      0.0266
    133  CG1       36.3790  -57.3740  -65.3080 C.3   241  ILE241      0.0019
    134  CG2       36.1630  -58.3750  -63.0120 C.3   241  ILE241      0.0020
    135  CD1       36.9130  -56.0430  -64.8610 C.3   241  ILE241      0.0001
    136  N         32.8060  -59.5070  -63.5680 N.am  242  LEU242     -0.1980
    137  CA        31.9400  -60.1110  -62.5690 C.3   242  LEU242      0.1596
    138  C         31.3940  -61.4570  -63.0620 C.2   242  LEU242      0.2287
    139  O         31.2520  -62.3960  -62.2730 O.2   242  LEU242     -0.2864
    140  CB        30.7940  -59.1590  -62.2220 C.3   242  LEU242      0.0297
    141  CG        31.1810  -57.8020  -61.6140 C.3   242  LEU242      0.0022
    142  CD1       29.9290  -57.0210  -61.2580 C.3   242  LEU242      0.0001
    143  CD2       32.0310  -58.0090  -60.3740 C.3   242  LEU242      0.0001
    144  N         33.7250  -63.8670  -62.2280 N.3   245  HIS245     -0.1241
    145  CA        33.6950  -64.1230  -60.7980 C.3   245  HIS245      0.1621
    146  C         32.5890  -65.1240  -60.4940 C.2   245  HIS245      0.2264
    147  O         32.7950  -66.1050  -59.7760 O.2   245  HIS245     -0.2867
    148  CB        33.4350  -62.8320  -60.0200 C.3   245  HIS245      0.0745
    149  CG        34.6300  -61.9370  -59.9160 C.ar  245  HIS245      0.0817
    150  ND1       35.8950  -62.4140  -59.6440 N.ar  245  HIS245     -0.2268
    151  CD2       34.7470  -60.5910  -60.0120 C.ar  245  HIS245      0.1154
    152  CE1       36.7400  -61.4000  -59.5780 C.ar  245  HIS245      0.1986
    153  NE2       36.0690  -60.2840  -59.7970 N.ar  245  HIS245     -0.2212
    154  N         29.4180  -40.9260  -72.3420 N.3   390  PHE390     -0.1241
    155  CA        28.1900  -40.2320  -71.9800 C.3   390  PHE390      0.1605
    156  C         28.4340  -38.7370  -71.8020 C.2   390  PHE390      0.2264
    157  O         29.2410  -38.3210  -70.9760 O.2   390  PHE390     -0.2867
    158  CB        27.6030  -40.8130  -70.6860 C.3   390  PHE390      0.0534
    159  CG        27.4590  -42.3150  -70.6950 C.ar  390  PHE390     -0.0203
    160  CD1       27.0490  -42.9890  -71.8480 C.ar  390  PHE390     -0.0042
    161  CD2       27.7220  -43.0560  -69.5400 C.ar  390  PHE390     -0.0042
    162  CE1       26.9050  -44.3830  -71.8570 C.ar  390  PHE390     -0.0003
    163  CE2       27.5810  -44.4510  -69.5310 C.ar  390  PHE390     -0.0003
    164  CZ        27.1710  -45.1160  -70.6940 C.ar  390  PHE390     -0.0000
@<TRIPOS>BOND
     1   154   155    1
     2   155   156    1
     3   155   158    1
     4   162   160   ar
     5   162   164   ar
     6   160   159   ar
     7   156   157    2
     8   159   158    1
     9   159   161   ar
    10   164   163   ar
    11   161   163   ar
    12   117   116    1
    13   117   118    2
    14   116   119    1
    15   116   115    1
    16   119   120    1
    17   114   113    2
    18   121   122    1
    19   115   113   am
    20   113   112    1
    21   128   129    1
    22    44    42   am
    23   122   123    1
    24   122   125    1
    25   123   124    2
    26   112   111    1
    27   133   135    1
    28   133   132    1
    29   111   106   am
    30   129   132    1
    31   129   130    1
    32    42    43    2
    33    42    41    1
    34   102   100   ar
    35   102   103   ar
    36   125   126    1
    37   125   127    1
    38    34    36   ar
    39    34    32   ar
    40   110   108    1
    41   132   134    1
    42    36    35   ar
    43   100    98   ar
    44   103   101   ar
    45    41    38    1
    46   106   105    1
    47   106   107    2
    48   130   136   am
    49   130   131    2
    50    96    95    2
    51   105   108    1
    52   105   104    1
    53    31    32   ar
    54    31    29   ar
    55   136   137    1
    56    32    30   ar
    57   108   109    1
    58   138   137    1
    59   138   139    2
    60    35    33   ar
    61    95   104   am
    62    95    94    1
    63    38    37    1
    64    38    39    1
    65   137   140    1
    66    98    99   ar
    67    98    97    1
    68   101    99   ar
    69    29    28   ar
    70    20    21    1
    71    20    17    1
    72    21    22    1
    73   144   145    1
    74   140   141    1
    75    30    33   ar
    76    30    28   ar
    77    37    25   am
    78    39    40    2
    79    97    94    1
    80   141   142    1
    81   141   143    1
    82    94    93    1
    83    28    27    1
    84    22    16    1
    85    17    16    1
    86    17    18    1
    87   145   146    1
    88   145   148    1
    89    25    24    1
    90    25    26    2
    91    23    18   am
    92    23    24    1
    93   146   147    2
    94    16    11   am
    95    18    19    2
    96    27    24    1
    97    88    87    1
    98   148   149    1
    99   151   149   ar
   100   151   153   ar
   101   149   150   ar
   102    87    86    1
   103   153   152   ar
   104   150   152   ar
   105     4     3    2
   106    11    10    1
   107    11    12    2
   108    86    85    1
   109    85    84    1
   110    10    13    1
   111    10     9    1
   112     7     5    1
   113    74    72   ar
   114     3     9   am
   115     3     2    1
   116    84    81    1
   117    13    15    1
   118    13    14    1
   119     5     2    1
   120     5     6    1
   121    65    62    1
   122    81    80    1
   123    81    82    1
   124     8     6    1
   125     2     1    1
   126    72    73   ar
   127    72    71    1
   128    79    76    1
   129    80    77   am
   130    62    61    1
   131    62    63    1
   132    83    82    2
   133    71    70    1
   134    77    78    2
   135    77    76    1
   136    53    52    1
   137    92    91    2
   138    91    90    1
   139    61    56   am
   140    76    75    1
   141    90    89    1
   142    66    63   am
   143    66    67    1
   144    63    64    2
   145    52    51    1
   146    48    47    2
   147    68    67    1
   148    68    69    2
   149    70    67    1
   150    56    57    2
   151    56    55    1
   152    55    54    1
   153    55    58    1
   154    47    54   am
   155    47    46    1
   156    51    50    1
   157    49    50    1
   158    49    46    1
   159    54    60    1
   160    58    59    1
   161    46    45    1
   162    59    60    1
