@<TRIPOS>MOLECULE
tmp/2w8tA00.pdb
 126 118 0 0 0
SMALL
GASTEIGER

@<TRIPOS>ATOM
      1  N          3.7200   17.4180   21.6560 N.3   111  THR111     -0.1203
      2  CA         4.0440   17.3150   23.0930 C.3   111  THR111      0.1994
      3  C          5.2580   16.4120   23.2710 C.2   111  THR111      0.2618
      4  O          5.5760   15.6000   22.4000 O.2   111  THR111     -0.2717
      5  CB         2.8950   16.7070   23.9300 C.3   111  THR111      0.1784
      6  OG1        2.6690   15.3520   23.5180 O.3   111  THR111     -0.2211
      7  CG2        1.5920   17.5080   23.7910 C.3   111  THR111      0.0376
      8  N          5.9080   16.5310   24.4240 N.am  112  GLY112     -0.1942
      9  CA         6.9430   15.5860   24.8230 C.3   112  GLY112      0.2014
     10  C          6.4190   14.1650   24.9280 C.2   112  GLY112      0.2638
     11  O          7.0920   13.2160   24.5130 O.2   112  GLY112     -0.2714
     12  N          5.2140   14.0130   25.4660 N.am  113  TYR113     -0.1973
     13  CA         4.5770   12.7120   25.5450 C.3   113  TYR113      0.1639
     14  C          4.5360   12.0690   24.1530 C.2   113  TYR113      0.2290
     15  O          4.9070   10.9010   23.9790 O.2   113  TYR113     -0.2864
     16  CB         3.1590   12.8450   26.1530 C.3   113  TYR113      0.0560
     17  CG         2.4130   11.5370   26.2400 C.ar  113  TYR113     -0.0198
     18  CD1        2.3700   10.8020   27.4190 C.ar  113  TYR113     -0.0009
     19  CD2        1.7570   11.0250   25.1200 C.ar  113  TYR113     -0.0009
     20  CE1        1.7000    9.5790   27.4690 C.ar  113  TYR113      0.0417
     21  CE2        1.0910    9.8230   25.1660 C.ar  113  TYR113      0.0417
     22  CZ         1.0650    9.1070   26.3350 C.ar  113  TYR113      0.1957
     23  OH         0.4050    7.9090   26.3500 O.3   113  TYR113     -0.2866
     24  N          8.0450   11.0220   22.7100 N.3   116  ASN116     -0.1240
     25  CA         8.4730    9.7180   23.2430 C.3   116  ASN116      0.1653
     26  C          7.6550    8.5800   22.6550 C.2   116  ASN116      0.2266
     27  O          8.2090    7.5760   22.1940 O.2   116  ASN116     -0.2867
     28  CB         8.4180    9.7100   24.7640 C.3   116  ASN116      0.1155
     29  CG         9.5740   10.4340   25.3580 C.2   116  ASN116      0.2627
     30  OD1       10.6980    9.9400   25.3210 O.2   116  ASN116     -0.2716
     31  ND2        9.3340   11.6470   25.8430 N.am  116  ASN116     -0.0877
     32  N          9.5190    7.1580   32.5580 N.3   137  HIS137     -0.1241
     33  CA         8.3150    7.9640   32.3210 C.3   137  HIS137      0.1621
     34  C          7.2400    7.1690   31.5730 C.2   137  HIS137      0.2264
     35  O          7.5370    6.3550   30.6870 O.2   137  HIS137     -0.2867
     36  CB         8.6660    9.2230   31.5140 C.3   137  HIS137      0.0745
     37  CG         7.5870   10.2670   31.5010 C.ar  137  HIS137      0.0817
     38  ND1        6.6170   10.3350   30.5240 N.ar  137  HIS137     -0.2268
     39  CD2        7.3410   11.3010   32.3430 C.ar  137  HIS137      0.1154
     40  CE1        5.8130   11.3560   30.7710 C.ar  137  HIS137      0.1986
     41  NE2        6.2320   11.9580   31.8700 N.ar  137  HIS137     -0.2212
     42  N          5.3170    7.9510   29.2180 N.3   139  SER139     -0.1202
     43  CA         5.3260    8.1130   27.7640 C.3   139  SER139      0.2020
     44  C          6.3070    7.1600   27.0910 C.2   139  SER139      0.2618
     45  O          6.0750    6.7460   25.9590 O.2   139  SER139     -0.2717
     46  CB         5.6430    9.5610   27.3560 C.3   139  SER139      0.2103
     47  OG         6.9430    9.9620   27.7480 O.3   139  SER139     -0.2182
     48  N          7.3870    6.8240   27.7940 N.am  140  ILE140     -0.1979
     49  CA         8.3800    5.8820   27.2810 C.3   140  ILE140      0.1595
     50  C          7.7690    4.4690   27.2600 C.2   140  ILE140      0.2287
     51  O          7.8260    3.7710   26.2470 O.2   140  ILE140     -0.2864
     52  CB         9.6790    5.9510   28.1140 C.3   140  ILE140      0.0276
     53  CG1       10.3560    7.3130   27.9210 C.3   140  ILE140      0.0022
     54  CG2       10.6320    4.8240   27.7320 C.3   140  ILE140      0.0022
     55  CD1       11.4650    7.5980   28.9100 C.3   140  ILE140      0.0001
     56  N         16.9080    8.3330   31.1590 N.3   180  GLU180     -0.1245
     57  CA        16.5750    9.6930   31.5770 C.3   180  GLU180      0.1567
     58  C         17.7340   10.2640   32.3900 C.2   180  GLU180      0.2260
     59  O         18.2960    9.5760   33.2450 O.2   180  GLU180     -0.2867
     60  CB        15.2990    9.7000   32.4160 C.3   180  GLU180      0.0388
     61  CG        14.0580    9.2520   31.6570 C.3   180  GLU180      0.1160
     62  CD        12.8190    9.1710   32.5220 C.2   180  GLU180      0.3649
     63  OE1       12.5020   10.1510   33.2330 O.co2 180  GLU180     -0.2457
     64  OE2       12.1490    8.1230   32.4770 O.co2 180  GLU180     -0.2457
     65  N         12.7780   12.1740   37.8680 N.3   184  SER184     -0.1217
     66  CA        11.9350   13.2690   38.3730 C.3   184  SER184      0.1889
     67  C         11.2850   13.0190   39.7320 C.2   184  SER184      0.2288
     68  O         11.0110   13.9710   40.4600 O.2   184  SER184     -0.2866
     69  CB        10.8610   13.6630   37.3520 C.3   184  SER184      0.2089
     70  OG         9.9120   12.6300   37.1630 O.3   184  SER184     -0.2183
     71  N         16.6110   11.1800   27.5120 N.3   209  ASP209     -0.1239
     72  CA        15.6860   12.2610   27.8130 C.3   209  ASP209      0.1674
     73  C         16.3550   13.2700   28.7370 C.2   209  ASP209      0.2266
     74  O         16.8190   12.9160   29.8270 O.2   209  ASP209     -0.2867
     75  CB        14.4170   11.7320   28.4710 C.3   209  ASP209      0.1410
     76  CG        13.3950   12.8200   28.7070 C.2   209  ASP209      0.3668
     77  OD1       13.6350   13.6610   29.5980 O.co2 209  ASP209     -0.2456
     78  OD2       12.3700   12.8230   28.0040 O.co2 209  ASP209     -0.2456
     79  N         14.7160   16.2750   29.7490 N.3   211  ALA211     -0.1231
     80  CA        13.6080   17.1830   30.0460 C.3   211  ALA211      0.1694
     81  C         13.8160   17.9760   31.3300 C.2   211  ALA211      0.2592
     82  O         13.3920   19.1240   31.4120 O.2   211  ALA211     -0.2718
     83  CB        12.3160   16.4050   30.1350 C.3   211  ALA211      0.0304
     84  N         14.4420   17.3720   32.3360 N.am  212  HIS212     -0.1976
     85  CA        14.5370   17.9940   33.6570 C.3   212  HIS212      0.1656
     86  C         15.9100   18.6150   33.9210 C.2   212  HIS212      0.2291
     87  O         16.2420   18.9450   35.0640 O.2   212  HIS212     -0.2864
     88  CB        14.1490   16.9740   34.7300 C.3   212  HIS212      0.0771
     89  CG        12.6690   16.7860   34.8520 C.ar  212  HIS212      0.0820
     90  ND1       11.8540   17.7260   35.4400 N.ar  212  HIS212     -0.2267
     91  CD2       11.8540   15.7860   34.4340 C.ar  212  HIS212      0.1154
     92  CE1       10.6000   17.3110   35.3930 C.ar  212  HIS212      0.1986
     93  NE2       10.5740   16.1370   34.7860 N.ar  212  HIS212     -0.2212
     94  N         11.3810   18.2690   25.8180 N.3   240  THR240     -0.1218
     95  CA        10.0800   18.8910   25.8530 C.3   240  THR240      0.1862
     96  C         10.2340   20.3930   25.8150 C.2   240  THR240      0.2287
     97  O         11.2940   20.9320   26.1720 O.2   240  THR240     -0.2866
     98  CB         9.2970   18.4760   27.1260 C.3   240  THR240      0.1770
     99  OG1        8.0510   19.1790   27.1940 O.3   240  THR240     -0.2211
    100  CG2       10.0980   18.7590   28.3820 C.3   240  THR240      0.0375
    101  N          7.8170   21.9760   27.5940 N.3   242  SER242     -0.1202
    102  CA         6.8980   22.3260   28.6790 C.3   242  SER242      0.2020
    103  C          7.5510   22.5940   30.0290 C.2   242  SER242      0.2618
    104  O          6.8560   22.9400   30.9820 O.2   242  SER242     -0.2717
    105  CB         5.8010   21.2700   28.8520 C.3   242  SER242      0.2103
    106  OG         6.2920   20.1220   29.5110 O.3   242  SER242     -0.2182
    107  N          8.8710   22.4490   30.1240 N.am  243  LYS243     -0.1979
    108  CA         9.5700   22.6480   31.3850 C.3   243  LYS243      0.1596
    109  C         10.3940   23.9190   31.2510 C.2   243  LYS243      0.2287
    110  O          9.8000   24.9940   31.1740 O.2   243  LYS243     -0.2864
    111  CB        10.3250   21.3700   31.7660 C.3   243  LYS243      0.0298
    112  CG         9.3090   20.2530   31.9930 C.3   243  LYS243      0.0038
    113  CD         9.8460   18.8620   32.1910 C.3   243  LYS243      0.0206
    114  CE         8.6610   17.8890   32.3260 C.3   243  LYS243      0.1093
    115  NZ         8.9900   16.5110   31.8780 N.3   243  LYS243     -0.1314
    116  N          4.4580   24.3930   25.2820 N.3   248  VAL248     -0.1231
    117  CA         4.1750   22.9660   25.0790 C.3   248  VAL248      0.1692
    118  C          4.8470   22.5420   23.8070 C.2   248  VAL248      0.2592
    119  O          5.1240   23.3670   22.9330 O.2   248  VAL248     -0.2718
    120  CB         2.6720   22.5870   24.9410 C.3   248  VAL248      0.0266
    121  CG1        1.9560   22.6710   26.2840 C.3   248  VAL248      0.0020
    122  CG2        1.9780   23.4130   23.8340 C.3   248  VAL248      0.0020
    123  N          5.1110   21.2450   23.7110 N.am  249  GLY249     -0.1957
    124  CA         5.7890   20.6750   22.5650 C.3   249  GLY249      0.1869
    125  C          6.7850   19.6200   23.0030 C.2   249  GLY249      0.2309
    126  O          7.1760   19.5630   24.1780 O.2   249  GLY249     -0.2863
@<TRIPOS>BOND
     1     1     2    1
     2    27    26    2
     3     4     3    2
     4   124   125    1
     5   124   123    1
     6    26    25    1
     7    24    25    1
     8   119   118    2
     9   125   126    2
    10     2     3    1
    11     2     5    1
    12    25    28    1
    13     3     8   am
    14     6     5    1
    15   123   118   am
    16     7     5    1
    17   118   117    1
    18   122   120    1
    19    15    14    2
    20    14    13    1
    21     8     9    1
    22    11    10    2
    23    28    29    1
    24     9    10    1
    25    10    12   am
    26   120   117    1
    27   120   121    1
    28   117   116    1
    29    19    21   ar
    30    19    17   ar
    31    21    22   ar
    32    30    29    2
    33    29    31   am
    34    12    13    1
    35    13    16    1
    36    96    95    1
    37    96    97    2
    38    94    95    1
    39    95    98    1
    40    45    44    2
    41    16    17    1
    42    17    18   ar
    43    51    50    2
    44    22    23    1
    45    22    20   ar
    46    44    43    1
    47    44    48   am
    48    98    99    1
    49    98   100    1
    50    50    49    1
    51    49    48    1
    52    49    52    1
    53    46    47    1
    54    46    43    1
    55    18    20   ar
    56    71    72    1
    57   101   102    1
    58    54    52    1
    59    43    42    1
    60    72    75    1
    61    72    73    1
    62    53    52    1
    63    53    55    1
    64    78    76   ar
    65    75    76    1
    66   102   105    1
    67   102   103    1
    68    76    77   ar
    69    73    74    2
    70   105   106    1
    71    79    80    1
    72   103   107   am
    73   103   104    2
    74    80    83    1
    75    80    81    1
    76   107   108    1
    77    38    40   ar
    78    38    37   ar
    79    35    34    2
    80    40    41   ar
    81    56    57    1
    82   110   109    2
    83   109   108    1
    84    81    82    2
    85    81    84   am
    86   108   111    1
    87    37    36    1
    88    37    39   ar
    89    36    33    1
    90    34    33    1
    91    57    58    1
    92    57    60    1
    93    61    60    1
    94    61    62    1
    95   111   112    1
    96    41    39   ar
    97   115   114    1
    98   112   113    1
    99   113   114    1
   100    33    32    1
   101    84    85    1
   102    58    59    2
   103    64    62   ar
   104    62    63   ar
   105    85    86    1
   106    85    88    1
   107    86    87    2
   108    91    93   ar
   109    91    89   ar
   110    88    89    1
   111    93    92   ar
   112    89    90   ar
   113    92    90   ar
   114    70    69    1
   115    69    66    1
   116    65    66    1
   117    66    67    1
   118    67    68    2
