@<TRIPOS>MOLECULE
tmp/2w8yA00.pdb
 222 211 0 0 0
SMALL
GASTEIGER

@<TRIPOS>ATOM
      1  N          6.5800   11.9000   12.0060 N.3    33  LEU33      -0.1245
      2  CA         6.4220   10.4610   11.9030 C.3    33  LEU33       0.1561
      3  C          5.4310   10.1120   10.7970 C.2    33  LEU33       0.2260
      4  O          5.6590    9.1830   10.0400 O.2    33  LEU33      -0.2867
      5  CB         6.0070    9.8490   13.2480 C.3    33  LEU33       0.0270
      6  CG         7.1170    9.7430   14.3100 C.3    33  LEU33       0.0019
      7  CD1        6.5650    9.1480   15.6070 C.3    33  LEU33       0.0001
      8  CD2        8.2970    8.9250   13.8380 C.3    33  LEU33       0.0001
      9  N          7.0100   10.7170    7.4460 N.3    36  LEU36      -0.1231
     10  CA         7.9420    9.6150    7.2080 C.3    36  LEU36       0.1693
     11  C          7.1960    8.3580    6.7320 C.2    36  LEU36       0.2592
     12  O          7.6630    7.6630    5.8200 O.2    36  LEU36      -0.2718
     13  CB         8.8020    9.3150    8.4520 C.3    36  LEU36       0.0284
     14  CG         9.9920   10.2680    8.6510 C.3    36  LEU36       0.0019
     15  CD1       10.6040   10.0890   10.0320 C.3    36  LEU36       0.0001
     16  CD2       11.0470   10.0340    7.5820 C.3    36  LEU36       0.0001
     17  N          6.0340    8.1010    7.3270 N.am   37  ASN37      -0.1974
     18  CA         5.1900    6.9670    6.9370 C.3    37  ASN37       0.1688
     19  C          4.5980    7.1400    5.5460 C.2    37  ASN37       0.2292
     20  O          4.4970    6.1770    4.7880 O.2    37  ASN37      -0.2864
     21  CB         4.0680    6.7420    7.9650 C.3    37  ASN37       0.1181
     22  CG         4.5850    6.2240    9.3150 C.2    37  ASN37       0.2629
     23  OD1        5.7470    5.8490    9.4550 O.2    37  ASN37      -0.2716
     24  ND2        3.6980    6.1820   10.3050 N.am   37  ASN37      -0.0877
     25  N          5.9950    8.9620    3.1330 N.3    39  LEU39      -0.1231
     26  CA         7.1510    8.7970    2.2630 C.3    39  LEU39       0.1693
     27  C          7.5340    7.3320    2.1090 C.2    39  LEU39       0.2593
     28  O          7.9020    6.8920    1.0210 O.2    39  LEU39      -0.2718
     29  CB         8.3450    9.5750    2.8280 C.3    39  LEU39       0.0284
     30  CG         9.6530    9.4790    2.0640 C.3    39  LEU39       0.0019
     31  CD1        9.4950   10.0580    0.6820 C.3    39  LEU39       0.0001
     32  CD2       10.7620   10.2110    2.8370 C.3    39  LEU39       0.0001
     33  N          7.4840    6.6010    3.2170 N.am   40  GLY40      -0.1942
     34  CA         7.7370    5.1670    3.2220 C.3    40  GLY40       0.2014
     35  C          6.8220    4.4020    2.2900 C.2    40  GLY40       0.2638
     36  O          7.2740    3.5310    1.5470 O.2    40  GLY40      -0.2714
     37  N          5.5370    4.7390    2.3190 N.am   41  GLU41      -0.1977
     38  CA         4.5460    4.1280    1.4320 C.3    41  GLU41       0.1602
     39  C          4.9130    4.3580   -0.0360 C.2    41  GLU41       0.2287
     40  O          4.9410    3.4220   -0.8430 O.2    41  GLU41      -0.2864
     41  CB         3.1640    4.7400    1.7220 C.3    41  GLU41       0.0415
     42  CG         2.0150    4.2100    0.8910 C.3    41  GLU41       0.1163
     43  CD         1.5680    2.8360    1.3310 C.2    41  GLU41       0.3649
     44  OE1        2.2910    2.2130    2.1450 O.co2  41  GLU41      -0.2457
     45  OE2        0.4940    2.3770    0.8700 O.co2  41  GLU41      -0.2457
     46  N          7.9070    5.2330   -1.2070 N.3    43  GLN43      -0.1231
     47  CA         9.1440    4.5200   -1.5140 C.3    43  GLN43       0.1698
     48  C          8.9180    3.0210   -1.6990 C.2    43  GLN43       0.2592
     49  O          9.5900    2.4060   -2.5260 O.2    43  GLN43      -0.2718
     50  CB        10.2220    4.7840   -0.4670 C.3    43  GLN43       0.0381
     51  CG        10.8030    6.1760   -0.5990 C.3    43  GLN43       0.0905
     52  CD        11.9070    6.4410    0.3760 C.2    43  GLN43       0.2608
     53  OE1       12.4360    5.5090    0.9910 O.2    43  GLN43      -0.2717
     54  NE2       12.2640    7.7200    0.5460 N.am   43  GLN43      -0.0878
     55  N          7.9700    2.4470   -0.9560 N.am   44  LEU44      -0.1980
     56  CA         7.6450    1.0300   -1.1170 C.3    44  LEU44       0.1596
     57  C          7.0640    0.7500   -2.5020 C.2    44  LEU44       0.2287
     58  O          7.4470   -0.2250   -3.1470 O.2    44  LEU44      -0.2864
     59  CB         6.6870    0.5440   -0.0180 C.3    44  LEU44       0.0297
     60  CG         6.3870   -0.9570    0.0280 C.3    44  LEU44       0.0022
     61  CD1        7.6700   -1.7680    0.1660 C.3    44  LEU44       0.0001
     62  CD2        5.4120   -1.2780    1.1620 C.3    44  LEU44       0.0001
     63  N         12.6170   -4.3370    2.7260 N.3    73  TRP73      -0.1227
     64  CA        12.2600   -2.9400    2.4430 C.3    73  TRP73       0.1737
     65  C         12.9560   -1.9350    3.3640 C.2    73  TRP73       0.2595
     66  O         13.3630   -0.8680    2.9110 O.2    73  TRP73      -0.2718
     67  CB        10.7410   -2.7060    2.4190 C.3    73  TRP73       0.0564
     68  CG        10.0530   -2.9700    3.7120 C.ar   73  TRP73       0.0003
     69  CD1        9.4290   -4.1210    4.0730 C.ar   73  TRP73       0.0946
     70  CD2        9.9190   -2.0730    4.8190 C.ar   73  TRP73       0.0152
     71  NE1        8.9170   -4.0010    5.3310 N.ar   73  TRP73      -0.2442
     72  CE2        9.2010   -2.7530    5.8140 C.ar   73  TRP73       0.0810
     73  CE3       10.3280   -0.7500    5.0610 C.ar   73  TRP73       0.0012
     74  CZ2        8.8790   -2.1670    7.0380 C.ar   73  TRP73       0.0191
     75  CZ3       10.0210   -0.1760    6.2690 C.ar   73  TRP73       0.0001
     76  CH2        9.2970   -0.8840    7.2490 C.ar   73  TRP73       0.0015
     77  N         13.1360   -2.2800    4.6360 N.am   74  MET74      -0.1979
     78  CA        13.7610   -1.3630    5.5790 C.3    74  MET74       0.1605
     79  C         15.2120   -1.1250    5.1870 C.2    74  MET74       0.2287
     80  O         15.6880    0.0210    5.1720 O.2    74  MET74      -0.2864
     81  CB        13.6780   -1.8970    7.0190 C.3    74  MET74       0.0413
     82  CG        14.2220   -0.9200    8.0650 C.3    74  MET74       0.0598
     83  SD        13.1560    0.5170    8.2580 S.3    74  MET74      -0.1393
     84  CE        11.8630   -0.2050    9.2590 C.3    74  MET74       0.0692
     85  N         15.3940    1.0310    2.0940 N.3    77  MET77      -0.1230
     86  CA        15.0610    2.4350    2.3590 C.3    77  MET77       0.1702
     87  C         16.1550    3.1770    3.1120 C.2    77  MET77       0.2592
     88  O         16.4670    4.3140    2.7690 O.2    77  MET77      -0.2718
     89  CB        13.7370    2.5660    3.0820 C.3    77  MET77       0.0401
     90  CG        12.5650    2.2070    2.2190 C.3    77  MET77       0.0596
     91  SD        11.0220    2.4970    3.0690 S.3    77  MET77      -0.1393
     92  CE         9.8970    1.5450    2.0400 C.3    77  MET77       0.0692
     93  N         16.7590    2.5440    4.1120 N.am   78  VAL78      -0.1980
     94  CA        17.8300    3.2070    4.8730 C.3    78  VAL78       0.1595
     95  C         19.0950    3.3480    4.0240 C.2    78  VAL78       0.2287
     96  O         19.7980    4.3480    4.1250 O.2    78  VAL78      -0.2864
     97  CB        18.1330    2.5200    6.2440 C.3    78  VAL78       0.0276
     98  CG1       19.0010    1.2740    6.0810 C.3    78  VAL78       0.0022
     99  CG2       18.8070    3.5220    7.2050 C.3    78  VAL78       0.0022
    100  N         18.3760    6.1650    1.7050 N.3    81  LEU81      -0.1245
    101  CA        18.5280    7.3710    2.5250 C.3    81  LEU81       0.1561
    102  C         19.9950    7.7730    2.6710 C.2    81  LEU81       0.2260
    103  O         20.3410    8.9470    2.5270 O.2    81  LEU81      -0.2867
    104  CB        17.9070    7.1630    3.9130 C.3    81  LEU81       0.0270
    105  CG        18.1600    8.2480    4.9730 C.3    81  LEU81       0.0019
    106  CD1       17.5050    9.5620    4.5720 C.3    81  LEU81       0.0001
    107  CD2       17.6550    7.7840    6.3220 C.3    81  LEU81       0.0001
    108  N         21.2920    9.1970   -0.8490 N.3    84  ARG84      -0.1245
    109  CA        20.8090   10.5480   -1.1280 C.3    84  ARG84       0.1563
    110  C         21.4880   11.5750   -0.2340 C.2    84  ARG84       0.2260
    111  O         21.7900   12.6810   -0.6780 O.2    84  ARG84      -0.2867
    112  CB        19.2920   10.6340   -0.9360 C.3    84  ARG84       0.0307
    113  CG        18.4750    9.8250   -1.9260 C.3    84  ARG84       0.0489
    114  CD        16.9920   10.1490   -1.7920 C.3    84  ARG84       0.2205
    115  NE        16.4810    9.8200   -0.4620 N.pl3  84  ARG84      -0.0865
    116  CZ        16.0230    8.6200   -0.0960 C.cat  84  ARG84       0.5346
    117  NH1       15.9920    7.6110   -0.9490 N.pl3  84  ARG84       0.1354
    118  NH2       15.5840    8.4270    1.1380 N.pl3  84  ARG84       0.1354
    119  N         15.8590   12.5210    3.5190 N.3    96  PHE96      -0.1241
    120  CA        14.7300   11.5890    3.3240 C.3    96  PHE96       0.1605
    121  C         14.0710   11.8370    1.9770 C.2    96  PHE96       0.2264
    122  O         13.8000   10.9000    1.2130 O.2    96  PHE96      -0.2867
    123  CB        13.6960   11.7410    4.4440 C.3    96  PHE96       0.0534
    124  CG        14.1750   11.2470    5.7730 C.ar   96  PHE96      -0.0203
    125  CD1       14.1500    9.8960    6.0630 C.ar   96  PHE96      -0.0042
    126  CD2       14.6490   12.1280    6.7390 C.ar   96  PHE96      -0.0042
    127  CE1       14.5910    9.4240    7.2890 C.ar   96  PHE96      -0.0003
    128  CE2       15.1000   11.6550    7.9750 C.ar   96  PHE96      -0.0003
    129  CZ        15.0690   10.3010    8.2420 C.ar   96  PHE96      -0.0000
    130  N         13.1550   11.9460   18.1020 N.3   112  PHE112     -0.1241
    131  CA        13.8340   10.6670   17.8930 C.3   112  PHE112      0.1605
    132  C         15.2750   10.8660   17.4150 C.2   112  PHE112      0.2264
    133  O         15.6930   10.3040   16.4000 O.2   112  PHE112     -0.2867
    134  CB        13.0550    9.7910   16.9080 C.3   112  PHE112      0.0534
    135  CG        12.6140   10.5100   15.6650 C.ar  112  PHE112     -0.0203
    136  CD1       11.4630   11.2830   15.6670 C.ar  112  PHE112     -0.0042
    137  CD2       13.3400   10.4060   14.4950 C.ar  112  PHE112     -0.0042
    138  CE1       11.0490   11.9370   14.5240 C.ar  112  PHE112     -0.0003
    139  CE2       12.9330   11.0600   13.3520 C.ar  112  PHE112     -0.0003
    140  CZ        11.7840   11.8260   13.3660 C.ar  112  PHE112     -0.0000
    141  N         17.5580    7.7020   17.0990 N.3   115  LEU115     -0.1245
    142  CA        17.2520    6.9930   15.8630 C.3   115  LEU115      0.1561
    143  C         17.9010    7.7100   14.6690 C.2   115  LEU115      0.2260
    144  O         18.4900    7.0550   13.8060 O.2   115  LEU115     -0.2867
    145  CB        15.7370    6.8260   15.6450 C.3   115  LEU115      0.0270
    146  CG        15.3670    5.8070   14.5470 C.3   115  LEU115      0.0019
    147  CD1       15.5540    4.3940   15.0590 C.3   115  LEU115      0.0001
    148  CD2       13.9480    5.9760   14.0350 C.3   115  LEU115      0.0001
    149  N         20.6490    6.1570   12.0320 N.3   119  MET119     -0.1245
    150  CA        20.4910    6.1940   10.5780 C.3   119  MET119      0.1570
    151  C         21.6180    6.9750    9.8960 C.2   119  MET119      0.2261
    152  O         22.0970    6.5920    8.8220 O.2   119  MET119     -0.2867
    153  CB        19.1220    6.7650   10.2030 C.3   119  MET119      0.0387
    154  CG        17.9710    5.8120   10.5450 C.3   119  MET119      0.0595
    155  SD        16.3450    6.3690    9.9950 S.3   119  MET119     -0.1393
    156  CE        15.9480    7.6560   11.1570 C.3   119  MET119      0.0692
    157  N         15.8280   -0.4130   13.7060 N.3   205  LEU205     -0.1245
    158  CA        14.7970    0.2950   12.9480 C.3   205  LEU205      0.1561
    159  C         13.5010   -0.5040   12.9130 C.2   205  LEU205      0.2260
    160  O         12.4180    0.0600   13.0530 O.2   205  LEU205     -0.2867
    161  CB        15.2680    0.5860   11.5110 C.3   205  LEU205      0.0270
    162  CG        16.5700    1.3810   11.3180 C.3   205  LEU205      0.0019
    163  CD1       16.7370    1.7860    9.8590 C.3   205  LEU205      0.0001
    164  CD2       16.6360    2.5900   12.2040 C.3   205  LEU205      0.0001
    165  N         11.8260   -0.1200   16.4500 N.3   208  TYR208     -0.1227
    166  CA        11.2380    1.2160   16.5370 C.3   208  TYR208      0.1736
    167  C          9.9430    1.2830   15.7320 C.2   208  TYR208      0.2595
    168  O          8.9210    1.7790   16.2130 O.2   208  TYR208     -0.2718
    169  CB        12.2140    2.2740   16.0180 C.3   208  TYR208      0.0548
    170  CG        11.7720    3.6850   16.3440 C.ar  208  TYR208     -0.0200
    171  CD1       10.8550    4.3480   15.5390 C.ar  208  TYR208     -0.0009
    172  CD2       12.2520    4.3440   17.4680 C.ar  208  TYR208     -0.0009
    173  CE1       10.4320    5.6370   15.8450 C.ar  208  TYR208      0.0417
    174  CE2       11.8330    5.6280   17.7800 C.ar  208  TYR208      0.0417
    175  CZ        10.9270    6.2680   16.9640 C.ar  208  TYR208      0.1957
    176  OH        10.5040    7.5410   17.2540 O.3   208  TYR208     -0.2866
    177  N         10.0070    0.7800   14.5060 N.am  209  CYS209     -0.1970
    178  CA         8.8750    0.7960   13.6010 C.3   209  CYS209      0.1712
    179  C          7.7080    0.0060   14.1800 C.2   209  CYS209      0.2296
    180  O          6.5780    0.4940   14.2110 O.2   209  CYS209     -0.2864
    181  CB         9.2860    0.2260   12.2370 C.3   209  CYS209      0.0983
    182  SG         7.9380    0.0680   11.0760 S.3   209  CYS209     -0.0798
    183  N          6.2200    1.7570   17.1400 N.3   212  THR212     -0.1218
    184  CA         5.4540    2.9190   16.6970 C.3   212  THR212      0.1862
    185  C          4.1030    2.5030   16.1100 C.2   212  THR212      0.2287
    186  O          3.0990    3.1820   16.3180 O.2   212  THR212     -0.2866
    187  CB         6.2270    3.7590   15.6780 C.3   212  THR212      0.1770
    188  OG1        7.4500    4.2040   16.2690 O.3   212  THR212     -0.2211
    189  CG2        5.4150    4.9930   15.2550 C.3   212  THR212      0.0375
    190  N         -0.2970    5.1580    9.6530 N.3   223  PHE223     -0.1228
    191  CA         0.4380    4.1910    8.8480 C.3   223  PHE223      0.1721
    192  C         -0.4150    3.8150    7.6320 C.2   223  PHE223      0.2437
    193  O         -1.5210    3.3100    7.7970 O.2   223  PHE223     -0.2733
    194  CB         0.7710    2.9450    9.6780 C.3   223  PHE223      0.0547
    195  CG         1.9670    3.1200   10.5780 C.ar  223  PHE223     -0.0202
    196  CD1        1.8200    3.6410   11.8520 C.ar  223  PHE223     -0.0042
    197  CD2        3.2420    2.7690   10.1390 C.ar  223  PHE223     -0.0042
    198  CE1        2.9200    3.8130   12.6840 C.ar  223  PHE223     -0.0003
    199  CE2        4.3520    2.9380   10.9720 C.ar  223  PHE223     -0.0003
    200  CZ         4.1830    3.4610   12.2480 C.ar  223  PHE223     -0.0000
    201  N          0.0820    4.0920    6.4070 N.am  224  PRO224     -0.2729
    202  CA        -0.6540    3.7710    5.1770 C.3   224  PRO224      0.1401
    203  C         -0.8300    2.2760    4.9010 C.2   224  PRO224      0.2269
    204  O         -0.2390    1.4410    5.5860 O.2   224  PRO224     -0.2865
    205  CB         0.2100    4.4070    4.0800 C.3   224  PRO224      0.0296
    206  CG         0.9420    5.4840    4.7540 C.3   224  PRO224      0.0237
    207  CD         1.2390    4.9630    6.1210 C.3   224  PRO224      0.0939
    208  N          2.3210   -0.1450    3.9390 N.3   227  MET227     -0.1245
    209  CA         3.1700   -0.1780    5.1280 C.3   227  MET227      0.1570
    210  C          2.5970   -1.1110    6.1880 C.2   227  MET227      0.2261
    211  O          3.3030   -1.9850    6.7000 O.2   227  MET227     -0.2867
    212  CB         3.1450    1.1360    5.9320 C.3   227  MET227      0.0387
    213  CG         3.6230    1.0900    7.3970 C.3   227  MET227      0.0595
    214  SD         5.0070   -0.0120    7.8280 S.3   227  MET227     -0.1393
    215  CE         4.7330   -0.2630    9.5790 C.3   227  MET227      0.0692
    216  N          2.9920   -4.8740    5.0970 N.3   230  VAL230     -0.1245
    217  CA         4.3720   -5.3820    5.1280 C.3   230  VAL230      0.1561
    218  C          4.8320   -5.5920    6.5750 C.2   230  VAL230      0.2260
    219  O          5.5610   -6.5440    6.8670 O.2   230  VAL230     -0.2867
    220  CB         5.3940   -4.4970    4.3520 C.3   230  VAL230      0.0252
    221  CG1        5.1620   -4.6110    2.8440 C.3   230  VAL230      0.0019
    222  CG2        5.3510   -3.0490    4.8200 C.3   230  VAL230      0.0019
@<TRIPOS>BOND
     1    58    57    2
     2    49    48    2
     3    57    56    1
     4   113   114    1
     5   113   112    1
     6   114   115    1
     7    48    47    1
     8    48    55   am
     9    47    46    1
    10    47    50    1
    11   109   112    1
    12   109   108    1
    13   109   110    1
    14    56    55    1
    15    56    59    1
    16   117   116    1
    17    40    39    2
    18   111   110    2
    19    51    50    1
    20    51    52    1
    21   115   116    2
    22   116   118    1
    23    39    38    1
    24    59    60    1
    25    60    61    1
    26    60    62    1
    27    52    54   am
    28    52    53    2
    29    31    30    1
    30    45    43   ar
    31    42    43    1
    32    42    41    1
    33    28    27    2
    34   122   121    2
    35    43    44   ar
    36    38    41    1
    37    38    37    1
    38    36    35    2
    39   100   101    1
    40   121   120    1
    41    92    91    1
    42    30    29    1
    43    30    32    1
    44    85    86    1
    45    27    26    1
    46    27    33   am
    47    90    91    1
    48    90    89    1
    49    26    29    1
    50    26    25    1
    51    35    37   am
    52    35    34    1
    53    86    89    1
    54    86    87    1
    55    67    64    1
    56    67    68    1
    57    64    63    1
    58    64    65    1
    59   101   102    1
    60   101   104    1
    61   103   102    2
    62    88    87    2
    63   221   220    1
    64    66    65    2
    65    87    93   am
    66    33    34    1
    67   120   119    1
    68   120   123    1
    69    65    77   am
    70    68    69   ar
    71    68    70   ar
    72   104   105    1
    73   208   209    1
    74    95    96    2
    75    95    94    1
    76    69    71   ar
    77   205   206    1
    78   205   202    1
    79    93    94    1
    80   220   222    1
    81   220   217    1
    82   123   124    1
    83   106   105    1
    84    77    78    1
    85   206   207    1
    86    20    19    2
    87    70    73   ar
    88    70    72   ar
    89    94    97    1
    90   203   202    1
    91   203   204    2
    92   105   107    1
    93    73    75   ar
    94   216   217    1
    95   217   218    1
    96   209   212    1
    97   209   210    1
    98    80    79    2
    99   202   201    1
   100    79    78    1
   101    71    72   ar
   102    19    18    1
   103    78    81    1
   104   124   125   ar
   105   124   126   ar
   106    72    74   ar
   107    12    11    2
   108   212   213    1
   109   125   127   ar
   110    98    97    1
   111   207   201    1
   112   210   211    2
   113    97    99    1
   114    75    76   ar
   115   201   192   am
   116   218   219    2
   117    11    10    1
   118    11    17   am
   119   126   128   ar
   120    18    17    1
   121    18    21    1
   122    81    82    1
   123    74    76   ar
   124    10     9    1
   125    10    13    1
   126   127   129   ar
   127   213   214    1
   128    16    14    1
   129   192   193    2
   130   192   191    1
   131   214   215    1
   132    21    22    1
   133   128   129   ar
   134    82    83    1
   135    83    84    1
   136    13    14    1
   137    14    15    1
   138   152   151    2
   139   191   190    1
   140   191   194    1
   141    22    23    2
   142    22    24   am
   143   194   195    1
   144   163   162    1
   145   151   150    1
   146   155   154    1
   147   155   156    1
   148     4     3    2
   149   197   195   ar
   150   197   199   ar
   151   153   154    1
   152   153   150    1
   153   195   196   ar
   154   150   149    1
   155     3     2    1
   156   199   200   ar
   157   182   181    1
   158   162   161    1
   159   162   164    1
   160   161   158    1
   161   196   198   ar
   162     2     1    1
   163     2     5    1
   164   181   178    1
   165   200   198   ar
   166   159   158    1
   167   159   160    2
   168   158   157    1
   169     5     6    1
   170   139   140   ar
   171   139   137   ar
   172   140   138   ar
   173   178   179    1
   174   178   177    1
   175   144   143    2
   176     8     6    1
   177   148   146    1
   178   179   180    2
   179     6     7    1
   180   137   135   ar
   181   177   167   am
   182   138   136   ar
   183   146   147    1
   184   146   145    1
   185   143   142    1
   186   189   187    1
   187   171   173   ar
   188   171   170   ar
   189   145   142    1
   190   135   136   ar
   191   135   134    1
   192   187   188    1
   193   187   184    1
   194   167   168    2
   195   167   166    1
   196   173   175   ar
   197   142   141    1
   198   169   170    1
   199   169   166    1
   200   185   186    2
   201   185   184    1
   202   170   172   ar
   203   133   132    2
   204   165   166    1
   205   184   183    1
   206   134   131    1
   207   175   176    1
   208   175   174   ar
   209   132   131    1
   210   172   174   ar
   211   131   130    1
