@<TRIPOS>MOLECULE
tmp/2w8yB00.pdb
 191 180 0 0 0
SMALL
GASTEIGER

@<TRIPOS>ATOM
      1  N          9.7570   13.9640  -20.1770 N.3    33  LEU33      -0.1245
      2  CA         8.6470   14.8570  -20.4990 C.3    33  LEU33       0.1561
      3  C          9.1110   15.9880  -21.4240 C.2    33  LEU33       0.2260
      4  O          8.3710   16.4120  -22.3030 O.2    33  LEU33      -0.2867
      5  CB         8.0140   15.4250  -19.2270 C.3    33  LEU33       0.0270
      6  CG         7.3320   14.4230  -18.2770 C.3    33  LEU33       0.0019
      7  CD1        6.7960   15.1500  -17.0390 C.3    33  LEU33       0.0001
      8  CD2        6.2160   13.6470  -18.9650 C.3    33  LEU33       0.0001
      9  N          9.4220   14.4870  -24.9620 N.3    36  LEU36      -0.1231
     10  CA         8.0560   14.3480  -25.4930 C.3    36  LEU36       0.1693
     11  C          7.4930   15.7030  -25.9570 C.2    36  LEU36       0.2592
     12  O          6.7650   15.7830  -26.9620 O.2    36  LEU36      -0.2718
     13  CB         7.1170   13.7140  -24.4620 C.3    36  LEU36       0.0284
     14  CG         7.2280   12.2000  -24.2450 C.3    36  LEU36       0.0019
     15  CD1        6.5730   11.7980  -22.9190 C.3    36  LEU36       0.0001
     16  CD2        6.6010   11.4410  -25.4170 C.3    36  LEU36       0.0001
     17  N          7.8380   16.7660  -25.2370 N.am   37  ASN37      -0.1974
     18  CA         7.3700   18.1080  -25.5990 C.3    37  ASN37       0.1688
     19  C          8.0690   18.6110  -26.8550 C.2    37  ASN37       0.2292
     20  O          7.4490   19.2610  -27.6860 O.2    37  ASN37      -0.2864
     21  CB         7.5520   19.1010  -24.4390 C.3    37  ASN37       0.1181
     22  CG         6.5850   18.8420  -23.2720 C.2    37  ASN37       0.2629
     23  OD1        5.5330   18.2200  -23.4380 O.2    37  ASN37      -0.2716
     24  ND2        6.9430   19.3360  -22.0900 N.am   37  ASN37      -0.0877
     25  N          9.2890   16.5700  -29.2140 N.3    39  LEU39      -0.1231
     26  CA         8.6730   15.7790  -30.2630 C.3    39  LEU39       0.1693
     27  C          7.3340   16.4050  -30.6660 C.2    39  LEU39       0.2592
     28  O          7.0300   16.5050  -31.8460 O.2    39  LEU39      -0.2718
     29  CB         8.4910   14.3270  -29.8060 C.3    39  LEU39       0.0284
     30  CG         7.9520   13.3460  -30.8430 C.3    39  LEU39       0.0019
     31  CD1        8.8390   13.3420  -32.0790 C.3    39  LEU39       0.0001
     32  CD2        7.8210   11.9530  -30.2230 C.3    39  LEU39       0.0001
     33  N          6.5490   16.8340  -29.6810 N.am   40  GLY40      -0.1957
     34  CA         5.2450   17.4210  -29.9280 C.3    40  GLY40       0.1869
     35  C          5.3100   18.7090  -30.7350 C.2    40  GLY40       0.2309
     36  O          4.4740   18.9350  -31.6130 O.2    40  GLY40      -0.2863
     37  N          5.9380   17.6370  -34.1910 N.3    43  GLN43      -0.1245
     38  CA         4.7610   17.0320  -34.7860 C.3    43  GLN43       0.1566
     39  C          3.6820   18.0590  -35.0950 C.2    43  GLN43       0.2260
     40  O          2.9720   17.9120  -36.0930 O.2    43  GLN43      -0.2867
     41  CB         4.2180   15.9150  -33.9230 C.3    43  GLN43       0.0367
     42  CG         5.1930   14.7410  -33.8700 C.3    43  GLN43       0.0905
     43  CD         4.5950   13.5060  -33.2610 C.2    43  GLN43       0.2608
     44  OE1        3.4380   13.5130  -32.8440 O.2    43  GLN43      -0.2717
     45  NE2        5.3800   12.4250  -33.2000 N.am   43  GLN43      -0.0878
     46  N         -5.1470   18.7510  -32.2780 N.3    73  TRP73      -0.1227
     47  CA        -3.7370   18.3500  -32.3250 C.3    73  TRP73       0.1737
     48  C         -3.4030   17.1930  -31.3790 C.2    73  TRP73       0.2595
     49  O         -2.6690   16.2980  -31.7490 O.2    73  TRP73      -0.2718
     50  CB        -2.7960   19.5400  -32.0720 C.3    73  TRP73       0.0564
     51  CG        -2.8590   20.1220  -30.6920 C.ar   73  TRP73       0.0003
     52  CD1       -3.6320   21.1600  -30.2830 C.ar   73  TRP73       0.0946
     53  CD2       -2.0950   19.7170  -29.5510 C.ar   73  TRP73       0.0152
     54  NE1       -3.4260   21.4160  -28.9420 N.ar   73  TRP73      -0.2442
     55  CE2       -2.4790   20.5490  -28.4720 C.ar   73  TRP73       0.0810
     56  CE3       -1.1370   18.7270  -29.3290 C.ar   73  TRP73       0.0012
     57  CZ2       -1.9290   20.4250  -27.2020 C.ar   73  TRP73       0.0191
     58  CZ3       -0.6000   18.5950  -28.0710 C.ar   73  TRP73       0.0001
     59  CH2       -0.9920   19.4450  -27.0160 C.ar   73  TRP73       0.0015
     60  N         -3.9730   17.1920  -30.1790 N.am   74  MET74      -0.1979
     61  CA        -3.6940   16.1310  -29.2220 C.3    74  MET74       0.1605
     62  C         -4.2540   14.8080  -29.7300 C.2    74  MET74       0.2287
     63  O         -3.5860   13.7930  -29.6310 O.2    74  MET74      -0.2864
     64  CB        -4.2790   16.4580  -27.8400 C.3    74  MET74       0.0413
     65  CG        -3.9830   15.4050  -26.7760 C.3    74  MET74       0.0598
     66  SD        -2.2790   15.5110  -26.2280 S.3    74  MET74      -0.1393
     67  CE        -2.4180   16.9350  -25.1390 C.3    74  MET74       0.0692
     68  N         -2.0700   13.5220  -32.5890 N.3    77  MET77      -0.1230
     69  CA        -0.7720   13.0350  -32.1280 C.3    77  MET77       0.1702
     70  C         -0.8680   11.6550  -31.4910 C.2    77  MET77       0.2592
     71  O         -0.0630   10.7820  -31.7980 O.2    77  MET77      -0.2718
     72  CB        -0.1420   14.0170  -31.1580 C.3    77  MET77       0.0401
     73  CG         0.3780   15.2690  -31.8460 C.3    77  MET77       0.0596
     74  SD         1.4080   16.2740  -30.7730 S.3    77  MET77      -0.1393
     75  CE         1.5420   17.7360  -31.8150 C.3    77  MET77       0.0692
     76  N         -1.8490   11.4680  -30.6110 N.am   78  VAL78      -0.1980
     77  CA        -2.0530   10.1770  -29.9500 C.3    78  VAL78       0.1595
     78  C         -2.5650    9.1150  -30.9430 C.2    78  VAL78       0.2287
     79  O         -2.2290    7.9490  -30.8300 O.2    78  VAL78      -0.2864
     80  CB        -2.9950   10.3060  -28.7040 C.3    78  VAL78       0.0276
     81  CG1       -4.4360   10.5800  -29.1200 C.3    78  VAL78       0.0022
     82  CG2       -2.9040    9.0550  -27.8200 C.3    78  VAL78       0.0022
     83  N          0.5220    8.1340  -32.7640 N.3    81  LEU81      -0.1245
     84  CA         1.2770    7.2750  -31.8380 C.3    81  LEU81       0.1561
     85  C          0.7570    5.8470  -31.8920 C.2    81  LEU81       0.2260
     86  O          1.5330    4.8900  -32.0080 O.2    81  LEU81      -0.2867
     87  CB         1.1870    7.8030  -30.4030 C.3    81  LEU81       0.0270
     88  CG         1.6240    6.8450  -29.2920 C.3    81  LEU81       0.0019
     89  CD1        3.0670    6.4730  -29.5130 C.3    81  LEU81       0.0001
     90  CD2        1.4220    7.4710  -27.9150 C.3    81  LEU81       0.0001
     91  N          1.8250    4.1430  -35.2550 N.3    84  ARG84      -0.1245
     92  CA         3.2460    3.7630  -35.3040 C.3    84  ARG84       0.1563
     93  C          3.5590    2.5870  -34.3680 C.2    84  ARG84       0.2260
     94  O          4.3240    1.6790  -34.7180 O.2    84  ARG84      -0.2867
     95  CB         4.1460    4.9490  -34.9480 C.3    84  ARG84       0.0307
     96  CG         4.0970    6.1190  -35.9380 C.3    84  ARG84       0.0489
     97  CD         5.1840    7.1400  -35.6290 C.3    84  ARG84       0.2205
     98  NE         4.9730    7.7850  -34.3360 N.pl3  84  ARG84      -0.0865
     99  CZ         4.1390    8.7990  -34.1210 C.cat  84  ARG84       0.5346
    100  NH1        3.4090    9.2930  -35.1070 N.pl3  84  ARG84       0.1354
    101  NH2        4.0250    9.3180  -32.9070 N.pl3  84  ARG84       0.1354
    102  N          6.7890    6.5670  -29.9390 N.3    96  PHE96      -0.1241
    103  CA         6.6200    8.0080  -30.0840 C.3    96  PHE96       0.1605
    104  C          7.4090    8.4890  -31.2960 C.2    96  PHE96       0.2264
    105  O          6.9170    9.2940  -32.1050 O.2    96  PHE96      -0.2867
    106  CB         7.0580    8.7480  -28.8200 C.3    96  PHE96       0.0534
    107  CG         6.1560    8.5140  -27.6460 C.ar   96  PHE96      -0.0203
    108  CD1        5.0250    9.2970  -27.4540 C.ar   96  PHE96      -0.0042
    109  CD2        6.4160    7.4900  -26.7550 C.ar   96  PHE96      -0.0042
    110  CE1        4.1820    9.0710  -26.3640 C.ar   96  PHE96      -0.0003
    111  CE2        5.5740    7.2550  -25.6810 C.ar   96  PHE96      -0.0003
    112  CZ         4.4610    8.0500  -25.4860 C.ar   96  PHE96      -0.0000
    113  N          2.5830    9.0450  -14.9430 N.3   112  PHE112     -0.1241
    114  CA         3.0060    8.9000  -16.3390 C.3   112  PHE112      0.1605
    115  C          2.7270    7.4940  -16.8620 C.2   112  PHE112      0.2264
    116  O          2.3830    7.3150  -18.0230 O.2   112  PHE112     -0.2867
    117  CB         4.4960    9.2380  -16.4850 C.3   112  PHE112      0.0534
    118  CG         5.0280    9.0880  -17.8900 C.ar  112  PHE112     -0.0203
    119  CD1        4.5030    9.8410  -18.9340 C.ar  112  PHE112     -0.0042
    120  CD2        6.0690    8.2090  -18.1640 C.ar  112  PHE112     -0.0042
    121  CE1        4.9950    9.7100  -20.2280 C.ar  112  PHE112     -0.0003
    122  CE2        6.5690    8.0740  -19.4550 C.ar  112  PHE112     -0.0003
    123  CZ         6.0350    8.8250  -20.4860 C.ar  112  PHE112     -0.0000
    124  N         -0.9940    7.3870  -17.6590 N.3   115  LEU115     -0.1245
    125  CA        -1.2100    8.0860  -18.9200 C.3   115  LEU115      0.1561
    126  C         -0.8800    7.1790  -20.1190 C.2   115  LEU115      0.2260
    127  O         -1.6290    7.1370  -21.0920 O.2   115  LEU115     -0.2867
    128  CB        -0.3640    9.3610  -18.9910 C.3   115  LEU115      0.0270
    129  CG        -0.5180   10.1740  -20.2910 C.3   115  LEU115      0.0019
    130  CD1       -1.7400   11.0670  -20.2120 C.3   115  LEU115      0.0001
    131  CD2        0.7310   10.9800  -20.5950 C.3   115  LEU115      0.0001
    132  N         -3.1080    5.8390  -23.2770 N.3   119  MET119     -0.1245
    133  CA        -2.7070    5.9870  -24.6710 C.3   119  MET119      0.1570
    134  C         -2.5900    4.6420  -25.3670 C.2   119  MET119      0.2261
    135  O         -2.8620    4.5530  -26.5480 O.2   119  MET119     -0.2867
    136  CB        -1.3820    6.7450  -24.7830 C.3   119  MET119      0.0387
    137  CG        -1.4970    8.1790  -24.3290 C.3   119  MET119      0.0595
    138  SD        -0.0590    9.1860  -24.7080 S.3   119  MET119     -0.1393
    139  CE         1.1690    8.4270  -23.6470 C.3   119  MET119      0.0692
    140  N         -5.6060   13.1240  -21.5910 N.3   205  LEU205     -0.1245
    141  CA        -4.3310   13.6620  -22.0870 C.3   205  LEU205      0.1561
    142  C         -4.2880   15.1790  -21.9720 C.2   205  LEU205      0.2260
    143  O         -3.2670   15.7470  -21.5940 O.2   205  LEU205     -0.2867
    144  CB        -4.0800   13.2560  -23.5400 C.3   205  LEU205      0.0270
    145  CG        -3.5050   11.8560  -23.7720 C.3   205  LEU205      0.0019
    146  CD1       -4.2800   10.7480  -23.0470 C.3   205  LEU205      0.0001
    147  CD2       -3.4150   11.5900  -25.2770 C.3   205  LEU205      0.0001
    148  N         -3.6970   16.0150  -18.2760 N.3   208  TYR208     -0.1227
    149  CA        -2.3160   15.7260  -17.9020 C.3   208  TYR208      0.1736
    150  C         -1.4070   16.8070  -18.4600 C.2   208  TYR208      0.2595
    151  O         -0.5130   17.2910  -17.7720 O.2   208  TYR208     -0.2718
    152  CB        -1.8850   14.3640  -18.4400 C.3   208  TYR208      0.0548
    153  CG        -0.5810   13.8560  -17.8750 C.ar  208  TYR208     -0.0200
    154  CD1        0.6400   14.2800  -18.3970 C.ar  208  TYR208     -0.0009
    155  CD2       -0.5670   12.9440  -16.8210 C.ar  208  TYR208     -0.0009
    156  CE1        1.8380   13.8060  -17.8920 C.ar  208  TYR208      0.0417
    157  CE2        0.6320   12.4670  -16.3040 C.ar  208  TYR208      0.0417
    158  CZ         1.8280   12.9070  -16.8510 C.ar  208  TYR208      0.1957
    159  OH         3.0160   12.4410  -16.3530 O.3   208  TYR208     -0.2866
    160  N         -1.6640   17.1910  -19.7040 N.am  209  CYS209     -0.1970
    161  CA        -0.8710   18.2120  -20.3750 C.3   209  CYS209      0.1712
    162  C         -0.9310   19.5620  -19.6540 C.2   209  CYS209      0.2296
    163  O          0.1040   20.1510  -19.3480 O.2   209  CYS209     -0.2864
    164  CB        -1.3350   18.3750  -21.8180 C.3   209  CYS209      0.0983
    165  SG        -0.4130   19.6190  -22.7500 S.3   209  CYS209     -0.0798
    166  N          0.8450   19.5160  -16.2730 N.3   212  THR212     -0.1218
    167  CA         2.2920   19.5450  -16.4380 C.3   212  THR212      0.1862
    168  C          2.7570   20.9350  -16.8670 C.2   212  THR212      0.2287
    169  O          3.7710   21.4270  -16.3690 O.2   212  THR212     -0.2866
    170  CB         2.7790   18.4970  -17.4610 C.3   212  THR212      0.1770
    171  OG1        2.2520   17.2130  -17.1130 O.3   212  THR212     -0.2211
    172  CG2        4.3030   18.4290  -17.4540 C.3   212  THR212      0.0375
    173  N          8.5740   23.2980  -22.1970 N.3   223  PHE223     -0.1241
    174  CA         7.5540   23.3400  -23.2410 C.3   223  PHE223      0.1605
    175  C          8.0000   24.3240  -24.3250 C.2   223  PHE223      0.2264
    176  O          8.1560   25.5150  -24.0480 O.2   223  PHE223     -0.2867
    177  CB         6.1980   23.7800  -22.6830 C.3   223  PHE223      0.0534
    178  CG         5.4300   22.6790  -21.9930 C.ar  223  PHE223     -0.0203
    179  CD1        5.7020   22.3480  -20.6660 C.ar  223  PHE223     -0.0042
    180  CD2        4.4280   21.9870  -22.6650 C.ar  223  PHE223     -0.0042
    181  CE1        4.9890   21.3310  -20.0230 C.ar  223  PHE223     -0.0003
    182  CE2        3.7160   20.9840  -22.0350 C.ar  223  PHE223     -0.0003
    183  CZ         3.9960   20.6550  -20.7080 C.ar  223  PHE223     -0.0000
    184  N          3.9620   24.6990  -29.1280 N.3   227  MET227     -0.1245
    185  CA         3.1880   23.8560  -28.2140 C.3   227  MET227      0.1570
    186  C          2.5390   24.6920  -27.1160 C.2   227  MET227      0.2261
    187  O          1.3530   24.5420  -26.8250 O.2   227  MET227     -0.2867
    188  CB         4.1060   22.8210  -27.5600 C.3   227  MET227      0.0387
    189  CG         4.4360   21.6630  -28.4550 C.3   227  MET227      0.0595
    190  SD         3.0280   20.5650  -28.5830 S.3   227  MET227     -0.1393
    191  CE         3.2440   19.5750  -27.1030 C.3   227  MET227      0.0692
@<TRIPOS>BOND
     1    40    39    2
     2    96    97    1
     3    96    95    1
     4    97    98    1
     5    92    91    1
     6    92    95    1
     7    92    93    1
     8   100    99    1
     9    39    38    1
    10    38    37    1
    11    38    41    1
    12    94    93    2
    13    98    99    2
    14    99   101    1
    15    41    42    1
    16    42    43    1
    17    43    45   am
    18    43    44    2
    19    83    84    1
    20    68    69    1
    21    47    46    1
    22    47    50    1
    23    47    48    1
    24    69    70    1
    25    69    72    1
    26   105   104    2
    27    31    30    1
    28    50    51    1
    29    86    85    2
    30    85    84    1
    31    73    72    1
    32    73    74    1
    33    28    27    2
    34    84    87    1
    35    75    74    1
    36    71    70    2
    37    49    48    2
    38    36    35    2
    39    70    76   am
    40    48    60   am
    41   104   103    1
    42    78    79    2
    43    78    77    1
    44    30    32    1
    45    30    29    1
    46    35    34    1
    47    51    52   ar
    48    51    53   ar
    49    27    26    1
    50    27    33   am
    51    76    77    1
    52    87    88    1
    53    52    54   ar
    54    26    29    1
    55    26    25    1
    56    60    61    1
    57   103   102    1
    58   103   106    1
    59    77    80    1
    60    34    33    1
    61    62    63    2
    62    62    61    1
    63    53    56   ar
    64    53    55   ar
    65    89    88    1
    66    56    58   ar
    67    88    90    1
    68    61    64    1
    69   184   185    1
    70    81    80    1
    71    54    55   ar
    72   106   107    1
    73    80    82    1
    74   190   189    1
    75   190   191    1
    76    55    57   ar
    77   189   188    1
    78   185   188    1
    79   185   186    1
    80    58    59   ar
    81    64    65    1
    82    20    19    2
    83   107   108   ar
    84   107   109   ar
    85   108   110   ar
    86    57    59   ar
    87   186   187    2
    88    12    11    2
    89    19    18    1
    90    65    66    1
    91   109   111   ar
    92   135   134    2
    93   110   112   ar
    94    66    67    1
    95    11    10    1
    96    11    17   am
    97   111   112   ar
    98    18    17    1
    99    18    21    1
   100    10     9    1
   101    10    13    1
   102    16    14    1
   103   134   133    1
   104   147   145    1
   105   136   133    1
   106   136   137    1
   107   138   137    1
   108   138   139    1
   109   133   132    1
   110    13    14    1
   111    21    22    1
   112   175   176    2
   113   175   174    1
   114    14    15    1
   115   145   144    1
   116   145   146    1
   117   144   141    1
   118    23    22    2
   119    22    24   am
   120   174   177    1
   121   174   173    1
   122   165   164    1
   123   177   178    1
   124   180   182   ar
   125   180   178   ar
   126     4     3    2
   127   141   142    1
   128   141   140    1
   129   182   183   ar
   130   178   179   ar
   131   142   143    2
   132   164   161    1
   133     3     2    1
   134   127   126    2
   135   183   181   ar
   136   179   181   ar
   137   131   129    1
   138     2     1    1
   139     2     5    1
   140   123   121   ar
   141   123   122   ar
   142   161   160    1
   143   161   162    1
   144   129   130    1
   145   129   128    1
   146   121   119   ar
   147   126   125    1
   148   160   150   am
   149   162   163    2
   150   122   120   ar
   151     5     6    1
   152   128   125    1
   153     8     6    1
   154   119   118   ar
   155   125   124    1
   156   150   149    1
   157   150   151    2
   158   152   149    1
   159   152   153    1
   160   154   156   ar
   161   154   153   ar
   162     6     7    1
   163   148   149    1
   164   120   118   ar
   165   116   115    2
   166   156   158   ar
   167   118   117    1
   168   153   155   ar
   169   170   172    1
   170   170   171    1
   171   170   167    1
   172   168   167    1
   173   168   169    2
   174   115   114    1
   175   158   159    1
   176   158   157   ar
   177   155   157   ar
   178   117   114    1
   179   167   166    1
   180   114   113    1
