@<TRIPOS>MOLECULE
tmp/2w90A00.pdb
 141 132 0 0 0
SMALL
GASTEIGER

@<TRIPOS>ATOM
      1  N         30.5830    5.0050   37.0900 N.3    15  MET15      -0.1245
      2  CA        29.6810    4.3680   36.1210 C.3    15  MET15       0.1570
      3  C         30.4300    3.3700   35.2380 C.2    15  MET15       0.2261
      4  O         29.8870    2.3360   34.8590 O.2    15  MET15      -0.2867
      5  CB        28.9920    5.4350   35.2550 C.3    15  MET15       0.0387
      6  CG        27.6110    5.0380   34.7590 C.3    15  MET15       0.0595
      7  SD        26.3390    4.9740   36.0490 S.3    15  MET15      -0.1393
      8  CE        25.1490    3.8950   35.2380 C.3    15  MET15       0.0692
      9  N         26.4310    9.6570   28.7310 N.3   103  ASN103     -0.1240
     10  CA        25.1700   10.3880   28.5990 C.3   103  ASN103      0.1653
     11  C         25.3550   11.5090   27.5870 C.2   103  ASN103      0.2266
     12  O         25.6110   12.6740   27.9330 O.2   103  ASN103     -0.2867
     13  CB        24.7080   10.9150   29.9630 C.3   103  ASN103      0.1155
     14  CG        24.1900    9.8020   30.8720 C.2   103  ASN103      0.2627
     15  OD1       23.7210    8.7580   30.3980 O.2   103  ASN103     -0.2716
     16  ND2       24.2570   10.0250   32.1780 N.am  103  ASN103     -0.0877
     17  N         22.8590    3.9350   29.0410 N.3   128  VAL128     -0.1231
     18  CA        22.9690    2.9800   30.1220 C.3   128  VAL128      0.1692
     19  C         22.2610    3.5860   31.3190 C.2   128  VAL128      0.2593
     20  O         22.6060    4.6760   31.7540 O.2   128  VAL128     -0.2718
     21  CB        24.4540    2.6600   30.4650 C.3   128  VAL128      0.0266
     22  CG1       25.2470    3.9370   30.7520 C.3   128  VAL128      0.0020
     23  CG2       24.5300    1.6950   31.6390 C.3   128  VAL128      0.0020
     24  N         21.2520    2.8870   31.8360 N.am  129  SER129     -0.1938
     25  CA        20.4860    3.4020   32.9490 C.3   129  SER129      0.2055
     26  C         20.5030    2.4850   34.1710 C.2   129  SER129      0.2644
     27  O         20.7060    1.2700   34.0660 O.2   129  SER129     -0.2714
     28  CB        19.0360    3.6690   32.5090 C.3   129  SER129      0.2130
     29  OG        18.4280    4.6280   33.3710 O.3   129  SER129     -0.2179
     30  N         20.2630    3.0930   35.3300 N.am  130  GLY130     -0.1939
     31  CA        20.1630    2.3820   36.6070 C.3   130  GLY130      0.2014
     32  C         20.9780    2.9700   37.7320 C.2   130  GLY130      0.2639
     33  O         20.9380    2.4560   38.8560 O.2   130  GLY130     -0.2714
     34  N         21.7340    4.0310   37.4420 N.am  131  GLY131     -0.1954
     35  CA        22.6540    4.6020   38.4220 C.3   131  GLY131      0.1869
     36  C         23.8260    3.6590   38.6370 C.2   131  GLY131      0.2309
     37  O         24.0140    2.7060   37.8630 O.2   131  GLY131     -0.2863
     38  N         17.4520    7.2290   25.6280 N.3   183  LYS183     -0.1245
     39  CA        18.0440    7.4830   26.9320 C.3   183  LYS183      0.1561
     40  C         17.7120    8.9000   27.4170 C.2   183  LYS183      0.2260
     41  O         17.3330    9.0960   28.5540 O.2   183  LYS183     -0.2867
     42  CB        19.5630    7.2780   26.8650 C.3   183  LYS183      0.0271
     43  CG        20.3360    7.6450   28.1430 C.3   183  LYS183      0.0035
     44  CD        19.7880    6.9060   29.3600 C.3   183  LYS183      0.0206
     45  CE        20.7490    6.9500   30.5360 C.3   183  LYS183      0.1093
     46  NZ        20.7550    8.2450   31.2740 N.3   183  LYS183     -0.1314
     47  N         14.0700    8.9040   28.3880 N.3   186  HIS186     -0.1226
     48  CA        14.0130    8.2300   29.6750 C.3   186  HIS186      0.1752
     49  C         14.3440    9.1490   30.8560 C.2   186  HIS186      0.2596
     50  O         13.7030    9.0860   31.9170 O.2   186  HIS186     -0.2718
     51  CB        14.9680    7.0310   29.6950 C.3   186  HIS186      0.0759
     52  CG        15.2360    6.5230   31.0740 C.ar  186  HIS186      0.0818
     53  ND1       16.1500    7.1200   31.9200 N.ar  186  HIS186     -0.2268
     54  CD2       14.6630    5.5170   31.7820 C.ar  186  HIS186      0.1154
     55  CE1       16.1350    6.4900   33.0820 C.ar  186  HIS186      0.1986
     56  NE2       15.2350    5.5220   33.0270 N.ar  186  HIS186     -0.2212
     57  N         15.3760    9.9680   30.6870 N.am  187  ASN187     -0.1974
     58  CA        15.7700   10.9090   31.7340 C.3   187  ASN187      0.1688
     59  C         14.7370   12.0340   31.9140 C.2   187  ASN187      0.2292
     60  O         14.5450   12.5470   33.0250 O.2   187  ASN187     -0.2864
     61  CB        17.1640   11.4790   31.4530 C.3   187  ASN187      0.1181
     62  CG        18.2800   10.4700   31.7070 C.2   187  ASN187      0.2629
     63  OD1       18.0950    9.4520   32.3910 O.2   187  ASN187     -0.2716
     64  ND2       19.4590   10.7690   31.1750 N.am  187  ASN187     -0.0877
     65  N         11.8300   10.5150   33.9030 N.3   190  GLU190     -0.1231
     66  CA        12.2910   10.3710   35.2820 C.3   190  GLU190      0.1699
     67  C         12.1300   11.6480   36.0940 C.2   190  GLU190      0.2592
     68  O         11.7040   11.6030   37.2490 O.2   190  GLU190     -0.2718
     69  CB        13.7550    9.9250   35.2560 C.3   190  GLU190      0.0402
     70  CG        14.4980    9.8870   36.6000 C.3   190  GLU190      0.1161
     71  CD        16.0190    9.8080   36.3980 C.2   190  GLU190      0.3649
     72  OE1       16.4830    8.9310   35.6290 O.co2 190  GLU190     -0.2457
     73  OE2       16.7450   10.6290   36.9970 O.co2 190  GLU190     -0.2457
     74  N         12.4630   12.7870   35.4920 N.am  191  TYR191     -0.1976
     75  CA        12.2990   14.0620   36.1440 C.3   191  TYR191      0.1639
     76  C         10.8060   14.2430   36.3970 C.2   191  TYR191      0.2290
     77  O         10.3870   14.5840   37.4940 O.2   191  TYR191     -0.2864
     78  CB        12.8450   15.2060   35.2840 C.3   191  TYR191      0.0560
     79  CG        14.3480   15.4290   35.3680 C.ar  191  TYR191     -0.0198
     80  CD1       15.2370   14.3610   35.3830 C.ar  191  TYR191     -0.0009
     81  CD2       14.8790   16.7100   35.4250 C.ar  191  TYR191     -0.0009
     82  CE1       16.6210   14.5610   35.4480 C.ar  191  TYR191      0.0417
     83  CE2       16.2790   16.9230   35.4900 C.ar  191  TYR191      0.0417
     84  CZ        17.1320   15.8380   35.5010 C.ar  191  TYR191      0.1957
     85  OH        18.5070   16.0120   35.5590 O.3   191  TYR191     -0.2866
     86  N          9.4430   11.9660   39.3820 N.3   194  MET194     -0.1245
     87  CA         9.8920   12.4870   40.6690 C.3   194  MET194      0.1570
     88  C          9.1470   13.7540   41.0790 C.2   194  MET194      0.2261
     89  O          8.8390   13.9410   42.2580 O.2   194  MET194     -0.2867
     90  CB        11.4000   12.7610   40.6190 C.3   194  MET194      0.0387
     91  CG        12.2350   11.4880   40.5230 C.3   194  MET194      0.0595
     92  SD        13.9390   11.7390   40.0340 S.3   194  MET194     -0.1393
     93  CE        14.6770   12.1630   41.6160 C.3   194  MET194      0.0692
     94  N         19.1180   19.7760   42.7420 N.3   259  GLY259     -0.1210
     95  CA        20.1380   19.7720   41.7140 C.3   259  GLY259      0.1956
     96  C         19.6310   19.0570   40.4740 C.2   259  GLY259      0.2612
     97  O         18.5870   18.3900   40.4890 O.2   259  GLY259     -0.2717
     98  N         20.3630   19.2290   39.3870 N.am  260  GLN260     -0.1965
     99  CA        20.1140   18.4850   38.1710 C.3   260  GLN260      0.1733
    100  C         21.3280   18.6150   37.2790 C.2   260  GLN260      0.2616
    101  O         21.9810   19.6610   37.2590 O.2   260  GLN260     -0.2715
    102  CB        18.8520   18.9880   37.4430 C.3   260  GLN260      0.0408
    103  CG        18.9810   20.3260   36.6970 C.3   260  GLN260      0.0908
    104  CD        17.7060   20.6740   35.9500 C.2   260  GLN260      0.2608
    105  OE1       16.7550   21.1940   36.5370 O.2   260  GLN260     -0.2717
    106  NE2       17.6740   20.3820   34.6520 N.am  260  GLN260     -0.0878
    107  N         21.6330   17.5590   36.5330 N.am  261  LYS261     -0.1977
    108  CA        22.7080   17.6370   35.5390 C.3   261  LYS261      0.1596
    109  C         22.2550   18.5490   34.4010 C.2   261  LYS261      0.2287
    110  O         21.0530   18.8090   34.2240 O.2   261  LYS261     -0.2864
    111  CB        23.1100   16.2430   35.0090 C.3   261  LYS261      0.0298
    112  CG        24.3870   15.6730   35.6370 C.3   261  LYS261      0.0038
    113  CD        24.2360   15.4060   37.1410 C.3   261  LYS261      0.0206
    114  CE        25.6040   15.2780   37.8200 C.3   261  LYS261      0.1093
    115  NZ        25.5140   15.0350   39.2980 N.3   261  LYS261     -0.1314
    116  N         22.1890   17.7150   31.5010 N.3   263  THR263     -0.1218
    117  CA        21.4510   16.8950   30.5270 C.3   263  THR263      0.1862
    118  C         19.9300   16.8800   30.7820 C.2   263  THR263      0.2287
    119  O         19.1570   16.4420   29.9130 O.2   263  THR263     -0.2866
    120  CB        21.9650   15.4460   30.5260 C.3   263  THR263      0.1770
    121  OG1       21.4930   14.7810   31.7040 O.3   263  THR263     -0.2211
    122  CG2       23.4920   15.4130   30.4940 C.3   263  THR263      0.0375
    123  N         12.5500   22.2730   39.2410 N.3   288  ARG288     -0.1245
    124  CA        13.8870   22.1250   39.8160 C.3   288  ARG288      0.1563
    125  C         14.6730   23.4280   39.8730 C.2   288  ARG288      0.2260
    126  O         15.3560   23.7130   40.8750 O.2   288  ARG288     -0.2867
    127  CB        14.7000   21.0670   39.0820 C.3   288  ARG288      0.0307
    128  CG        14.3110   19.6550   39.4740 C.3   288  ARG288      0.0489
    129  CD        15.4190   18.6520   39.2160 C.3   288  ARG288      0.2205
    130  NE        14.9100   17.2790   39.2500 N.pl3 288  ARG288     -0.0865
    131  CZ        15.6660   16.1930   39.1000 C.cat 288  ARG288      0.5346
    132  NH1       16.9790   16.3060   38.9200 N.pl3 288  ARG288      0.1354
    133  NH2       15.1040   14.9870   39.1440 N.pl3 288  ARG288      0.1354
    134  N         15.8260    3.6420   36.1070 N.3   367  ILE367     -0.1245
    135  CA        15.3120    4.3360   37.3070 C.3   367  ILE367      0.1561
    136  C         13.7800    4.4960   37.3010 C.2   367  ILE367      0.2260
    137  O         13.1350    4.4730   38.3610 O.2   367  ILE367     -0.2867
    138  CB        15.9970    5.7420   37.4690 C.3   367  ILE367      0.0252
    139  CG1       17.5410    5.6100   37.5990 C.3   367  ILE367      0.0019
    140  CG2       15.3900    6.5340   38.6410 C.3   367  ILE367      0.0019
    141  CD1       18.0190    4.8570   38.8230 C.3   367  ILE367      0.0001
@<TRIPOS>BOND
     1    38    39    1
     2    42    39    1
     3    42    43    1
     4    39    40    1
     5    40    41    2
     6    11    12    2
     7    11    10    1
     8    43    44    1
     9    47    48    1
    10    10     9    1
    11    10    13    1
    12    17    18    1
    13    44    45    1
    14    48    51    1
    15    48    49    1
    16    51    52    1
    17   119   118    2
    18    13    14    1
    19    18    21    1
    20    18    19    1
    21    15    14    2
    22    21    22    1
    23    21    23    1
    24   122   120    1
    25   120   117    1
    26   120   121    1
    27   117   118    1
    28   117   116    1
    29    45    46    1
    30    57    49   am
    31    57    58    1
    32    49    50    2
    33    14    16   am
    34    52    54   ar
    35    52    53   ar
    36    64    62   am
    37    19    20    2
    38    19    24   am
    39    61    62    1
    40    61    58    1
    41    62    63    2
    42    58    59    1
    43    54    56   ar
    44    24    25    1
    45    59    60    2
    46    53    55   ar
    47    28    25    1
    48    28    29    1
    49    25    26    1
    50    56    55   ar
    51    65    66    1
    52    27    26    2
    53    26    30   am
    54   110   109    2
    55   109   108    1
    56   106   104   am
    57     6     5    1
    58     6     7    1
    59     4     3    2
    60   111   108    1
    61   111   112    1
    62     8     7    1
    63     3     2    1
    64     5     2    1
    65    69    66    1
    66    69    70    1
    67    66    67    1
    68    78    79    1
    69    78    75    1
    70    30    31    1
    71    79    80   ar
    72    79    81   ar
    73    80    82   ar
    74    81    83   ar
    75    82    84   ar
    76    83    84   ar
    77    74    67   am
    78    74    75    1
    79    84    85    1
    80   108   107    1
    81    72    71   ar
    82   112   113    1
    83   104   105    2
    84   104   103    1
    85    67    68    2
    86   134   135    1
    87     2     1    1
    88    75    76    1
    89    76    77    2
    90    71    70    1
    91    71    73   ar
    92   107   100   am
    93    31    32    1
    94   103   102    1
    95   113   114    1
    96   101   100    2
    97   100    99    1
    98   136   135    1
    99   136   137    2
   100   135   138    1
   101    34    32   am
   102    34    35    1
   103   102    99    1
   104   138   139    1
   105   138   140    1
   106   139   141    1
   107    32    33    2
   108   114   115    1
   109    37    36    2
   110    99    98    1
   111    35    36    1
   112   132   131    1
   113   127   128    1
   114   127   124    1
   115   131   133    1
   116   131   130    2
   117   129   130    1
   118   129   128    1
   119   123   124    1
   120    86    87    1
   121    98    96   am
   122   124   125    1
   123   125   126    2
   124    92    91    1
   125    92    93    1
   126    96    97    2
   127    96    95    1
   128    91    90    1
   129    90    87    1
   130    87    88    1
   131    88    89    2
   132    95    94    1
