@<TRIPOS>MOLECULE
tmp/2w92A00.pdb
 145 142 0 0 0
SMALL
GASTEIGER

@<TRIPOS>ATOM
      1  N        -14.5600   -3.9450  -24.1110 N.3    57  LEU57      -0.1245
      2  CA       -13.6330   -2.8980  -24.5890 C.3    57  LEU57       0.1561
      3  C        -13.8510   -2.8020  -26.0730 C.2    57  LEU57       0.2260
      4  O        -13.2900   -3.6180  -26.8190 O.2    57  LEU57      -0.2867
      5  CB       -12.1760   -3.2670  -24.2990 C.3    57  LEU57       0.0270
      6  CG       -11.6630   -2.9890  -22.8800 C.3    57  LEU57       0.0019
      7  CD1      -12.6140   -3.4000  -21.7410 C.3    57  LEU57       0.0001
      8  CD2      -10.2430   -3.5960  -22.7580 C.3    57  LEU57       0.0001
      9  N        -13.3440    2.4400  -26.3630 N.3    92  TRP92      -0.1241
     10  CA       -11.9030    2.2140  -26.5350 C.3    92  TRP92       0.1605
     11  C        -11.1540    3.2970  -27.2930 C.2    92  TRP92       0.2264
     12  O         -9.9600    3.4660  -27.0660 O.2    92  TRP92      -0.2867
     13  CB       -11.6510    0.8710  -27.2390 C.3    92  TRP92       0.0550
     14  CG       -10.2620    0.3540  -27.1510 C.ar   92  TRP92       0.0003
     15  CD1       -9.4380    0.0830  -28.1900 C.ar   92  TRP92       0.0946
     16  CD2       -9.5360    0.0110  -25.9480 C.ar   92  TRP92       0.0152
     17  NE1       -8.2020   -0.3870  -27.7190 N.ar   92  TRP92      -0.2442
     18  CE2       -8.2510   -0.4600  -26.3520 C.ar   92  TRP92       0.0810
     19  CE3       -9.8430    0.0550  -24.5830 C.ar   92  TRP92       0.0012
     20  CZ2       -7.2670   -0.8510  -25.4230 C.ar   92  TRP92       0.0191
     21  CZ3       -8.8520   -0.3530  -23.6560 C.ar   92  TRP92       0.0001
     22  CH2       -7.6040   -0.8400  -24.0980 C.ar   92  TRP92       0.0015
     23  N         -5.3110    6.0410  -22.5920 N.3   117  PHE117     -0.1241
     24  CA        -4.3950    5.1140  -23.2250 C.3   117  PHE117      0.1605
     25  C         -2.9880    5.7240  -23.2610 C.2   117  PHE117      0.2264
     26  O         -2.8140    6.7940  -23.8680 O.2   117  PHE117     -0.2867
     27  CB        -4.8360    4.7350  -24.6290 C.3   117  PHE117      0.0534
     28  CG        -3.8620    3.8330  -25.3530 C.ar  117  PHE117     -0.0203
     29  CD1       -3.2490    2.7530  -24.7140 C.ar  117  PHE117     -0.0042
     30  CD2       -3.5150    4.0730  -26.6530 C.ar  117  PHE117     -0.0042
     31  CE1       -2.3270    1.9220  -25.3950 C.ar  117  PHE117     -0.0003
     32  CE2       -2.6110    3.2400  -27.3120 C.ar  117  PHE117     -0.0003
     33  CZ        -2.0410    2.1640  -26.6800 C.ar  117  PHE117     -0.0000
     34  N          2.1740    1.7210  -25.9980 N.3   120  TRP120     -0.1241
     35  CA         3.1110    0.6130  -25.8300 C.3   120  TRP120      0.1605
     36  C          4.4300    1.1590  -26.4200 C.2   120  TRP120      0.2264
     37  O          4.6340    1.1620  -27.6250 O.2   120  TRP120     -0.2867
     38  CB         2.5810   -0.6550  -26.5410 C.3   120  TRP120      0.0550
     39  CG         3.2600   -1.9570  -26.1760 C.ar  120  TRP120      0.0003
     40  CD1        2.7930   -2.9100  -25.3280 C.ar  120  TRP120      0.0946
     41  CD2        4.5270   -2.4450  -26.6530 C.ar  120  TRP120      0.0152
     42  NE1        3.6810   -3.9500  -25.2280 N.ar  120  TRP120     -0.2442
     43  CE2        4.7560   -3.6860  -26.0310 C.ar  120  TRP120      0.0810
     44  CE3        5.4700   -1.9590  -27.5470 C.ar  120  TRP120      0.0012
     45  CZ2        5.8870   -4.4480  -26.2880 C.ar  120  TRP120      0.0191
     46  CZ3        6.6140   -2.7120  -27.7870 C.ar  120  TRP120      0.0001
     47  CH2        6.7910   -3.9480  -27.1790 C.ar  120  TRP120      0.0015
     48  N        -11.2490    3.5560  -18.2650 N.3   161  PHE161     -0.1241
     49  CA       -10.2910    2.4440  -18.3640 C.3   161  PHE161      0.1605
     50  C         -8.9040    3.0190  -18.6140 C.2   161  PHE161      0.2264
     51  O         -8.7070    3.8020  -19.5630 O.2   161  PHE161     -0.2867
     52  CB       -10.6760    1.5600  -19.5330 C.3   161  PHE161      0.0534
     53  CG        -9.9440    0.2590  -19.5600 C.ar  161  PHE161     -0.0203
     54  CD1      -10.5450   -0.9060  -19.1120 C.ar  161  PHE161     -0.0042
     55  CD2       -8.6350    0.2090  -20.0220 C.ar  161  PHE161     -0.0042
     56  CE1       -9.8440   -2.1160  -19.1150 C.ar  161  PHE161     -0.0003
     57  CE2       -7.9360   -0.9940  -20.0620 C.ar  161  PHE161     -0.0003
     58  CZ        -8.5620   -2.1530  -19.5810 C.ar  161  PHE161     -0.0000
     59  N         -5.1590    2.1790  -19.7060 N.3   163  ASN163     -0.1240
     60  CA        -4.2870    1.2070  -20.3710 C.3   163  ASN163      0.1653
     61  C         -2.8690    1.7790  -20.3310 C.2   163  ASN163      0.2266
     62  O         -2.5070    2.5660  -21.1810 O.2   163  ASN163     -0.2867
     63  CB        -4.7060    0.9140  -21.8160 C.3   163  ASN163      0.1155
     64  CG        -4.0290   -0.3550  -22.3770 C.2   163  ASN163      0.2627
     65  OD1       -3.3760   -1.1240  -21.6190 O.2   163  ASN163     -0.2716
     66  ND2       -4.1450   -0.5780  -23.6650 N.am  163  ASN163     -0.0877
     67  N          0.5550    1.2490  -20.9200 N.3   165  GLU165     -0.1245
     68  CA         1.5320    0.3700  -21.6100 C.3   165  GLU165      0.1567
     69  C          2.9270    1.0220  -21.8330 C.2   165  GLU165      0.2260
     70  O          3.8070    0.3970  -22.4570 O.2   165  GLU165     -0.2867
     71  CB         0.9730   -0.1160  -22.9580 C.3   165  GLU165      0.0388
     72  CG        -0.3500   -0.8650  -22.8830 C.3   165  GLU165      0.1160
     73  CD        -0.2530   -2.2470  -22.3050 C.2   165  GLU165      0.3649
     74  OE1        0.8520   -2.8170  -22.2670 O.co2 165  GLU165     -0.2457
     75  OE2       -1.3300   -2.8120  -21.9150 O.co2 165  GLU165     -0.2457
     76  N         -5.7060   -1.9120  -16.6900 N.3   201  TYR201     -0.1241
     77  CA        -5.0980   -2.9840  -17.4730 C.3   201  TYR201      0.1605
     78  C         -3.8510   -3.5380  -16.7680 C.2   201  TYR201      0.2264
     79  O         -3.0010   -2.7900  -16.2650 O.2   201  TYR201     -0.2867
     80  CB        -4.7470   -2.5710  -18.9180 C.3   201  TYR201      0.0534
     81  CG        -4.6860   -3.7700  -19.8540 C.ar  201  TYR201     -0.0201
     82  CD1       -5.7380   -4.0730  -20.7050 C.ar  201  TYR201     -0.0009
     83  CD2       -3.5870   -4.6270  -19.8540 C.ar  201  TYR201     -0.0009
     84  CE1       -5.6840   -5.2080  -21.5620 C.ar  201  TYR201      0.0417
     85  CE2       -3.5140   -5.7310  -20.6550 C.ar  201  TYR201      0.0417
     86  CZ        -4.5450   -6.0240  -21.5390 C.ar  201  TYR201      0.1957
     87  OH        -4.4380   -7.1410  -22.3370 O.3   201  TYR201     -0.2866
     88  N          3.1480   -7.8840  -18.0450 N.3   212  HIS212     -0.1241
     89  CA         1.8420   -8.5520  -17.9180 C.3   212  HIS212      0.1621
     90  C          2.0100   -9.7870  -17.0650 C.2   212  HIS212      0.2264
     91  O          2.8070  -10.6910  -17.4020 O.2   212  HIS212     -0.2867
     92  CB         1.2200   -8.9650  -19.2700 C.3   212  HIS212      0.0745
     93  CG         1.2450   -7.8990  -20.3390 C.ar  212  HIS212      0.0817
     94  ND1        0.5770   -6.6910  -20.2360 N.ar  212  HIS212     -0.2268
     95  CD2        1.8200   -7.9030  -21.5610 C.ar  212  HIS212      0.1154
     96  CE1        0.7790   -5.9870  -21.3340 C.ar  212  HIS212      0.1986
     97  NE2        1.4930   -6.7180  -22.1720 N.ar  212  HIS212     -0.2212
     98  N         -4.3490   -9.6530  -18.5010 N.3   239  ASN239     -0.1225
     99  CA        -3.8380   -9.9750  -19.8350 C.3   239  ASN239      0.1785
    100  C         -4.2340  -11.4010  -20.3140 C.2   239  ASN239      0.2597
    101  O         -4.5470  -12.2780  -19.5050 O.2   239  ASN239     -0.2718
    102  CB        -2.3120   -9.7380  -19.9230 C.3   239  ASN239      0.1169
    103  CG        -1.8250   -9.6680  -21.3520 C.2   239  ASN239      0.2627
    104  OD1       -2.3410   -8.8740  -22.1700 O.2   239  ASN239     -0.2716
    105  ND2       -0.8690  -10.5630  -21.6900 N.am  239  ASN239     -0.0877
    106  N         -4.1600  -11.6120  -21.6270 N.am  240  PHE240     -0.1976
    107  CA        -4.8330  -12.7230  -22.2900 C.3   240  PHE240      0.1639
    108  C         -4.2500  -14.1040  -22.0030 C.2   240  PHE240      0.2290
    109  O         -4.9330  -15.1050  -22.2070 O.2   240  PHE240     -0.2864
    110  CB        -4.7970  -12.4890  -23.8030 C.3   240  PHE240      0.0560
    111  CG        -5.3550  -11.1320  -24.2070 C.ar  240  PHE240     -0.0200
    112  CD1       -6.7030  -10.8720  -24.0070 C.ar  240  PHE240     -0.0042
    113  CD2       -4.5230  -10.1290  -24.6590 C.ar  240  PHE240     -0.0042
    114  CE1       -7.2400   -9.6230  -24.3310 C.ar  240  PHE240     -0.0003
    115  CE2       -5.0150   -8.8560  -24.9610 C.ar  240  PHE240     -0.0003
    116  CZ        -6.3780   -8.6190  -24.8230 C.ar  240  PHE240     -0.0000
    117  N         -9.0010  -12.1520  -26.2250 N.3   269  GLU269     -0.1245
    118  CA        -8.4610  -11.3730  -27.3740 C.3   269  GLU269      0.1567
    119  C         -9.2880  -11.7060  -28.5920 C.2   269  GLU269      0.2260
    120  O         -9.0090  -12.7010  -29.2980 O.2   269  GLU269     -0.2867
    121  CB        -6.9890  -11.7090  -27.6590 C.3   269  GLU269      0.0388
    122  CG        -6.0820  -10.5370  -28.0640 C.3   269  GLU269      0.1160
    123  CD        -6.4000   -9.7960  -29.3390 C.2   269  GLU269      0.3649
    124  OE1       -5.4890   -9.0440  -29.8000 O.co2 269  GLU269     -0.2457
    125  OE2       -7.5170   -9.8900  -29.8910 O.co2 269  GLU269     -0.2457
    126  N        -10.0080   -9.8920  -31.2610 N.3   271  GLN271     -0.1245
    127  CA        -9.6660   -9.2650  -32.5370 C.3   271  GLN271      0.1566
    128  C         -8.8330  -10.2700  -33.3410 C.2   271  GLN271      0.2260
    129  O         -9.2110  -10.6910  -34.4470 O.2   271  GLN271     -0.2867
    130  CB        -8.9030   -7.9510  -32.3200 C.3   271  GLN271      0.0367
    131  CG        -8.5500   -7.2730  -33.6350 C.3   271  GLN271      0.0905
    132  CD        -8.1800   -5.8100  -33.4880 C.2   271  GLN271      0.2608
    133  OE1       -7.1370   -5.4630  -32.8940 O.2   271  GLN271     -0.2717
    134  NE2       -9.0160   -4.9270  -34.0790 N.am  271  GLN271     -0.0878
    135  N        -11.9640   -8.1040  -25.1270 N.3   299  PHE299     -0.1241
    136  CA       -11.1660   -7.1980  -25.9190 C.3   299  PHE299      0.1605
    137  C        -11.6090   -7.1580  -27.4070 C.2   299  PHE299      0.2264
    138  O        -11.4550   -8.1480  -28.1160 O.2   299  PHE299     -0.2867
    139  CB        -9.6600   -7.4530  -25.8350 C.3   299  PHE299      0.0534
    140  CG        -8.8790   -6.4210  -26.5940 C.ar  299  PHE299     -0.0203
    141  CD1       -8.9100   -5.0770  -26.2190 C.ar  299  PHE299     -0.0042
    142  CD2       -8.1740   -6.7740  -27.7410 C.ar  299  PHE299     -0.0042
    143  CE1       -8.2120   -4.1080  -26.9750 C.ar  299  PHE299     -0.0003
    144  CE2       -7.4850   -5.8180  -28.4630 C.ar  299  PHE299     -0.0003
    145  CZ        -7.4840   -4.5210  -28.0720 C.ar  299  PHE299     -0.0000
@<TRIPOS>BOND
     1   129   128    2
     2   134   132   am
     3   131   132    1
     4   131   130    1
     5   132   133    2
     6   128   127    1
     7   127   130    1
     8   127   126    1
     9   125   123   ar
    10   124   123   ar
    11   123   122    1
    12   120   119    2
    13   119   118    1
    14   144   145   ar
    15   144   142   ar
    16    15    17   ar
    17    15    14   ar
    18   138   137    2
    19   145   143   ar
    20   122   121    1
    21    46    44   ar
    22    46    47   ar
    23   142   140   ar
    24    17    18   ar
    25   121   118    1
    26    37    36    2
    27    44    41   ar
    28   137   136    1
    29   118   117    1
    30    32    33   ar
    31    32    30   ar
    32    11    12    2
    33    11    10    1
    34    13    14    1
    35    13    10    1
    36    47    45   ar
    37    14    16   ar
    38   143   141   ar
    39     4     3    2
    40    33    31   ar
    41    41    39   ar
    42    41    43   ar
    43    30    28   ar
    44   140   141   ar
    45   140   139    1
    46    38    39    1
    47    38    35    1
    48    10     9    1
    49    36    35    1
    50    18    16   ar
    51    18    20   ar
    52    45    43   ar
    53    39    40   ar
    54     3     2    1
    55    43    42   ar
    56    34    35    1
    57    16    19   ar
    58   136   139    1
    59   136   135    1
    60    20    22   ar
    61    31    29   ar
    62    28    29   ar
    63    28    27    1
    64    40    42   ar
    65   115   116   ar
    66   115   113   ar
    67   116   114   ar
    68   113   111   ar
    69    27    24    1
    70     2     5    1
    71     2     1    1
    72    19    21   ar
    73   114   112   ar
    74     5     6    1
    75   111   112   ar
    76   111   110    1
    77    22    21   ar
    78    26    25    2
    79   110   107    1
    80    66    64   am
    81    25    24    1
    82    24    23    1
    83    71    72    1
    84    71    68    1
    85    72    73    1
    86     6     8    1
    87     6     7    1
    88    70    69    2
    89    64    63    1
    90    64    65    2
    91    87    86    1
    92    73    74   ar
    93    73    75   ar
    94   107   108    1
    95   107   106    1
    96   109   108    2
    97    97    95   ar
    98    97    96   ar
    99   104   103    2
   100    69    68    1
   101    63    60    1
   102   105   103   am
   103   106   100   am
   104    68    67    1
   105    84    86   ar
   106    84    82   ar
   107    95    93   ar
   108    86    85   ar
   109   103   102    1
   110    96    94   ar
   111    62    61    2
   112    82    81   ar
   113    85    83   ar
   114    60    61    1
   115    60    59    1
   116    93    94   ar
   117    93    92    1
   118   100    99    1
   119   100   101    2
   120    57    55   ar
   121    57    58   ar
   122    55    53   ar
   123   102    99    1
   124    81    83   ar
   125    81    80    1
   126    99    98    1
   127    58    56   ar
   128    51    50    2
   129    53    52    1
   130    53    54   ar
   131    52    49    1
   132    92    89    1
   133    56    54   ar
   134    80    77    1
   135    50    49    1
   136    49    48    1
   137    88    89    1
   138    89    90    1
   139    77    78    1
   140    77    76    1
   141    91    90    2
   142    78    79    2
