@<TRIPOS>MOLECULE
tmp/2w93B03.pdb
 85 83 0 0 0
SMALL
GASTEIGER

@<TRIPOS>ATOM
      1  N          3.0710   20.9010   14.6610 N.3    91  HIS91      -0.1241
      2  CA         4.3980   21.3310   14.2000 C.3    91  HIS91       0.1621
      3  C          5.3390   21.5680   15.3910 C.2    91  HIS91       0.2264
      4  O          5.8630   22.6760   15.5810 O.2    91  HIS91      -0.2867
      5  CB         4.2800   22.5870   13.3210 C.3    91  HIS91       0.0745
      6  CG         3.3840   22.4190   12.1320 C.ar   91  HIS91       0.0817
      7  ND1        3.7910   22.7170   10.8520 N.ar   91  HIS91      -0.2268
      8  CD2        2.1030   21.9900   12.0300 C.ar   91  HIS91       0.1154
      9  CE1        2.8010   22.4710   10.0090 C.ar   91  HIS91       0.1986
     10  NE2        1.7660   22.0250   10.7020 N.ar   91  HIS91      -0.2212
     11  N          1.9250   29.1850   13.1860 N.3   220  CYS220     -0.1235
     12  CA         3.2340   28.8970   12.5940 C.3   220  CYS220      0.1677
     13  C          4.1910   30.0620   12.7550 C.2   220  CYS220      0.2270
     14  O          5.3990   29.9030   12.5730 O.2   220  CYS220     -0.2867
     15  CB         3.1020   28.4930   11.1460 C.3   220  CYS220      0.0956
     16  SG         2.2440   26.8630   11.0110 S.3   220  CYS220     -0.0801
     17  N          7.1660   27.8730   13.6400 N.3   224  HIS224     -0.1241
     18  CA         8.2690   27.9450   12.6780 C.3   224  HIS224      0.1621
     19  C          9.0510   29.2380   12.8930 C.2   224  HIS224      0.2264
     20  O          9.4480   29.9110   11.9460 O.2   224  HIS224     -0.2867
     21  CB         7.7800   27.7330   11.2510 C.3   224  HIS224      0.0745
     22  CG         7.3220   26.3350   11.0120 C.ar  224  HIS224      0.0817
     23  ND1        8.2000   25.2770   10.9330 N.ar  224  HIS224     -0.2268
     24  CD2        6.0790   25.8100   10.8950 C.ar  224  HIS224      0.1154
     25  CE1        7.5160   24.1580   10.7540 C.ar  224  HIS224      0.1986
     26  NE2        6.2280   24.4540   10.7330 N.ar  224  HIS224     -0.2212
     27  N          1.6960   32.6970    9.3470 N.3   285  GLY285     -0.1210
     28  CA         1.5990   31.3400    9.8600 C.3   285  GLY285      0.1956
     29  C          0.1990   30.7810   10.0740 C.2   285  GLY285      0.2612
     30  O         -0.0300   30.0970   11.0710 O.2   285  GLY285     -0.2717
     31  N         -0.7250   31.0310    9.1400 N.am  286  ALA286     -0.1965
     32  CA        -2.1310   30.6760    9.3500 C.3   286  ALA286      0.1728
     33  C         -2.2900   29.1710    9.5210 C.2   286  ALA286      0.2616
     34  O         -1.6510   28.3960    8.8060 O.2   286  ALA286     -0.2715
     35  CB        -2.9760   31.1260    8.1710 C.3   286  ALA286      0.0334
     36  N         -3.1620   28.7730   10.4490 N.am  287  LEU287     -0.1977
     37  CA        -3.5740   27.3820   10.5680 C.3   287  LEU287      0.1596
     38  C         -5.0640   27.4270   10.9090 C.2   287  LEU287      0.2287
     39  O         -5.4650   27.6000   12.0600 O.2   287  LEU287     -0.2864
     40  CB        -2.7420   26.6650   11.6190 C.3   287  LEU287      0.0297
     41  CG        -2.6360   25.1240   11.5230 C.3   287  LEU287      0.0022
     42  CD1       -1.5610   24.5660   12.4620 C.3   287  LEU287      0.0001
     43  CD2       -4.0100   24.4940   11.8350 C.3   287  LEU287      0.0001
     44  N          3.9960   31.3790    5.1200 N.3   309  HIS309     -0.1226
     45  CA         4.0680   30.0020    5.6740 C.3   309  HIS309      0.1752
     46  C          5.4900   29.4910    5.6220 C.2   309  HIS309      0.2597
     47  O          6.3170   29.9850    4.8650 O.2   309  HIS309     -0.2718
     48  CB         3.1750   29.0190    4.9130 C.3   309  HIS309      0.0759
     49  CG         1.7120   29.3130    5.0200 C.ar  309  HIS309      0.0818
     50  ND1        0.9620   28.9530    6.1160 N.ar  309  HIS309     -0.2268
     51  CD2        0.8570   29.9100    4.1560 C.ar  309  HIS309      0.1154
     52  CE1       -0.2930   29.3240    5.9270 C.ar  309  HIS309      0.1986
     53  NE2       -0.3850   29.8970    4.7400 N.ar  309  HIS309     -0.2212
     54  N          5.7830   28.4900    6.4370 N.am  310  SER310     -0.1938
     55  CA         7.1380   27.9550    6.5100 C.3   310  SER310      0.2055
     56  C          7.6540   27.3920    5.1960 C.2   310  SER310      0.2643
     57  O          8.8540   27.4390    4.9550 O.2   310  SER310     -0.2714
     58  CB         7.2250   26.8740    7.5770 C.3   310  SER310      0.2130
     59  OG         6.3340   25.8120    7.2860 O.3   310  SER310     -0.2179
     60  N          6.7570   26.8520    4.3730 N.am  311  ASP311     -0.1957
     61  CA         7.1180   26.0980    3.1770 C.3   311  ASP311      0.1840
     62  C          6.5980   26.7240    1.8910 C.2   311  ASP311      0.2622
     63  O          6.8850   26.2310    0.7980 O.2   311  ASP311     -0.2715
     64  CB         6.6180   24.6400    3.2900 C.3   311  ASP311      0.1450
     65  CG         5.0840   24.5280    3.4710 C.2   311  ASP311      0.3671
     66  OD1        4.5560   23.3920    3.3590 O.co2 311  ASP311     -0.2456
     67  OD2        4.3990   25.5480    3.7410 O.co2 311  ASP311     -0.2456
     68  N          5.8230   27.7950    2.0130 N.am  312  HIS312     -0.1973
     69  CA         5.2310   28.4410    0.8430 C.3   312  HIS312      0.1656
     70  C          4.6780   29.8210    1.1820 C.2   312  HIS312      0.2291
     71  O          4.5500   30.1890    2.3620 O.2   312  HIS312     -0.2864
     72  CB         4.1500   27.5490    0.2070 C.3   312  HIS312      0.0771
     73  CG         2.8490   27.5390    0.9500 C.ar  312  HIS312      0.0820
     74  ND1        2.6630   26.8270    2.1150 N.ar  312  HIS312     -0.2267
     75  CD2        1.6650   28.1380    0.6820 C.ar  312  HIS312      0.1154
     76  CE1        1.4220   26.9900    2.5370 C.ar  312  HIS312      0.1986
     77  NE2        0.7960   27.7820    1.6870 N.ar  312  HIS312     -0.2212
     78  N          8.8750   31.4290    4.3460 N.3   325  MET325     -0.1245
     79  CA         8.6070   32.7660    4.9080 C.3   325  MET325      0.1570
     80  C          9.7800   33.3590    5.6900 C.2   325  MET325      0.2261
     81  O          9.8980   34.5820    5.7990 O.2   325  MET325     -0.2867
     82  CB         7.3650   32.7700    5.8050 C.3   325  MET325      0.0387
     83  CG         7.4890   31.8910    7.0560 C.3   325  MET325      0.0595
     84  SD         6.0240   32.0240    8.0960 S.3   325  MET325     -0.1393
     85  CE         6.3690   30.6870    9.2470 C.3   325  MET325      0.0692
@<TRIPOS>BOND
     1    72    69    1
     2    72    73    1
     3    75    73   ar
     4    75    77   ar
     5    63    62    2
     6    69    70    1
     7    69    68    1
     8    73    74   ar
     9    70    71    2
    10    77    76   ar
    11    62    68   am
    12    62    61    1
    13    74    76   ar
    14    61    64    1
    15    61    60    1
    16    64    65    1
    17    66    65   ar
    18    65    67   ar
    19    51    53   ar
    20    51    49   ar
    21    78    79    1
    22    60    56   am
    23    53    52   ar
    24    47    46    2
    25    79    80    1
    26    79    82    1
    27    48    49    1
    28    48    45    1
    29    57    56    2
    30    49    50   ar
    31    44    45    1
    32    56    55    1
    33    46    45    1
    34    46    54   am
    35    80    81    2
    36    82    83    1
    37    52    50   ar
    38    54    55    1
    39    55    58    1
    40    83    84    1
    41    59    58    1
    42    84    85    1
    43    35    32    1
    44    34    33    2
    45    31    32    1
    46    31    29   am
    47    27    28    1
    48    32    33    1
    49    33    36   am
    50    28    29    1
    51     9    10   ar
    52     9     7   ar
    53    29    30    2
    54    36    37    1
    55    37    38    1
    56    37    40    1
    57    10     8   ar
    58    26    25   ar
    59    26    24   ar
    60    25    23   ar
    61     7     6   ar
    62    24    22   ar
    63    38    39    2
    64    23    22   ar
    65    16    15    1
    66    22    21    1
    67    15    12    1
    68    21    18    1
    69    41    40    1
    70    41    43    1
    71    41    42    1
    72    20    19    2
    73     8     6   ar
    74     6     5    1
    75    14    13    2
    76    12    13    1
    77    12    11    1
    78    18    19    1
    79    18    17    1
    80     5     2    1
    81     2     1    1
    82     2     3    1
    83     3     4    2
