@<TRIPOS>MOLECULE
tmp/2w98B04.pdb
 143 136 0 0 0
SMALL
GASTEIGER

@<TRIPOS>ATOM
      1  N         33.8070   -9.1170   -1.4390 N.3    98  THR98      -0.1218
      2  CA        34.7850   -9.7160   -0.5520 C.3    98  THR98       0.1862
      3  C         34.0720  -10.3350    0.6550 C.2    98  THR98       0.2287
      4  O         32.9320   -9.9990    0.9750 O.2    98  THR98      -0.2866
      5  CB        35.8180   -8.6930   -0.0530 C.3    98  THR98       0.1770
      6  OG1       35.1600   -7.6280    0.6510 O.3    98  THR98      -0.2211
      7  CG2       36.6130   -8.1060   -1.2200 C.3    98  THR98       0.0375
      8  N         35.6020  -12.2030    4.6670 N.3   100  PHE100     -0.1241
      9  CA        36.6450  -12.7850    5.5360 C.3   100  PHE100      0.1605
     10  C         36.4810  -14.2850    5.6750 C.2   100  PHE100      0.2264
     11  O         37.3820  -14.9640    6.1730 O.2   100  PHE100     -0.2867
     12  CB        36.5560  -12.0970    6.9130 C.3   100  PHE100      0.0534
     13  CG        37.7550  -12.2950    7.8240 C.ar  100  PHE100     -0.0203
     14  CD1       39.0210  -11.8700    7.4490 C.ar  100  PHE100     -0.0042
     15  CD2       37.5820  -12.8180    9.0930 C.ar  100  PHE100     -0.0042
     16  CE1       40.1040  -11.9900    8.2930 C.ar  100  PHE100     -0.0003
     17  CE2       38.6740  -12.9460    9.9720 C.ar  100  PHE100     -0.0003
     18  CZ        39.9370  -12.5190    9.5730 C.ar  100  PHE100     -0.0000
     19  N         30.7650   -7.8270    1.1640 N.3   116  GLU116     -0.1231
     20  CA        30.9290   -6.4030    0.9270 C.3   116  GLU116      0.1699
     21  C         31.2280   -6.1810   -0.5380 C.2   116  GLU116      0.2592
     22  O         32.1220   -6.8080   -1.0870 O.2   116  GLU116     -0.2718
     23  CB        32.0850   -5.8660    1.7750 C.3   116  GLU116      0.0402
     24  CG        31.7510   -5.7810    3.2570 C.3   116  GLU116      0.1161
     25  CD        30.7210   -4.6970    3.5790 C.2   116  GLU116      0.3649
     26  OE1       30.5860   -3.7280    2.8010 O.co2 116  GLU116     -0.2457
     27  OE2       30.0500   -4.8370    4.6170 O.co2 116  GLU116     -0.2457
     28  N         30.4640   -5.3040   -1.1840 N.am  117  LYS117     -0.1966
     29  CA        30.7610   -4.8980   -2.5390 C.3   117  LYS117      0.1728
     30  C         31.9430   -3.9360   -2.4870 C.2   117  LYS117      0.2616
     31  O         31.9800   -3.0410   -1.6420 O.2   117  LYS117     -0.2715
     32  CB        29.5280   -4.2270   -3.1690 C.3   117  LYS117      0.0311
     33  CG        29.7120   -3.7030   -4.5840 C.3   117  LYS117      0.0038
     34  CD        28.3960   -3.0960   -5.1080 C.3   117  LYS117      0.0206
     35  CE        28.6290   -2.1240   -6.2470 C.3   117  LYS117      0.1093
     36  NZ        28.9040   -2.8150   -7.5300 N.3   117  LYS117     -0.1314
     37  N         32.9090   -4.1150   -3.3850 N.am  118  VAL118     -0.1977
     38  CA        34.1120   -3.2680   -3.4230 C.3   118  VAL118      0.1596
     39  C         34.2250   -2.5620   -4.7750 C.2   118  VAL118      0.2287
     40  O         33.6850   -3.0350   -5.7730 O.2   118  VAL118     -0.2864
     41  CB        35.3840   -4.0850   -3.1090 C.3   118  VAL118      0.0276
     42  CG1       35.3600   -4.5560   -1.6300 C.3   118  VAL118      0.0022
     43  CG2       35.5440   -5.2620   -4.0720 C.3   118  VAL118      0.0022
     44  N         39.4010    1.8680   -6.6730 N.3   122  LEU122     -0.1245
     45  CA        40.2900    2.1010   -5.5240 C.3   122  LEU122      0.1561
     46  C         41.6500    1.4070   -5.6200 C.2   122  LEU122      0.2260
     47  O         42.6140    1.8290   -4.9870 O.2   122  LEU122     -0.2867
     48  CB        39.6220    1.6530   -4.2200 C.3   122  LEU122      0.0270
     49  CG        38.3940    2.4500   -3.7920 C.3   122  LEU122      0.0019
     50  CD1       37.6930    1.7540   -2.6230 C.3   122  LEU122      0.0001
     51  CD2       38.8020    3.8790   -3.4490 C.3   122  LEU122      0.0001
     52  N         42.9490   -5.7510   -2.5530 N.3   130  PHE130     -0.1227
     53  CA        41.9240   -5.7430   -1.5100 C.3   130  PHE130      0.1736
     54  C         42.1580   -6.8070   -0.4300 C.2   130  PHE130      0.2595
     55  O         41.4560   -6.8090    0.6020 O.2   130  PHE130     -0.2718
     56  CB        40.5240   -5.9060   -2.0990 C.3   130  PHE130      0.0547
     57  CG        39.9400   -4.6490   -2.7070 C.ar  130  PHE130     -0.0202
     58  CD1       39.8630   -3.4730   -1.9720 C.ar  130  PHE130     -0.0042
     59  CD2       39.4530   -4.6540   -4.0190 C.ar  130  PHE130     -0.0042
     60  CE1       39.3010   -2.3200   -2.5360 C.ar  130  PHE130     -0.0003
     61  CE2       38.8920   -3.5120   -4.5810 C.ar  130  PHE130     -0.0003
     62  CZ        38.8180   -2.3460   -3.8400 C.ar  130  PHE130     -0.0000
     63  N         43.1210   -7.7090   -0.6470 N.am  131  LEU131     -0.1980
     64  CA        43.4620   -8.7130    0.3600 C.3   131  LEU131      0.1596
     65  C         44.7630   -8.3790    1.0620 C.2   131  LEU131      0.2287
     66  O         45.1710   -9.0980    1.9620 O.2   131  LEU131     -0.2864
     67  CB        43.5460  -10.0980   -0.3010 C.3   131  LEU131      0.0297
     68  CG        42.3010  -10.5960   -1.0160 C.3   131  LEU131      0.0022
     69  CD1       42.5220  -12.0170   -1.6180 C.3   131  LEU131      0.0001
     70  CD2       41.1100  -10.6000   -0.0580 C.3   131  LEU131      0.0001
     71  N         45.6160   -2.6310    0.3830 N.3   134  ILE134     -0.1231
     72  CA        44.3400   -1.9020    0.3950 C.3   134  ILE134      0.1692
     73  C         43.2710   -2.8730    0.9100 C.2   134  ILE134      0.2593
     74  O         42.1650   -3.0010    0.3690 O.2   134  ILE134     -0.2718
     75  CB        44.0300   -1.2850   -0.9980 C.3   134  ILE134      0.0266
     76  CG1       45.2290   -0.4380   -1.4750 C.3   134  ILE134      0.0019
     77  CG2       42.7920   -0.3940   -0.9180 C.3   134  ILE134      0.0020
     78  CD1       45.0840    0.1020   -2.9120 C.3   134  ILE134      0.0001
     79  N         43.6360   -3.5630    1.9840 N.am  135  GLY135     -0.1942
     80  CA        42.8090   -4.5940    2.6040 C.3   135  GLY135      0.2014
     81  C         43.1570   -4.7110    4.0690 C.2   135  GLY135      0.2638
     82  O         43.6870   -3.7560    4.6580 O.2   135  GLY135     -0.2714
     83  N         42.9090   -5.8800    4.6640 N.am  136  MET136     -0.1976
     84  CA        43.0830   -6.0140    6.0930 C.3   136  MET136      0.1605
     85  C         44.5240   -5.7790    6.5590 C.2   136  MET136      0.2287
     86  O         44.7260   -5.0830    7.5770 O.2   136  MET136     -0.2864
     87  CB        42.5500   -7.3550    6.6020 C.3   136  MET136      0.0413
     88  CG        41.0200   -7.4650    6.5000 C.3   136  MET136      0.0598
     89  SD        40.0590   -6.0560    7.1910 S.3   136  MET136     -0.1393
     90  CE        40.6770   -6.0490    8.8560 C.3   136  MET136      0.0692
     91  N         45.1400   -2.0420    6.4940 N.3   139  LEU139     -0.1245
     92  CA        44.3470   -1.4200    7.5570 C.3   139  LEU139      0.1561
     93  C         44.9900   -1.6440    8.9060 C.2   139  LEU139      0.2260
     94  O         45.0560   -0.7390    9.7550 O.2   139  LEU139     -0.2867
     95  CB        42.9230   -1.9860    7.5540 C.3   139  LEU139      0.0270
     96  CG        42.0190   -1.4140    6.4720 C.3   139  LEU139      0.0019
     97  CD1       40.6710   -2.1500    6.5300 C.3   139  LEU139      0.0001
     98  CD2       41.8380    0.0710    6.6460 C.3   139  LEU139      0.0001
     99  N         36.5380   -1.1170   13.4440 N.3   294  LYS294     -0.1245
    100  CA        35.8040   -1.3270   12.1750 C.3   294  LYS294      0.1561
    101  C         35.2280   -0.0200   11.5970 C.2   294  LYS294      0.2260
    102  O         35.0760    0.1270   10.4040 O.2   294  LYS294     -0.2867
    103  CB        34.6610   -2.3300   12.3570 C.3   294  LYS294      0.0271
    104  CG        33.4170   -1.7300   13.0010 C.3   294  LYS294      0.0035
    105  CD        32.3180   -2.7550   13.3040 C.3   294  LYS294      0.0206
    106  CE        31.0630   -2.0600   13.8530 C.3   294  LYS294      0.1093
    107  NZ        30.1880   -2.9470   14.6950 N.3   294  LYS294     -0.1314
    108  N         37.6210    1.5410    9.0510 N.3   297  PHE297     -0.1227
    109  CA        37.9960    0.8310    7.8420 C.3   297  PHE297      0.1736
    110  C         37.7590    1.6820    6.6110 C.2   297  PHE297      0.2595
    111  O         38.5840    1.6640    5.7030 O.2   297  PHE297     -0.2718
    112  CB        37.2650   -0.4980    7.6980 C.3   297  PHE297      0.0547
    113  CG        37.6940   -1.5490    8.6950 C.ar  297  PHE297     -0.0202
    114  CD1       38.6140   -1.2780    9.7020 C.ar  297  PHE297     -0.0042
    115  CD2       37.1450   -2.8090    8.6330 C.ar  297  PHE297     -0.0042
    116  CE1       38.9870   -2.2430   10.6030 C.ar  297  PHE297     -0.0003
    117  CE2       37.5100   -3.7820    9.5540 C.ar  297  PHE297     -0.0003
    118  CZ        38.4360   -3.4960   10.5320 C.ar  297  PHE297     -0.0000
    119  N         36.6480    2.4120    6.5610 N.am  298  GLU298     -0.1979
    120  CA        36.3830    3.2730    5.4030 C.3   298  GLU298      0.1602
    121  C         37.4670    4.3340    5.1930 C.2   298  GLU298      0.2287
    122  O         38.0900    4.3830    4.1210 O.2   298  GLU298     -0.2864
    123  CB        34.9960    3.9070    5.4770 C.3   298  GLU298      0.0415
    124  CG        34.7060    4.8820    4.3380 C.3   298  GLU298      0.1163
    125  CD        33.2620    5.3100    4.3170 C.2   298  GLU298      0.3649
    126  OE1       32.8940    6.1770    5.1420 O.co2 298  GLU298     -0.2457
    127  OE2       32.5070    4.7890    3.4510 O.co2 298  GLU298     -0.2457
    128  N         40.8120    2.5560    4.2310 N.3   301  ILE301     -0.1231
    129  CA        40.8810    2.1290    2.8400 C.3   301  ILE301      0.1692
    130  C         41.0410    3.3160    1.8960 C.2   301  ILE301      0.2591
    131  O         41.8460    3.2790    0.9680 O.2   301  ILE301     -0.2718
    132  CB        39.6590    1.2690    2.4250 C.3   301  ILE301      0.0266
    133  CG1       39.7240   -0.1040    3.1220 C.3   301  ILE301      0.0019
    134  CG2       39.6130    1.0970    0.8950 C.3   301  ILE301      0.0020
    135  CD1       40.9500   -0.9710    2.7600 C.3   301  ILE301      0.0001
    136  N         40.2650    4.3620    2.1110 N.am  302  LEU302     -0.1980
    137  CA        40.3570    5.5240    1.2380 C.3   302  LEU302      0.1596
    138  C         41.7560    6.1470    1.2670 C.2   302  LEU302      0.2287
    139  O         42.2560    6.5850    0.2330 O.2   302  LEU302     -0.2864
    140  CB        39.2830    6.5480    1.6100 C.3   302  LEU302      0.0297
    141  CG        37.8480    6.0640    1.3100 C.3   302  LEU302      0.0022
    142  CD1       36.8110    7.0980    1.8200 C.3   302  LEU302      0.0001
    143  CD2       37.6230    5.7300   -0.1670 C.3   302  LEU302      0.0001
@<TRIPOS>BOND
     1    36    35    1
     2    44    45    1
     3    35    34    1
     4    40    39    2
     5    46    45    1
     6    46    47    2
     7    45    48    1
     8    34    33    1
     9    39    38    1
    10    33    32    1
    11    61    59   ar
    12    61    62   ar
    13    48    49    1
    14    43    41    1
    15    59    57   ar
    16    62    60   ar
    17    49    51    1
    18    49    50    1
    19    38    37    1
    20    38    41    1
    21    37    30   am
    22    32    29    1
    23    41    42    1
    24    78    76    1
    25    57    56    1
    26    57    58   ar
    27    52    53    1
    28    29    30    1
    29    29    28    1
    30    60    58   ar
    31    30    31    2
    32    56    53    1
    33    69    68    1
    34    53    54    1
    35    76    75    1
    36     1     2    1
    37     7     5    1
    38    28    21   am
    39    22    21    2
    40    68    67    1
    41    68    70    1
    42    75    77    1
    43    75    72    1
    44    63    54   am
    45    63    64    1
    46     2     5    1
    47     2     3    1
    48    21    20    1
    49    54    55    2
    50    67    64    1
    51   143   141    1
    52     5     6    1
    53   139   138    2
    54    64    65    1
    55    74    73    2
    56    71    72    1
    57    72    73    1
    58     3     4    2
    59   134   132    1
    60    73    79   am
    61    20    19    1
    62    20    23    1
    63   131   130    2
    64    65    66    2
    65   137   138    1
    66   137   140    1
    67   137   136    1
    68   141   140    1
    69   141   142    1
    70    23    24    1
    71   130   136   am
    72   130   129    1
    73    79    80    1
    74   132   129    1
    75   132   133    1
    76    80    81    1
    77   135   133    1
    78    26    25   ar
    79   129   128    1
    80    24    25    1
    81   127   125   ar
    82    25    27   ar
    83    81    82    2
    84    81    83   am
    85   122   121    2
    86   125   124    1
    87   125   126   ar
    88   124   123    1
    89    83    84    1
    90     8     9    1
    91   121   120    1
    92   120   123    1
    93   120   119    1
    94     9    10    1
    95     9    12    1
    96    10    11    2
    97   111   110    2
    98    84    85    1
    99    84    87    1
   100    96    97    1
   101    96    98    1
   102    96    95    1
   103    91    92    1
   104    88    87    1
   105    88    89    1
   106    85    86    2
   107   119   110   am
   108   110   109    1
   109    12    13    1
   110    89    90    1
   111    14    13   ar
   112    14    16   ar
   113    95    92    1
   114    92    93    1
   115   112   109    1
   116   112   113    1
   117    13    15   ar
   118   109   108    1
   119    16    18   ar
   120   115   113   ar
   121   115   117   ar
   122   113   114   ar
   123    93    94    2
   124    15    17   ar
   125   117   118   ar
   126    18    17   ar
   127   114   116   ar
   128   102   101    2
   129   118   116   ar
   130   101   100    1
   131   100   103    1
   132   100    99    1
   133   103   104    1
   134   104   105    1
   135   105   106    1
   136   106   107    1
