@<TRIPOS>MOLECULE
tmp/2w98B01.pdb
 184 182 0 0 0
SMALL
GASTEIGER

@<TRIPOS>ATOM
      1  N         47.0840  -16.2830    5.5440 N.3    50  ASP50      -0.1225
      2  CA        47.4170  -15.3570    6.6280 C.3    50  ASP50       0.1790
      3  C         47.9150  -16.0980    7.8680 C.2    50  ASP50       0.2440
      4  O         47.4250  -17.1800    8.1910 O.2    50  ASP50      -0.2733
      5  CB        46.1710  -14.5990    7.0430 C.3    50  ASP50       0.1423
      6  CG        45.5790  -13.7810    5.9070 C.2    50  ASP50       0.3668
      7  OD1       46.0250  -12.6240    5.7090 O.co2  50  ASP50      -0.2456
      8  OD2       44.6660  -14.3020    5.2200 O.co2  50  ASP50      -0.2456
      9  N         48.8450  -15.4790    8.6070 N.am   51  PRO51      -0.2718
     10  CA        49.3770  -16.1240    9.7840 C.3    51  PRO51       0.1535
     11  C         48.3460  -16.5610   10.8250 C.2    51  PRO51       0.2598
     12  O         48.5450  -17.6040   11.4450 O.2    51  PRO51      -0.2715
     13  CB        50.3270  -15.0670   10.3490 C.3    51  PRO51       0.0310
     14  CG        50.8740  -14.4400    9.1190 C.3    51  PRO51       0.0237
     15  CD        49.6500  -14.2990    8.2360 C.3    51  PRO51       0.0939
     16  N         47.2470  -15.8130   10.9990 N.am   52  TYR52      -0.1974
     17  CA        46.2220  -16.2080   12.0030 C.3    52  TYR52       0.1639
     18  C         45.6200  -17.5700   11.6760 C.2    52  TYR52       0.2290
     19  O         45.1300  -18.2440   12.5780 O.2    52  TYR52      -0.2864
     20  CB        45.0910  -15.1900   12.1610 C.3    52  TYR52       0.0560
     21  CG        44.0020  -15.2480   11.0680 C.ar   52  TYR52      -0.0198
     22  CD1       42.7400  -15.8160   11.2990 C.ar   52  TYR52      -0.0009
     23  CD2       44.2420  -14.7130    9.7990 C.ar   52  TYR52      -0.0009
     24  CE1       41.7500  -15.8330   10.2760 C.ar   52  TYR52       0.0417
     25  CE2       43.2820  -14.7480    8.7970 C.ar   52  TYR52       0.0417
     26  CZ        42.0440  -15.2970    9.0200 C.ar   52  TYR52       0.1957
     27  OH        41.1310  -15.3220    7.9540 O.3    52  TYR52      -0.2866
     28  N         46.4320  -20.9600   13.8190 N.3    55  CYS55      -0.1235
     29  CA        45.6740  -21.4390   14.9710 C.3    55  CYS55       0.1677
     30  C         44.3980  -22.1850   14.5790 C.2    55  CYS55       0.2270
     31  O         43.9250  -23.0150   15.3310 O.2    55  CYS55      -0.2867
     32  CB        45.3870  -20.3160   15.9590 C.3    55  CYS55       0.0956
     33  SG        44.1150  -19.1710   15.4500 S.3    55  CYS55      -0.0801
     34  N         40.5060  -18.8780   21.1310 N.3    63  THR63      -0.1218
     35  CA        39.4930  -17.8270   21.2430 C.3    63  THR63       0.1862
     36  C         38.1690  -18.2290   20.5960 C.2    63  THR63       0.2287
     37  O         38.1390  -18.8500   19.5430 O.2    63  THR63      -0.2866
     38  CB        39.9460  -16.5030   20.5860 C.3    63  THR63       0.1770
     39  OG1       38.8310  -15.5950   20.5290 O.3    63  THR63      -0.2211
     40  CG2       40.4600  -16.7540   19.1620 C.3    63  THR63       0.0375
     41  N         36.2860  -16.2830   19.0450 N.3    65  TYR65      -0.1227
     42  CA        36.0660  -15.4970   17.8250 C.3    65  TYR65       0.1736
     43  C         36.7080  -16.0820   16.5890 C.2    65  TYR65       0.2595
     44  O         36.5130  -15.5500   15.4980 O.2    65  TYR65      -0.2718
     45  CB        36.5030  -14.0440   18.0280 C.3    65  TYR65       0.0548
     46  CG        35.6280  -13.3540   19.0400 C.ar   65  TYR65      -0.0200
     47  CD1       34.3540  -12.8940   18.6900 C.ar   65  TYR65      -0.0009
     48  CD2       36.0530  -13.1790   20.3550 C.ar   65  TYR65      -0.0009
     49  CE1       33.5300  -12.2550   19.6210 C.ar   65  TYR65       0.0417
     50  CE2       35.2290  -12.5540   21.3050 C.ar   65  TYR65       0.0417
     51  CZ        33.9770  -12.0890   20.9360 C.ar   65  TYR65       0.1957
     52  OH        33.1680  -11.4730   21.8680 O.3    65  TYR65      -0.2866
     53  N         37.4740  -17.1630   16.7650 N.am   66  ILE66      -0.1980
     54  CA        38.0820  -17.8840   15.6580 C.3    66  ILE66       0.1595
     55  C         37.7390  -19.3240   15.8590 C.2    66  ILE66       0.2287
     56  O         38.0550  -19.9340   16.8650 O.2    66  ILE66      -0.2864
     57  CB        39.6080  -17.7740   15.5940 C.3    66  ILE66       0.0276
     58  CG1       40.0360  -16.3130   15.4780 C.3    66  ILE66       0.0022
     59  CG2       40.1170  -18.5740   14.3760 C.3    66  ILE66       0.0022
     60  CD1       41.5350  -16.0910   15.5500 C.3    66  ILE66       0.0001
     61  N         35.6020  -12.2030    4.6670 N.3   100  PHE100     -0.1227
     62  CA        36.6450  -12.7850    5.5360 C.3   100  PHE100      0.1736
     63  C         36.4810  -14.2850    5.6750 C.2   100  PHE100      0.2595
     64  O         37.3820  -14.9640    6.1730 O.2   100  PHE100     -0.2718
     65  CB        36.5560  -12.0970    6.9130 C.3   100  PHE100      0.0547
     66  CG        37.7550  -12.2950    7.8240 C.ar  100  PHE100     -0.0202
     67  CD1       39.0210  -11.8700    7.4490 C.ar  100  PHE100     -0.0042
     68  CD2       37.5820  -12.8180    9.0930 C.ar  100  PHE100     -0.0042
     69  CE1       40.1040  -11.9900    8.2930 C.ar  100  PHE100     -0.0003
     70  CE2       38.6740  -12.9460    9.9720 C.ar  100  PHE100     -0.0003
     71  CZ        39.9370  -12.5190    9.5730 C.ar  100  PHE100     -0.0000
     72  N         35.3160  -14.7980    5.2430 N.am  101  TYR101     -0.1976
     73  CA        34.9740  -16.1960    5.3850 C.3   101  TYR101      0.1639
     74  C         34.6300  -16.8360    4.0330 C.2   101  TYR101      0.2290
     75  O         33.6150  -17.5360    3.8810 O.2   101  TYR101     -0.2864
     76  CB        33.8070  -16.3370    6.3620 C.3   101  TYR101      0.0560
     77  CG        34.0980  -15.7930    7.7560 C.ar  101  TYR101     -0.0198
     78  CD1       35.0390  -16.4200    8.5770 C.ar  101  TYR101     -0.0009
     79  CD2       33.4290  -14.6550    8.2520 C.ar  101  TYR101     -0.0009
     80  CE1       35.3030  -15.9500    9.8500 C.ar  101  TYR101      0.0417
     81  CE2       33.7000  -14.1710    9.5510 C.ar  101  TYR101      0.0417
     82  CZ        34.6280  -14.8220   10.3250 C.ar  101  TYR101      0.1957
     83  OH        34.8910  -14.3720   11.5870 O.3   101  TYR101     -0.2866
     84  N         42.9090   -5.8800    4.6640 N.3   136  MET136     -0.1231
     85  CA        43.0830   -6.0140    6.0930 C.3   136  MET136      0.1687
     86  C         44.5240   -5.7790    6.5590 C.2   136  MET136      0.2434
     87  O         44.7260   -5.0830    7.5770 O.2   136  MET136     -0.2733
     88  CB        42.5500   -7.3550    6.6020 C.3   136  MET136      0.0400
     89  CG        41.0200   -7.4650    6.5000 C.3   136  MET136      0.0596
     90  SD        40.0590   -6.0560    7.1910 S.3   136  MET136     -0.1393
     91  CE        40.6770   -6.0490    8.8560 C.3   136  MET136      0.0692
     92  N         45.5290   -6.3070    5.8340 N.am  137  PRO137     -0.2729
     93  CA        46.8830   -6.0170    6.3350 C.3   137  PRO137      0.1401
     94  C         47.2360   -4.5350    6.3120 C.2   137  PRO137      0.2269
     95  O         47.8160   -4.0250    7.2660 O.2   137  PRO137     -0.2865
     96  CB        47.7940   -6.8480    5.4250 C.3   137  PRO137      0.0296
     97  CG        46.9190   -7.9840    5.0010 C.3   137  PRO137      0.0237
     98  CD        45.5500   -7.3720    4.8170 C.3   137  PRO137      0.0939
     99  N         45.4610   -2.8620    9.1130 N.3   140  THR140     -0.1218
    100  CA        46.1100   -3.1920   10.3840 C.3   140  THR140      0.1862
    101  C         47.2980   -2.2600   10.6150 C.2   140  THR140      0.2287
    102  O         47.4900   -1.7120   11.6980 O.2   140  THR140     -0.2866
    103  CB        46.5700   -4.6610   10.3790 C.3   140  THR140      0.1770
    104  OG1       45.4290   -5.5020   10.1930 O.3   140  THR140     -0.2211
    105  CG2       47.2590   -4.9970   11.6880 C.3   140  THR140      0.0375
    106  N         51.2260   -6.0990   16.9940 N.3   254  CYS254     -0.1221
    107  CA        50.4090   -6.5180   15.8690 C.3   254  CYS254      0.1808
    108  C         50.2500   -8.0490   15.8740 C.2   254  CYS254      0.2601
    109  O         49.1200   -8.5730   15.9100 O.2   254  CYS254     -0.2717
    110  CB        51.0330   -6.0040   14.5830 C.3   254  CYS254      0.0970
    111  SG        50.0430   -6.4060   13.1280 S.3   254  CYS254     -0.0800
    112  N         51.3800   -8.7570   15.8320 N.am  255  GLY255     -0.1957
    113  CA        51.3740  -10.2120   15.9250 C.3   255  GLY255      0.1869
    114  C         52.6640  -10.7500   16.5200 C.2   255  GLY255      0.2309
    115  O         53.5710   -9.9930   16.8380 O.2   255  GLY255     -0.2863
    116  N         53.7380  -19.0080   16.6940 N.3   260  TYR260     -0.1241
    117  CA        52.4580  -19.5650   16.2640 C.3   260  TYR260      0.1605
    118  C         52.4890  -21.0990   16.1240 C.2   260  TYR260      0.2264
    119  O         51.4400  -21.7240   16.2010 O.2   260  TYR260     -0.2867
    120  CB        51.9750  -18.9090   14.9640 C.3   260  TYR260      0.0534
    121  CG        51.5120  -17.4560   15.0740 C.ar  260  TYR260     -0.0201
    122  CD1       51.5770  -16.7500   16.2700 C.ar  260  TYR260     -0.0009
    123  CD2       51.0150  -16.7880   13.9550 C.ar  260  TYR260     -0.0009
    124  CE1       51.1870  -15.4290   16.3550 C.ar  260  TYR260      0.0417
    125  CE2       50.6130  -15.4300   14.0320 C.ar  260  TYR260      0.0417
    126  CZ        50.7040  -14.7700   15.2530 C.ar  260  TYR260      0.1957
    127  OH        50.3310  -13.4350   15.3520 O.3   260  TYR260     -0.2866
    128  N         48.2400  -16.7830   23.3350 N.3   266  TYR266     -0.1241
    129  CA        48.3660  -15.4750   22.7020 C.3   266  TYR266      0.1605
    130  C         47.5440  -14.4460   23.4950 C.2   266  TYR266      0.2264
    131  O         46.3740  -14.7040   23.7860 O.2   266  TYR266     -0.2867
    132  CB        47.8920  -15.4910   21.2290 C.3   266  TYR266      0.0534
    133  CG        48.2960  -14.2270   20.5210 C.ar  266  TYR266     -0.0201
    134  CD1       49.4970  -14.1550   19.8340 C.ar  266  TYR266     -0.0009
    135  CD2       47.5240  -13.0670   20.6130 C.ar  266  TYR266     -0.0009
    136  CE1       49.9240  -12.9750   19.2410 C.ar  266  TYR266      0.0417
    137  CE2       47.9310  -11.8730   20.0040 C.ar  266  TYR266      0.0417
    138  CZ        49.1320  -11.8390   19.3200 C.ar  266  TYR266      0.1957
    139  OH        49.5640  -10.6690   18.7460 O.3   266  TYR266     -0.2866
    140  N         47.4680   -4.8940   23.6810 N.3   287  ARG287     -0.1231
    141  CA        47.0260   -5.7700   22.6100 C.3   287  ARG287      0.1694
    142  C         46.3680   -4.8880   21.5500 C.2   287  ARG287      0.2592
    143  O         45.6910   -3.9060   21.8660 O.2   287  ARG287     -0.2718
    144  CB        46.0770   -6.8720   23.0870 C.3   287  ARG287      0.0321
    145  CG        45.8760   -7.9560   22.0030 C.3   287  ARG287      0.0489
    146  CD        45.0940   -9.1330   22.5080 C.3   287  ARG287      0.2205
    147  NE        44.8010  -10.0990   21.4500 N.pl3 287  ARG287     -0.0865
    148  CZ        44.2500  -11.2910   21.6700 C.cat 287  ARG287      0.5346
    149  NH1       43.9250  -11.6650   22.9060 N.pl3 287  ARG287      0.1354
    150  NH2       44.0320  -12.1190   20.6590 N.pl3 287  ARG287      0.1354
    151  N         46.6730   -5.1510   20.3000 N.am  288  PHE288     -0.1962
    152  CA        46.0590   -4.3940   19.2170 C.3   288  PHE288      0.1771
    153  C         45.3670   -5.3860   18.3270 C.2   288  PHE288      0.2619
    154  O         45.9910   -6.3480   17.8900 O.2   288  PHE288     -0.2715
    155  CB        47.0920   -3.6570   18.3710 C.3   288  PHE288      0.0574
    156  CG        46.5080   -3.0530   17.1050 C.ar  288  PHE288     -0.0200
    157  CD1       45.6080   -1.9980   17.1970 C.ar  288  PHE288     -0.0042
    158  CD2       46.8150   -3.5650   15.8490 C.ar  288  PHE288     -0.0042
    159  CE1       45.0280   -1.4450   16.0440 C.ar  288  PHE288     -0.0003
    160  CE2       46.2360   -3.0220   14.6870 C.ar  288  PHE288     -0.0003
    161  CZ        45.3550   -1.9680   14.7920 C.ar  288  PHE288     -0.0000
    162  N         44.0800   -5.1550   18.0990 N.am  289  LEU289     -0.1963
    163  CA        43.3020   -5.9480   17.1800 C.3   289  LEU289      0.1728
    164  C         42.6170   -4.9790   16.2210 C.2   289  LEU289      0.2616
    165  O         41.8460   -4.1330   16.6460 O.2   289  LEU289     -0.2715
    166  CB        42.2870   -6.7810   17.9550 C.3   289  LEU289      0.0311
    167  CG        41.5710   -7.8870   17.1890 C.3   289  LEU289      0.0022
    168  CD1       42.5350   -8.5880   16.2390 C.3   289  LEU289      0.0001
    169  CD2       40.9570   -8.8720   18.1720 C.3   289  LEU289      0.0001
    170  N         42.8990   -5.1190   14.9280 N.am  290  VAL290     -0.1963
    171  CA        42.3560   -4.1850   13.9350 C.3   290  VAL290      0.1727
    172  C         40.8290   -4.2250   13.9330 C.2   290  VAL290      0.2616
    173  O         40.1660   -3.2220   13.6460 O.2   290  VAL290     -0.2715
    174  CB        42.9500   -4.4530   12.5290 C.3   290  VAL290      0.0290
    175  CG1       42.4670   -5.7880   11.9480 C.3   290  VAL290      0.0023
    176  CG2       42.6130   -3.2970   11.5890 C.3   290  VAL290      0.0023
    177  N         40.2540   -5.3900   14.2350 N.am  291  LEU291     -0.1977
    178  CA        38.8020   -5.5530   14.2410 C.3   291  LEU291      0.1596
    179  C         38.0980   -4.7500   15.3430 C.2   291  LEU291      0.2287
    180  O         36.8890   -4.5970   15.3080 O.2   291  LEU291     -0.2864
    181  CB        38.4250   -7.0440   14.3100 C.3   291  LEU291      0.0297
    182  CG        38.9860   -7.9380   13.1870 C.3   291  LEU291      0.0022
    183  CD1       38.5860   -9.3860   13.4690 C.3   291  LEU291      0.0001
    184  CD2       38.5340   -7.4930   11.8230 C.3   291  LEU291      0.0001
@<TRIPOS>BOND
     1    75    74    2
     2    74    73    1
     3    84    85    1
     4    61    62    1
     5    98    97    1
     6    98    92    1
     7    97    96    1
     8     8     6   ar
     9    72    73    1
    10    72    63   am
    11    73    76    1
    12    96    93    1
    13    62    63    1
    14    62    65    1
    15     1     2    1
    16    63    64    2
    17     7     6   ar
    18    92    93    1
    19    92    86   am
    20     6     5    1
    21    85    86    1
    22    85    88    1
    23    94    93    1
    24    94    95    2
    25    76    77    1
    26    89    88    1
    27    89    90    1
    28    86    87    2
    29     2     5    1
    30     2     3    1
    31    65    66    1
    32    90    91    1
    33    67    66   ar
    34    67    69   ar
    35    77    79   ar
    36    77    78   ar
    37    66    68   ar
    38     3     4    2
    39     3     9   am
    40    27    26    1
    41    15     9    1
    42    15    14    1
    43    79    81   ar
    44    69    71   ar
    45    78    80   ar
    46     9    10    1
    47    25    26   ar
    48    25    23   ar
    49    26    24   ar
    50    68    70   ar
    51    99   100    1
    52    14    13    1
    53    81    82   ar
    54    71    70   ar
    55    10    13    1
    56    10    11    1
    57    23    21   ar
    58    80    82   ar
    59   104   103    1
    60    24    22   ar
    61    82    83    1
    62   103   100    1
    63   103   105    1
    64   100   101    1
    65   101   102    2
    66    11    16   am
    67    11    12    2
    68    16    17    1
    69    21    22   ar
    70    21    20    1
    71   176   174    1
    72    18    17    1
    73    18    19    2
    74   184   182    1
    75   175   174    1
    76    17    20    1
    77   174   171    1
    78   111   110    1
    79   182   183    1
    80   182   181    1
    81   173   172    2
    82    28    29    1
    83   172   171    1
    84   172   177   am
    85   171   170    1
    86   123   125   ar
    87   123   121   ar
    88   125   126   ar
    89   177   178    1
    90   178   181    1
    91   178   179    1
    92    59    57    1
    93    30    29    1
    94    30    31    2
    95   110   107    1
    96   160   161   ar
    97   160   158   ar
    98   161   159   ar
    99   170   164   am
   100   120   121    1
   101   120   117    1
   102    29    32    1
   103   121   122   ar
   104   126   127    1
   105   126   124   ar
   106   180   179    2
   107    33    32    1
   108    58    60    1
   109    58    57    1
   110    44    43    2
   111    57    54    1
   112    54    55    1
   113    54    53    1
   114   112   108   am
   115   112   113    1
   116   158   156   ar
   117    55    56    2
   118   107   108    1
   119   107   106    1
   120   108   109    2
   121   113   114    1
   122   159   157   ar
   123   118   119    2
   124   118   117    1
   125   164   165    2
   126   164   163    1
   127   168   167    1
   128   117   116    1
   129   122   124   ar
   130   114   115    2
   131    43    53   am
   132    43    42    1
   133   156   157   ar
   134   156   155    1
   135   163   166    1
   136   163   162    1
   137   167   166    1
   138   167   169    1
   139    42    45    1
   140    42    41    1
   141   154   153    2
   142    45    46    1
   143   162   153   am
   144   153   152    1
   145   155   152    1
   146    47    46   ar
   147    47    49   ar
   148   139   138    1
   149    46    48   ar
   150    40    38    1
   151   152   151    1
   152   136   138   ar
   153   136   134   ar
   154   138   137   ar
   155    37    36    2
   156    49    51   ar
   157   134   133   ar
   158   137   135   ar
   159   151   142   am
   160    48    50   ar
   161   133   135   ar
   162   133   132    1
   163    39    38    1
   164    38    35    1
   165    36    35    1
   166   150   148    1
   167    51    50   ar
   168    51    52    1
   169    34    35    1
   170   132   129    1
   171   147   148    2
   172   147   146    1
   173   142   143    2
   174   142   141    1
   175   148   149    1
   176   145   146    1
   177   145   144    1
   178   141   144    1
   179   141   140    1
   180   129   128    1
   181   129   130    1
   182   130   131    2
