@<TRIPOS>MOLECULE
tmp/2w9hA00.pdb
 116 108 0 0 0
SMALL
GASTEIGER

@<TRIPOS>ATOM
      1  N          9.2250    2.0080    9.5470 N.3     5  LEU5       -0.1231
      2  CA         8.2380    0.9650    9.7970 C.3     5  LEU5        0.1693
      3  C          8.1670    0.8060   11.3110 C.2     5  LEU5        0.2592
      4  O          9.1800    0.4980   11.9390 O.2     5  LEU5       -0.2718
      5  CB         8.7180   -0.3370    9.1450 C.3     5  LEU5        0.0284
      6  CG         7.8670   -1.5990    9.2550 C.3     5  LEU5        0.0019
      7  CD1        6.4420   -1.3240    8.8120 C.3     5  LEU5        0.0001
      8  CD2        8.5080   -2.6780    8.3790 C.3     5  LEU5        0.0001
      9  N          6.9990    1.0630   11.9010 N.am    6  VAL6       -0.1966
     10  CA         6.8690    1.0790   13.3610 C.3     6  VAL6        0.1727
     11  C          5.4480    0.7200   13.7860 C.2     6  VAL6        0.2616
     12  O          4.4820    1.0410   13.0800 O.2     6  VAL6       -0.2715
     13  CB         7.2620    2.4690   13.9530 C.3     6  VAL6        0.0290
     14  CG1        6.3240    3.5660   13.4610 C.3     6  VAL6        0.0023
     15  CG2        7.2870    2.4280   15.4740 C.3     6  VAL6        0.0023
     16  N          5.3370    0.0730   14.9430 N.am    7  ALA7       -0.1977
     17  CA         4.0580   -0.0620   15.6480 C.3     7  ALA7        0.1597
     18  C          4.1790    0.6940   16.9610 C.2     7  ALA7        0.2287
     19  O          5.0930    0.4150   17.7390 O.2     7  ALA7       -0.2864
     20  CB         3.7720   -1.5310   15.9310 C.3     7  ALA7        0.0319
     21  N          6.6110    2.0050   22.1580 N.3    14  ILE14      -0.1245
     22  CA         7.0790    1.0130   21.1980 C.3    14  ILE14       0.1561
     23  C          7.7600   -0.1820   21.8580 C.2    14  ILE14       0.2260
     24  O          8.3130   -1.0450   21.1810 O.2    14  ILE14      -0.2867
     25  CB         8.0310    1.6160   20.1330 C.3    14  ILE14       0.0252
     26  CG1        9.2800    2.2220   20.7810 C.3    14  ILE14       0.0019
     27  CG2        7.2860    2.6180   19.2570 C.3    14  ILE14       0.0019
     28  CD1       10.2870    2.7490   19.7630 C.3    14  ILE14       0.0001
     29  N         11.9410   -4.5560   26.7910 N.3    18  ASN18      -0.1225
     30  CA        12.5380   -5.0730   25.5720 C.3    18  ASN18       0.1785
     31  C         11.6420   -5.9140   24.6760 C.2    18  ASN18       0.2597
     32  O         12.1220   -6.6330   23.7960 O.2    18  ASN18      -0.2718
     33  CB        13.8680   -5.7700   25.8300 C.3    18  ASN18       0.1169
     34  CG        14.7790   -5.7110   24.6270 C.2    18  ASN18       0.2627
     35  OD1       14.6770   -4.7980   23.8030 O.2    18  ASN18      -0.2716
     36  ND2       15.6650   -6.6830   24.5070 N.am   18  ASN18      -0.0877
     37  N         10.3390   -5.7970   24.8880 N.am   19  GLN19      -0.1965
     38  CA         9.3590   -6.5270   24.0910 C.3    19  GLN19       0.1733
     39  C          8.2150   -5.6070   23.6900 C.2    19  GLN19       0.2616
     40  O          7.9980   -4.5710   24.3050 O.2    19  GLN19      -0.2715
     41  CB         8.7870   -7.6800   24.9050 C.3    19  GLN19       0.0408
     42  CG         9.8420   -8.5400   25.5780 C.3    19  GLN19       0.0908
     43  CD         9.3190   -9.2280   26.8280 C.2    19  GLN19       0.2608
     44  OE1        9.7680   -8.9460   27.9490 O.2    19  GLN19      -0.2717
     45  NE2        8.3700  -10.1420   26.6440 N.am   19  GLN19      -0.0878
     46  N          7.4740   -6.0000   22.6670 N.am   20  LEU20      -0.1977
     47  CA         6.2010   -5.3510   22.3820 C.3    20  LEU20       0.1596
     48  C          5.1880   -5.6910   23.4790 C.2    20  LEU20       0.2287
     49  O          4.9950   -6.8630   23.7920 O.2    20  LEU20      -0.2864
     50  CB         5.6790   -5.8190   21.0220 C.3    20  LEU20       0.0297
     51  CG         6.5940   -5.5220   19.8350 C.3    20  LEU20       0.0022
     52  CD1        6.0430   -6.1720   18.5720 C.3    20  LEU20       0.0001
     53  CD2        6.7280   -4.0150   19.6670 C.3    20  LEU20       0.0001
     54  N         -0.0380   -7.4580   12.9080 N.3    27  ASP27      -0.1225
     55  CA         0.9900   -6.4550   12.6640 C.3    27  ASP27       0.1805
     56  C          2.2530   -7.1110   12.1200 C.2    27  ASP27       0.2597
     57  O          2.8880   -6.5850   11.2050 O.2    27  ASP27      -0.2718
     58  CB         1.3120   -5.6550   13.9310 C.3    27  ASP27       0.1424
     59  CG         2.5300   -4.7650   13.7480 C.2    27  ASP27       0.3668
     60  OD1        2.4590   -3.8080   12.9420 O.co2  27  ASP27      -0.2456
     61  OD2        3.5700   -5.0480   14.3770 O.co2  27  ASP27      -0.2456
     62  N          2.6200   -8.2660   12.6710 N.am   28  LEU28      -0.1979
     63  CA         3.7930   -8.9600   12.1590 C.3    28  LEU28       0.1596
     64  C          3.6080   -9.3950   10.6960 C.2    28  LEU28       0.2287
     65  O          4.5580   -9.3850    9.9130 O.2    28  LEU28      -0.2864
     66  CB         4.1790  -10.1330   13.0730 C.3    28  LEU28       0.0297
     67  CG         4.2860   -9.7420   14.5580 C.3    28  LEU28       0.0022
     68  CD1        4.8170  -10.8940   15.4100 C.3    28  LEU28       0.0001
     69  CD2        5.1450   -8.4890   14.7390 C.3    28  LEU28       0.0001
     70  N          4.1990   -6.3310    8.6010 N.3    31  VAL31      -0.1245
     71  CA         5.6410   -6.1970    8.4440 C.3    31  VAL31       0.1561
     72  C          6.1760   -7.1380    7.3550 C.2    31  VAL31       0.2260
     73  O          6.9700   -6.7210    6.5150 O.2    31  VAL31      -0.2867
     74  CB         6.3770   -6.4560    9.7790 C.3    31  VAL31       0.0252
     75  CG1        7.8830   -6.6080    9.5350 C.3    31  VAL31       0.0019
     76  CG2        6.1060   -5.3200   10.7720 C.3    31  VAL31       0.0019
     77  N         16.9810   -3.9290   19.1340 N.3    46  THR46      -0.1218
     78  CA        15.8630   -4.4810   18.4000 C.3    46  THR46       0.1862
     79  C         16.2360   -5.8260   17.7870 C.2    46  THR46       0.2287
     80  O         15.4460   -6.7810   17.8350 O.2    46  THR46      -0.2866
     81  CB        15.3660   -3.4930   17.3330 C.3    46  THR46       0.1770
     82  OG1       14.8160   -2.3480   17.9940 O.3    46  THR46      -0.2211
     83  CG2       14.2880   -4.1240   16.4530 C.3    46  THR46       0.0375
     84  N         16.1300   -8.4280   20.3730 N.3    49  SER49      -0.1202
     85  CA        14.7200   -8.7580   20.6360 C.3    49  SER49       0.2020
     86  C         14.1140   -9.7690   19.6500 C.2    49  SER49       0.2618
     87  O         13.4270  -10.7060   20.0620 O.2    49  SER49      -0.2717
     88  CB        13.8620   -7.4890   20.7050 C.3    49  SER49       0.2103
     89  OG        12.6780   -7.7210   21.4480 O.3    49  SER49      -0.2182
     90  N         14.3600   -9.5920   18.3550 N.am   50  ILE50      -0.1979
     91  CA        13.8540  -10.5470   17.3680 C.3    50  ILE50       0.1595
     92  C         14.6750  -11.8360   17.3510 C.2    50  ILE50       0.2287
     93  O         14.1990  -12.8790   16.8920 O.2    50  ILE50      -0.2864
     94  CB        13.7170   -9.9380   15.9500 C.3    50  ILE50       0.0276
     95  CG1       15.0830   -9.5560   15.3800 C.3    50  ILE50       0.0022
     96  CG2       12.7850   -8.7330   15.9720 C.3    50  ILE50       0.0022
     97  CD1       15.0680   -9.2400   13.8870 C.3    50  ILE50       0.0001
     98  N         14.8640  -11.7630   10.1640 N.3    54  LEU54      -0.1245
     99  CA        13.5920  -12.1060    9.5540 C.3    54  LEU54       0.1561
    100  C         13.8550  -12.6790    8.1730 C.2    54  LEU54       0.2260
    101  O         14.6530  -12.1310    7.4120 O.2    54  LEU54      -0.2867
    102  CB        12.6870  -10.8770    9.4830 C.3    54  LEU54       0.0270
    103  CG        12.1760  -10.4160   10.8530 C.3    54  LEU54       0.0019
    104  CD1       11.3850   -9.1170   10.7470 C.3    54  LEU54       0.0001
    105  CD2       11.3430  -11.4970   11.5390 C.3    54  LEU54       0.0001
    106  N         13.6260    0.1000   11.0940 N.3    92  PHE92      -0.1241
    107  CA        12.8120   -0.8610   11.8510 C.3    92  PHE92       0.1605
    108  C         12.8680   -0.6090   13.3610 C.2    92  PHE92       0.2264
    109  O         12.1630   -1.2540   14.1220 O.2    92  PHE92      -0.2867
    110  CB        13.3220   -2.2670   11.5380 C.3    92  PHE92       0.0534
    111  CG        12.3350   -3.3810   11.7920 C.ar   92  PHE92      -0.0203
    112  CD1       11.0570   -3.3590   11.2420 C.ar   92  PHE92      -0.0042
    113  CD2       12.7250   -4.4930   12.5270 C.ar   92  PHE92      -0.0042
    114  CE1       10.1770   -4.4210   11.4530 C.ar   92  PHE92      -0.0003
    115  CE2       11.8510   -5.5520   12.7400 C.ar   92  PHE92      -0.0003
    116  CZ        10.5840   -5.5190   12.1930 C.ar   92  PHE92      -0.0000
@<TRIPOS>BOND
     1    73    72    2
     2    72    71    1
     3   101   100    2
     4   100    99    1
     5     8     6    1
     6    71    70    1
     7    71    74    1
     8     7     6    1
     9     5     6    1
    10     5     2    1
    11   102    99    1
    12   102   103    1
    13    75    74    1
    14     1     2    1
    15    99    98    1
    16    74    76    1
    17     2     3    1
    18    65    64    2
    19    64    63    1
    20   104   103    1
    21   103   105    1
    22   106   107    1
    23    57    56    2
    24   112   114   ar
    25   112   111   ar
    26     3     9   am
    27     3     4    2
    28   114   116   ar
    29   110   111    1
    30   110   107    1
    31   111   113   ar
    32   107   108    1
    33     9    10    1
    34    56    55    1
    35    56    62   am
    36    63    62    1
    37    63    66    1
    38   116   115   ar
    39   113   115   ar
    40    55    54    1
    41    55    58    1
    42    60    59   ar
    43    66    67    1
    44    12    11    2
    45    10    11    1
    46    10    13    1
    47   108   109    2
    48    14    13    1
    49    59    58    1
    50    59    61   ar
    51    11    16   am
    52    97    95    1
    53    13    15    1
    54    67    69    1
    55    67    68    1
    56    16    17    1
    57    95    94    1
    58    17    20    1
    59    17    18    1
    60    94    96    1
    61    94    91    1
    62    83    81    1
    63    93    92    2
    64    18    19    2
    65    81    82    1
    66    81    78    1
    67    92    91    1
    68    91    90    1
    69    79    80    2
    70    79    78    1
    71    90    86   am
    72    78    77    1
    73    52    51    1
    74    27    25    1
    75    86    87    2
    76    86    85    1
    77    53    51    1
    78    28    26    1
    79    51    50    1
    80    25    26    1
    81    25    22    1
    82    84    85    1
    83    85    88    1
    84    88    89    1
    85    50    47    1
    86    24    23    2
    87    22    23    1
    88    22    21    1
    89    47    46    1
    90    47    48    1
    91    46    39   am
    92    48    49    2
    93    39    38    1
    94    39    40    2
    95    32    31    2
    96    35    34    2
    97    38    37    1
    98    38    41    1
    99    36    34   am
   100    34    33    1
   101    31    37   am
   102    31    30    1
   103    41    42    1
   104    30    33    1
   105    30    29    1
   106    42    43    1
   107    45    43   am
   108    43    44    2
