@<TRIPOS>MOLECULE
tmp/2w9lH00.pdb
 105 100 0 0 0
SMALL
GASTEIGER

@<TRIPOS>ATOM
      1  N        -40.6310   13.0010  -44.6090 N.3    17  ILE17      -0.1231
      2  CA       -41.9990   13.4810  -44.3890 C.3    17  ILE17       0.1692
      3  C        -41.8790   14.4740  -43.2380 C.2    17  ILE17       0.2592
      4  O        -41.4990   14.0830  -42.1180 O.2    17  ILE17      -0.2718
      5  CB       -42.9870   12.3550  -43.9410 C.3    17  ILE17       0.0266
      6  CG1      -42.9190   11.1410  -44.8580 C.3    17  ILE17       0.0019
      7  CG2      -44.4340   12.8720  -43.8790 C.3    17  ILE17       0.0020
      8  CD1      -43.5700    9.9260  -44.2460 C.3    17  ILE17       0.0001
      9  N        -42.1830   15.7430  -43.5030 N.am   18  ASN18      -0.1974
     10  CA       -42.0400   16.8050  -42.4990 C.3    18  ASN18       0.1688
     11  C        -40.6020   17.0300  -42.0170 C.2    18  ASN18       0.2292
     12  O        -40.2880   16.8750  -40.8320 O.2    18  ASN18      -0.2864
     13  CB       -42.9810   16.5640  -41.3100 C.3    18  ASN18       0.1181
     14  CG       -44.4370   16.5260  -41.7390 C.2    18  ASN18       0.2629
     15  OD1      -45.0450   17.5820  -42.0260 O.2    18  ASN18      -0.2716
     16  ND2      -45.0080   15.3080  -41.8170 N.am   18  ASN18      -0.0877
     17  N        -42.3020    5.5340  -38.3520 N.3    48  TYR48      -0.1241
     18  CA       -42.7360    4.8280  -39.5560 C.3    48  TYR48       0.1605
     19  C        -42.2450    3.3650  -39.6630 C.2    48  TYR48       0.2264
     20  O        -42.4120    2.7360  -40.7140 O.2    48  TYR48      -0.2867
     21  CB       -42.3220    5.6320  -40.8070 C.3    48  TYR48       0.0534
     22  CG       -43.1740    6.8690  -41.0260 C.ar   48  TYR48      -0.0201
     23  CD1      -44.3040    6.8230  -41.8230 C.ar   48  TYR48      -0.0009
     24  CD2      -42.8600    8.0800  -40.4180 C.ar   48  TYR48      -0.0009
     25  CE1      -45.0980    7.9510  -42.0200 C.ar   48  TYR48       0.0417
     26  CE2      -43.6500    9.2170  -40.6150 C.ar   48  TYR48       0.0417
     27  CZ       -44.7700    9.1460  -41.4130 C.ar   48  TYR48       0.1957
     28  OH       -45.5620   10.2640  -41.6090 O.3    48  TYR48      -0.2866
     29  N        -53.0570    4.9600  -40.9180 N.3    55  GLN55      -0.1231
     30  CA       -51.9650    5.7790  -41.4780 C.3    55  GLN55       0.1698
     31  C        -52.4470    6.5970  -42.6550 C.2    55  GLN55       0.2593
     32  O        -53.0140    6.0560  -43.6020 O.2    55  GLN55      -0.2718
     33  CB       -50.8130    4.8980  -41.9630 C.3    55  GLN55       0.0381
     34  CG       -49.7530    5.5850  -42.8650 C.3    55  GLN55       0.0905
     35  CD       -48.8560    6.5530  -42.1070 C.2    55  GLN55       0.2608
     36  OE1      -48.5900    6.3580  -40.9200 O.2    55  GLN55      -0.2717
     37  NE2      -48.3730    7.5960  -42.7950 N.am   55  GLN55      -0.0878
     38  N        -52.2000    7.8970  -42.6230 N.am   56  SER56      -0.1938
     39  CA       -52.6680    8.7400  -43.7130 C.3    56  SER56       0.2055
     40  C        -51.6660    8.6530  -44.8660 C.2    56  SER56       0.2643
     41  O        -50.4550    8.5200  -44.6520 O.2    56  SER56      -0.2714
     42  CB       -52.9310   10.1850  -43.2600 C.3    56  SER56       0.2130
     43  OG       -51.7620   10.9780  -43.3790 O.3    56  SER56      -0.2179
     44  N        -52.1930    8.7230  -46.0850 N.am   57  GLN57      -0.1963
     45  CA       -51.4030    8.5590  -47.3010 C.3    57  GLN57       0.1733
     46  C        -50.3370    9.6450  -47.4440 C.2    57  GLN57       0.2616
     47  O        -50.4620   10.7140  -46.8350 O.2    57  GLN57      -0.2715
     48  CB       -52.3400    8.5380  -48.5230 C.3    57  GLN57       0.0408
     49  CG       -52.8780    9.8980  -49.0020 C.3    57  GLN57       0.0908
     50  CD       -53.9120   10.5000  -48.0800 C.2    57  GLN57       0.2608
     51  OE1      -54.7240    9.7790  -47.4970 O.2    57  GLN57      -0.2717
     52  NE2      -53.8950   11.8280  -47.9450 N.am   57  GLN57      -0.0878
     53  N        -49.2960    9.3770  -48.2390 N.am   58  PHE58      -0.1960
     54  CA       -48.2380   10.3840  -48.4770 C.3    58  PHE58       0.1771
     55  C        -47.4330   10.1620  -49.7660 C.2    58  PHE58       0.2620
     56  O        -47.3600    9.0550  -50.2920 O.2    58  PHE58      -0.2715
     57  CB       -47.2850   10.4590  -47.2890 C.3    58  PHE58       0.0574
     58  CG       -46.5600    9.1910  -47.0370 C.ar   58  PHE58      -0.0200
     59  CD1      -45.3580    8.9330  -47.6580 C.ar   58  PHE58      -0.0042
     60  CD2      -47.0890    8.2350  -46.2100 C.ar   58  PHE58      -0.0042
     61  CE1      -44.6970    7.7490  -47.4430 C.ar   58  PHE58      -0.0003
     62  CE2      -46.4180    7.0570  -45.9850 C.ar   58  PHE58      -0.0003
     63  CZ       -45.2270    6.8130  -46.6050 C.ar   58  PHE58      -0.0000
     64  N        -46.8100   11.2380  -50.2380 N.am   59  SER59      -0.1950
     65  CA       -45.9870   11.2200  -51.4510 C.3    59  SER59       0.1924
     66  C        -44.5230   11.4700  -51.1200 C.2    59  SER59       0.2314
     67  O        -44.1930   12.3680  -50.3360 O.2    59  SER59      -0.2863
     68  CB       -46.4330   12.3090  -52.4280 C.3    59  SER59       0.2116
     69  OG       -47.6200   11.9630  -53.0950 O.3    59  SER59      -0.2180
     70  N        -41.6290   12.7080  -53.3340 N.3    61  ILE61      -0.1245
     71  CA       -41.3100   13.2680  -54.6530 C.3    61  ILE61       0.1561
     72  C        -39.7800   13.4330  -54.8460 C.2    61  ILE61       0.2260
     73  O        -39.0830   14.0080  -53.9890 O.2    61  ILE61      -0.2867
     74  CB       -42.0230   14.6180  -54.9080 C.3    61  ILE61       0.0252
     75  CG1      -43.5170   14.5160  -54.5440 C.3    61  ILE61       0.0019
     76  CG2      -41.8760   15.0170  -56.3660 C.3    61  ILE61       0.0019
     77  CD1      -44.3210   15.8530  -54.5920 C.3    61  ILE61       0.0001
     78  N        -38.7400   15.2690  -51.5210 N.3    75  ASN75      -0.1240
     79  CA       -38.7410   14.4140  -50.3190 C.3    75  ASN75       0.1653
     80  C        -37.5530   13.5020  -50.3120 C.2    75  ASN75       0.2266
     81  O        -37.0620   13.1260  -49.2540 O.2    75  ASN75      -0.2867
     82  CB       -39.9560   13.4980  -50.2570 C.3    75  ASN75       0.1155
     83  CG       -41.2310   14.2390  -50.2470 C.2    75  ASN75       0.2627
     84  OD1      -41.7850   14.5280  -51.2990 O.2    75  ASN75      -0.2716
     85  ND2      -41.7370   14.5220  -49.0670 N.am   75  ASN75      -0.0877
     86  N        -43.9220   20.1750  -59.9280 N.3   145  LYS145     -0.1245
     87  CA       -43.5920   20.5410  -58.5540 C.3   145  LYS145      0.1561
     88  C        -42.4950   21.5880  -58.5690 C.2   145  LYS145      0.2260
     89  O        -41.4100   21.3350  -59.0820 O.2   145  LYS145     -0.2867
     90  CB       -43.1100   19.3110  -57.7980 C.3   145  LYS145      0.0271
     91  CG       -42.6940   19.5610  -56.3600 C.3   145  LYS145      0.0035
     92  CD       -43.8920   19.6490  -55.4380 C.3   145  LYS145      0.0206
     93  CE       -43.4470   19.6540  -53.9610 C.3   145  LYS145      0.1093
     94  NZ       -44.4660   20.2860  -53.0490 N.3   145  LYS145     -0.1314
     95  N        -46.1690    7.4340  -54.2700 N.3   155  ARG155     -0.1245
     96  CA       -47.2660    7.8240  -53.3970 C.3   155  ARG155      0.1563
     97  C        -47.8910    6.5750  -52.7970 C.2   155  ARG155      0.2260
     98  O        -48.3800    5.7070  -53.5210 O.2   155  ARG155     -0.2867
     99  CB       -48.3030    8.6240  -54.1780 C.3   155  ARG155      0.0307
    100  CG       -49.5510    8.9710  -53.4110 C.3   155  ARG155      0.0489
    101  CD       -50.3250   10.0520  -54.1670 C.3   155  ARG155      0.2205
    102  NE       -51.4710   10.5970  -53.4420 N.pl3 155  ARG155     -0.0865
    103  CZ       -51.3760   11.4390  -52.4150 C.cat 155  ARG155      0.5346
    104  NH1      -50.1920   11.8090  -51.9350 N.pl3 155  ARG155      0.1354
    105  NH2      -52.4850   11.8810  -51.8320 N.pl3 155  ARG155      0.1354
@<TRIPOS>BOND
     1    86    87    1
     2    89    88    2
     3    88    87    1
     4    87    90    1
     5    90    91    1
     6    76    74    1
     7    91    92    1
     8    92    93    1
     9    74    71    1
    10    74    75    1
    11    72    71    1
    12    72    73    2
    13    71    70    1
    14    77    75    1
    15    95    96    1
    16    99   100    1
    17    99    96    1
    18   101   102    1
    19   101   100    1
    20    93    94    1
    21    98    97    2
    22   102   103    2
    23    96    97    1
    24    69    68    1
    25    68    65    1
    26   103   104    1
    27   103   105    1
    28    78    79    1
    29    65    66    1
    30    65    64    1
    31    84    83    2
    32    66    67    2
    33    79    80    1
    34    79    82    1
    35    80    81    2
    36    56    55    2
    37    82    83    1
    38    83    85   am
    39    64    55   am
    40    55    54    1
    41    49    48    1
    42    49    50    1
    43    48    45    1
    44    54    53    1
    45    54    57    1
    46    53    46   am
    47    50    52   am
    48    50    51    2
    49    59    61   ar
    50    59    58   ar
    51    46    45    1
    52    46    47    2
    53    61    63   ar
    54    45    44    1
    55    57    58    1
    56    58    60   ar
    57    63    62   ar
    58    60    62   ar
    59    44    40   am
    60    40    41    2
    61    40    39    1
    62     6     8    1
    63     6     5    1
    64     1     2    1
    65     2     5    1
    66     2     3    1
    67     5     7    1
    68    39    42    1
    69    39    38    1
    70    32    31    2
    71     9     3   am
    72     9    10    1
    73    43    42    1
    74     3     4    2
    75    34    35    1
    76    34    33    1
    77    37    35   am
    78    31    38   am
    79    31    30    1
    80    10    11    1
    81    10    13    1
    82    35    36    2
    83    15    14    2
    84    25    23   ar
    85    25    27   ar
    86    11    12    2
    87    33    30    1
    88    23    22   ar
    89    16    14   am
    90    14    13    1
    91    28    27    1
    92    30    29    1
    93    27    26   ar
    94    22    21    1
    95    22    24   ar
    96    21    18    1
    97    20    19    2
    98    26    24   ar
    99    19    18    1
   100    18    17    1
