@<TRIPOS>MOLECULE
tmp/2w9rA00.pdb
 107 105 0 0 0
SMALL
GASTEIGER

@<TRIPOS>ATOM
      1  N         22.5920    6.3440   -3.8830 N.3    23  ASN23      -0.1225
      2  CA        21.4850    6.8520   -3.0780 C.3    23  ASN23       0.1785
      3  C         20.1390    6.4360   -3.6480 C.2    23  ASN23       0.2597
      4  O         19.9950    6.2180   -4.8530 O.2    23  ASN23      -0.2718
      5  CB        21.5320    8.3820   -2.9570 C.3    23  ASN23       0.1169
      6  CG        20.5100    8.9270   -1.9630 C.2    23  ASN23       0.2627
      7  OD1       20.4150    8.4480   -0.8420 O.2    23  ASN23      -0.2716
      8  ND2       19.7470    9.9470   -2.3800 N.am   23  ASN23      -0.0877
      9  N         19.1670    6.3010   -2.7580 N.am   24  ASP24      -0.1960
     10  CA        17.7620    6.1720   -3.1530 C.3    24  ASP24       0.1840
     11  C         16.9120    6.7600   -2.0350 C.2    24  ASP24       0.2622
     12  O         17.4170    6.9720   -0.9230 O.2    24  ASP24      -0.2715
     13  CB        17.3930    4.7130   -3.4520 C.3    24  ASP24       0.1450
     14  CG        17.4190    3.8410   -2.2290 C.2    24  ASP24       0.3671
     15  OD1       16.5780    4.0600   -1.3220 O.co2  24  ASP24      -0.2456
     16  OD2       18.2520    2.9170   -2.1790 O.co2  24  ASP24      -0.2456
     17  N         15.6360    7.0290   -2.3230 N.am   25  ASP25      -0.1957
     18  CA        14.7550    7.6970   -1.3500 C.3    25  ASP25       0.1840
     19  C         14.0070    6.7700   -0.3760 C.2    25  ASP25       0.2622
     20  O         13.0660    7.2200    0.3020 O.2    25  ASP25      -0.2715
     21  CB        13.7250    8.5880   -2.0780 C.3    25  ASP25       0.1450
     22  CG        14.3610    9.5650   -3.0580 C.2    25  ASP25       0.3671
     23  OD1       15.4350   10.1330   -2.7670 O.co2  25  ASP25      -0.2456
     24  OD2       13.7700    9.7740   -4.1310 O.co2  25  ASP25      -0.2456
     25  N         14.4110    5.4950   -0.2980 N.am   26  TYR26      -0.1960
     26  CA        13.6660    4.4710    0.4570 C.3    26  TYR26       0.1771
     27  C         14.4600    3.6760    1.4960 C.2    26  TYR26       0.2620
     28  O         13.9000    3.2220    2.5030 O.2    26  TYR26      -0.2715
     29  CB        12.9700    3.5140   -0.5070 C.3    26  TYR26       0.0574
     30  CG        12.0470    4.2600   -1.4140 C.ar   26  TYR26      -0.0198
     31  CD1       10.7670    4.5950   -0.9950 C.ar   26  TYR26      -0.0009
     32  CD2       12.4780    4.6930   -2.6710 C.ar   26  TYR26      -0.0009
     33  CE1        9.9220    5.3200   -1.8150 C.ar   26  TYR26       0.0417
     34  CE2       11.6450    5.4210   -3.4950 C.ar   26  TYR26       0.0417
     35  CZ        10.3650    5.7260   -3.0590 C.ar   26  TYR26       0.1957
     36  OH         9.5230    6.4410   -3.8670 O.3    26  TYR26      -0.2866
     37  N         15.7590    3.5380    1.2590 N.am   27  THR27      -0.1937
     38  CA        16.6350    2.8210    2.1690 C.3    27  THR27       0.2013
     39  C         16.9500    3.6630    3.3920 C.2    27  THR27       0.2484
     40  O         17.3710    4.8250    3.2540 O.2    27  THR27      -0.2729
     41  CB        17.9390    2.4180    1.4890 C.3    27  THR27       0.1807
     42  OG1       17.6270    1.6760    0.3090 O.3    27  THR27      -0.2208
     43  CG2       18.8040    1.5620    2.4240 C.3    27  THR27       0.0379
     44  N         16.7090    3.0940    4.5830 N.am   28  PRO28      -0.2715
     45  CA        17.0210    3.7580    5.8450 C.3    28  PRO28       0.1536
     46  C         18.5070    4.0510    5.9960 C.2    28  PRO28       0.2598
     47  O         19.3490    3.2330    5.6200 O.2    28  PRO28      -0.2715
     48  CB        16.5820    2.7310    6.8950 C.3    28  PRO28       0.0310
     49  CG        15.5520    1.9320    6.2260 C.3    28  PRO28       0.0237
     50  CD        16.0490    1.7990    4.8140 C.3    28  PRO28       0.0939
     51  N         18.8160    5.2330    6.5280 N.am   29  MET29      -0.1964
     52  CA        20.1960    5.6140    6.8140 C.3    29  MET29       0.1736
     53  C         20.8650    4.5730    7.7100 C.2    29  MET29       0.2616
     54  O         21.9980    4.1670    7.4630 O.2    29  MET29      -0.2715
     55  CB        20.2410    6.9990    7.4660 C.3    29  MET29       0.0427
     56  CG        19.9880    8.1450    6.5060 C.3    29  MET29       0.0599
     57  SD        20.0140    9.7400    7.3520 S.3    29  MET29      -0.1393
     58  CE        19.7040   10.8700    5.9980 C.3    29  MET29       0.0692
     59  N         20.1560    4.1520    8.7560 N.am   30  GLU30      -0.1977
     60  CA        20.6600    3.1020    9.6430 C.3    30  GLU30       0.1602
     61  C         21.0510    1.8120    8.9190 C.2    30  GLU30       0.2287
     62  O         22.0140    1.1540    9.3040 O.2    30  GLU30      -0.2864
     63  CB        19.6730    2.8140   10.7650 C.3    30  GLU30       0.0415
     64  CG        19.7510    3.8260   11.8940 C.3    30  GLU30       0.1163
     65  CD        21.1770    4.2520   12.2220 C.2    30  GLU30       0.3649
     66  OE1       21.9610    3.4230   12.7410 O.co2  30  GLU30      -0.2457
     67  OE2       21.5120    5.4310   11.9660 O.co2  30  GLU30      -0.2457
     68  N         22.1900    1.5520    5.7880 N.3    32  VAL32      -0.1245
     69  CA        23.4280    1.8230    5.0660 C.3    32  VAL32       0.1561
     70  C         24.6160    1.7710    6.0300 C.2    32  VAL32       0.2260
     71  O         25.6870    1.2650    5.6810 O.2    32  VAL32      -0.2867
     72  CB        23.3340    3.1690    4.3120 C.3    32  VAL32       0.0252
     73  CG1       24.6660    3.5400    3.6780 C.3    32  VAL32       0.0019
     74  CG2       22.2120    3.0890    3.2350 C.3    32  VAL32       0.0019
     75  N         27.7880    7.0830    4.8020 N.3    51  MET51      -0.1245
     76  CA        26.3320    7.0290    4.6090 C.3    51  MET51       0.1570
     77  C         25.8160    8.4280    4.3050 C.2    51  MET51       0.2261
     78  O         24.9980    8.6130    3.4000 O.2    51  MET51      -0.2867
     79  CB        25.6380    6.4300    5.8410 C.3    51  MET51       0.0387
     80  CG        24.1010    6.4950    5.8340 C.3    51  MET51       0.0595
     81  SD        23.4100    8.1050    6.2810 S.3    51  MET51      -0.1393
     82  CE        23.7680    8.1470    8.0380 C.3    51  MET51       0.0692
     83  N         26.6460    9.1740    0.7780 N.3    54  VAL54      -0.1231
     84  CA        25.6200    8.5500   -0.0820 C.3    54  VAL54       0.1692
     85  C         24.3900    9.4720   -0.2070 C.2    54  VAL54       0.2592
     86  O         23.9750    9.8130   -1.3200 O.2    54  VAL54      -0.2718
     87  CB        25.2240    7.1130    0.4140 C.3    54  VAL54       0.0266
     88  CG1       24.0520    6.5270   -0.4040 C.3    54  VAL54       0.0020
     89  CG2       26.4210    6.1620    0.3770 C.3    54  VAL54       0.0020
     90  N         23.8590    9.9140    0.9350 N.am   55  HIS55      -0.1976
     91  CA        22.6240   10.6940    0.9950 C.3    55  HIS55       0.1656
     92  C         22.7710   12.0600    0.3260 C.2    55  HIS55       0.2291
     93  O         21.9490   12.4400   -0.5050 O.2    55  HIS55      -0.2864
     94  CB        22.1740   10.8510    2.4600 C.3    55  HIS55       0.0771
     95  CG        20.8810   11.5870    2.6290 C.ar   55  HIS55       0.0820
     96  ND1       20.8240   12.9240    2.9730 N.ar   55  HIS55      -0.2267
     97  CD2       19.5980   11.1870    2.4730 C.ar   55  HIS55       0.1154
     98  CE1       19.5610   13.3080    3.0360 C.ar   55  HIS55       0.1986
     99  NE2       18.7970   12.2730    2.7390 N.ar   55  HIS55      -0.2212
    100  N         18.3520   -0.4950   -2.1610 N.3    88  LEU88      -0.1245
    101  CA        19.7430   -0.0530   -2.1520 C.3    88  LEU88       0.1561
    102  C         20.5510   -0.8000   -3.1890 C.2    88  LEU88       0.2260
    103  O         20.5950   -2.0450   -3.1680 O.2    88  LEU88      -0.2867
    104  CB        20.3650   -0.2610   -0.7700 C.3    88  LEU88       0.0270
    105  CG        21.8380    0.1440   -0.5870 C.3    88  LEU88       0.0019
    106  CD1       22.0410    1.6710   -0.7920 C.3    88  LEU88       0.0001
    107  CD2       22.3640   -0.2830    0.7840 C.3    88  LEU88       0.0001
@<TRIPOS>BOND
     1     4     3    2
     2    24    22   ar
     3     1     2    1
     4    36    35    1
     5     3     2    1
     6     3     9   am
     7    34    35   ar
     8    34    32   ar
     9    13    10    1
    10    13    14    1
    11   102   103    2
    12   102   101    1
    13    10     9    1
    14    10    11    1
    15     2     5    1
    16    35    33   ar
    17    22    23   ar
    18    22    21    1
    19     5     6    1
    20    32    30   ar
    21     8     6   am
    22    17    11   am
    23    17    18    1
    24    14    16   ar
    25    14    15   ar
    26   100   101    1
    27   101   104    1
    28    21    18    1
    29    11    12    2
    30     6     7    2
    31    33    31   ar
    32    30    31   ar
    33    30    29    1
    34    18    19    1
    35    86    85    2
    36   106   105    1
    37   104   105    1
    38   105   107    1
    39    29    26    1
    40    93    92    2
    41    88    87    1
    42    19    25   am
    43    19    20    2
    44    25    26    1
    45    85    84    1
    46    85    90   am
    47    84    87    1
    48    84    83    1
    49    42    41    1
    50    92    91    1
    51    89    87    1
    52    26    27    1
    53    90    91    1
    54    91    94    1
    55    37    27   am
    56    37    38    1
    57    41    38    1
    58    41    43    1
    59    27    28    2
    60    38    39    1
    61    94    95    1
    62    97    95   ar
    63    97    99   ar
    64    95    96   ar
    65    99    98   ar
    66    96    98   ar
    67    74    72    1
    68    40    39    2
    69    39    44   am
    70    78    77    2
    71    73    72    1
    72    77    76    1
    73    72    69    1
    74    44    50    1
    75    44    45    1
    76    76    75    1
    77    76    79    1
    78    50    49    1
    79    69    68    1
    80    69    70    1
    81    47    46    2
    82    71    70    2
    83    80    79    1
    84    80    81    1
    85    45    46    1
    86    45    48    1
    87    46    51   am
    88    58    57    1
    89    49    48    1
    90    81    82    1
    91    56    57    1
    92    56    55    1
    93    51    52    1
    94    52    55    1
    95    52    53    1
    96    54    53    2
    97    53    59   am
    98    59    60    1
    99    61    62    2
   100    61    60    1
   101    60    63    1
   102    63    64    1
   103    64    65    1
   104    67    65   ar
   105    65    66   ar
