@<TRIPOS>MOLECULE
tmp/2wa2B00.pdb
 163 157 0 0 0
SMALL
GASTEIGER

@<TRIPOS>ATOM
      1  N         38.4450   -2.6570   12.9930 N.3    50  SER50      -0.1217
      2  CA        37.0040   -2.4800   13.1810 C.3    50  SER50       0.1889
      3  C         36.2820   -3.7710   12.8160 C.2    50  SER50       0.2288
      4  O         36.9020   -4.6990   12.2890 O.2    50  SER50      -0.2866
      5  CB        36.4790   -1.3500   12.3030 C.3    50  SER50       0.2089
      6  OG        36.2160   -1.7760   10.9670 O.3    50  SER50      -0.2183
      7  N         34.4620   -4.1360   10.3390 N.3    52  GLY52      -0.1225
      8  CA        34.4370   -4.2320    8.8730 C.3    52  GLY52       0.1811
      9  C         35.2280   -5.4010    8.3160 C.2    52  GLY52       0.2280
     10  O         34.8420   -5.9820    7.2930 O.2    52  GLY52      -0.2866
     11  N         40.2350    1.0120   -2.0910 N.3    73  ASP73      -0.1239
     12  CA        39.3050    0.9880   -0.9550 C.3    73  ASP73       0.1674
     13  C         38.8120    2.4380   -0.7690 C.2    73  ASP73       0.2266
     14  O         39.4970    3.2800   -0.1730 O.2    73  ASP73      -0.2867
     15  CB        39.9740    0.4420    0.3020 C.3    73  ASP73       0.1410
     16  CG        39.0250    0.3460    1.5030 C.2    73  ASP73       0.3668
     17  OD1       37.7940    0.5270    1.3240 O.co2  73  ASP73      -0.2456
     18  OD2       39.5090    0.0960    2.6410 O.co2  73  ASP73      -0.2456
     19  N         36.5040    5.2780    0.7310 N.3    75  GLY75      -0.1210
     20  CA        35.8770    5.4680    2.0570 C.3    75  GLY75       0.1956
     21  C         36.4400    4.4710    3.0630 C.2    75  GLY75       0.2612
     22  O         35.7020    3.7240    3.7160 O.2    75  GLY75      -0.2717
     23  N         37.7560    4.4010    3.1720 N.am   76  CYS76      -0.1956
     24  CA        38.3540    3.3420    3.9920 C.3    76  CYS76       0.1843
     25  C         38.1610    3.4910    5.5100 C.2    76  CYS76       0.2626
     26  O         38.2190    2.4900    6.2550 O.2    76  CYS76      -0.2714
     27  CB        39.8460    3.1540    3.6470 C.3    76  CYS76       0.0997
     28  SG        40.8370    4.5760    4.2510 S.3    76  CYS76      -0.0797
     29  N         37.9420    4.7320    5.9830 N.am   77  GLY77      -0.1940
     30  CA        37.7540    4.9320    7.4160 C.3    77  GLY77       0.2014
     31  C         39.0030    4.4820    8.1500 C.2    77  GLY77       0.2639
     32  O         40.1430    4.8290    7.7580 O.2    77  GLY77      -0.2714
     33  N         38.8000    3.6810    9.2010 N.am   78  ARG78      -0.1963
     34  CA        39.9130    3.1280    9.9840 C.3    78  ARG78       0.1729
     35  C         40.8100    2.2010    9.1620 C.2    78  ARG78       0.2617
     36  O         41.9650    2.0000    9.4980 O.2    78  ARG78      -0.2715
     37  CB        39.3910    2.3430   11.1770 C.3    78  ARG78       0.0348
     38  CG        38.7250    3.2120   12.2140 C.3    78  ARG78       0.0492
     39  CD        38.4440    2.3260   13.4190 C.3    78  ARG78       0.2205
     40  NE        37.5670    3.0060   14.3570 N.pl3  78  ARG78      -0.0865
     41  CZ        36.8790    2.3870   15.3080 C.cat  78  ARG78       0.5346
     42  NH1       36.9900    1.0700   15.4580 N.pl3  78  ARG78       0.1354
     43  NH2       36.0840    3.0870   16.1110 N.pl3  78  ARG78       0.1354
     44  N         40.2590    1.6260    8.1010 N.am   79  GLY79      -0.1940
     45  CA        41.0640    0.8640    7.1800 C.3    79  GLY79       0.2014
     46  C         40.8560   -0.6440    7.2110 C.2    79  GLY79       0.2640
     47  O         41.6230   -1.3520    6.5780 O.2    79  GLY79      -0.2714
     48  N         39.8170   -1.1340    7.9010 N.am   80  SER80      -0.1935
     49  CA        39.7130   -2.5950    8.1130 C.3    80  SER80       0.2055
     50  C         39.5450   -3.4090    6.8220 C.2    80  SER80       0.2643
     51  O         40.0140   -4.5810    6.7630 O.2    80  SER80      -0.2714
     52  CB        38.6480   -2.9600    9.1750 C.3    80  SER80       0.2130
     53  OG        37.4420   -3.3590    8.5350 O.3    80  SER80      -0.2179
     54  N         38.8880   -2.8330    5.8010 N.am   81  TRP81      -0.1973
     55  CA        38.8020   -3.5260    4.5150 C.3    81  TRP81       0.1640
     56  C         40.1710   -3.5550    3.8110 C.2    81  TRP81       0.2290
     57  O         40.5310   -4.5630    3.1930 O.2    81  TRP81      -0.2864
     58  CB        37.7860   -2.8740    3.6120 C.3    81  TRP81       0.0576
     59  CG        36.3880   -3.2890    3.9150 C.ar   81  TRP81       0.0006
     60  CD1       35.8930   -3.7670    5.1040 C.ar   81  TRP81       0.0946
     61  CD2       35.3230   -3.2520    3.0110 C.ar   81  TRP81       0.0152
     62  NE1       34.5210   -4.0200    4.9750 N.ar   81  TRP81      -0.2442
     63  CE2       34.1640   -3.7280    3.6860 C.ar   81  TRP81       0.0810
     64  CE3       35.2200   -2.8580    1.6700 C.ar   81  TRP81       0.0012
     65  CZ2       32.9160   -3.8180    3.0550 C.ar   81  TRP81       0.0191
     66  CZ3       33.9710   -2.9440    1.0430 C.ar   81  TRP81       0.0001
     67  CH2       32.8470   -3.4330    1.7270 C.ar   81  TRP81       0.0015
     68  N         40.0150    8.2300    2.2210 N.3    98  THR98      -0.1203
     69  CA        38.9330    8.5230    3.1410 C.3    98  THR98       0.1994
     70  C         38.9750   10.0120    3.4990 C.2    98  THR98       0.2618
     71  O         40.0110   10.6590    3.3430 O.2    98  THR98      -0.2717
     72  CB        39.0160    7.6130    4.4070 C.3    98  THR98       0.1784
     73  OG1       37.7350    7.4540    5.0170 O.3    98  THR98      -0.2211
     74  CG2       39.9780    8.1390    5.4320 C.3    98  THR98       0.0376
     75  N         37.8350   10.5440    3.9350 N.am   99  LEU99      -0.1965
     76  CA        37.7720   11.9390    4.3720 C.3    99  LEU99       0.1728
     77  C         38.7160   12.1460    5.5550 C.2    99  LEU99       0.2616
     78  O         39.6530   12.9300    5.4590 O.2    99  LEU99      -0.2715
     79  CB        36.3330   12.3300    4.7440 C.3    99  LEU99       0.0311
     80  CG        35.4130   12.5450    3.5380 C.3    99  LEU99       0.0022
     81  CD1       33.9410   12.6640    3.9700 C.3    99  LEU99       0.0001
     82  CD2       35.8670   13.7440    2.7300 C.3    99  LEU99       0.0001
     83  N         38.4810   11.4330    6.6570 N.am  100  GLY100     -0.1955
     84  CA        39.3650   11.4840    7.8210 C.3   100  GLY100      0.1869
     85  C         39.4100   12.8540    8.4800 C.2   100  GLY100      0.2309
     86  O         40.4010   13.2060    9.1020 O.2   100  GLY100     -0.2863
     87  N         34.9960   12.3070   11.3510 N.3   104  HIS104     -0.1226
     88  CA        35.1410   11.1250   10.4780 C.3   104  HIS104      0.1752
     89  C         36.3030   10.2190   10.9350 C.2   104  HIS104      0.2595
     90  O         37.2900   10.7090   11.4950 O.2   104  HIS104     -0.2718
     91  CB        35.3380   11.5730    9.0340 C.3   104  HIS104      0.0759
     92  CG        34.1340   12.2320    8.4180 C.ar  104  HIS104      0.0818
     93  ND1       33.2320   11.5510    7.6260 N.ar  104  HIS104     -0.2268
     94  CD2       33.7120   13.5200    8.4380 C.ar  104  HIS104      0.1154
     95  CE1       32.2990   12.3860    7.2000 C.ar  104  HIS104      0.1986
     96  NE2       32.5680   13.5890    7.6760 N.ar  104  HIS104     -0.2212
     97  N         36.1840    8.9050   10.7220 N.am  105  GLU105     -0.1979
     98  CA        37.2200    7.9600   11.1730 C.3   105  GLU105      0.1602
     99  C         38.5080    8.1980   10.3830 C.2   105  GLU105      0.2287
    100  O         38.4610    8.3780    9.1760 O.2   105  GLU105     -0.2864
    101  CB        36.7620    6.5050   10.9630 C.3   105  GLU105      0.0415
    102  CG        35.6350    5.9910   11.8890 C.3   105  GLU105      0.1163
    103  CD        35.9880    5.9630   13.3710 C.2   105  GLU105      0.3649
    104  OE1       37.1870    5.8290   13.7330 O.co2 105  GLU105     -0.2457
    105  OE2       35.0360    6.0640   14.2000 O.co2 105  GLU105     -0.2457
    106  N         40.5280   13.1290    1.3710 N.3   124  VAL124     -0.1231
    107  CA        40.1150   12.8770    0.0090 C.3   124  VAL124      0.1692
    108  C         38.6000   12.6830   -0.0440 C.2   124  VAL124      0.2592
    109  O         38.0430   11.8010    0.6210 O.2   124  VAL124     -0.2718
    110  CB        40.8910   11.6630   -0.6050 C.3   124  VAL124      0.0266
    111  CG1       40.2630   11.2040   -1.9330 C.3   124  VAL124      0.0020
    112  CG2       42.3630   12.0450   -0.8230 C.3   124  VAL124      0.0020
    113  N         37.9310   13.5180   -0.8320 N.am  125  ASP125     -0.1960
    114  CA        36.5370   13.2800   -1.1360 C.3   125  ASP125      0.1840
    115  C         36.4500   12.3880   -2.3870 C.2   125  ASP125      0.2622
    116  O         36.7130   12.8330   -3.5260 O.2   125  ASP125     -0.2715
    117  CB        35.8120   14.6260   -1.3460 C.3   125  ASP125      0.1450
    118  CG        34.3070   14.4760   -1.5310 C.2   125  ASP125      0.3671
    119  OD1       33.8130   13.3690   -1.8250 O.co2 125  ASP125     -0.2456
    120  OD2       33.6210   15.5100   -1.4280 O.co2 125  ASP125     -0.2456
    121  N         36.0630   11.1290   -2.1840 N.am  126  VAL126     -0.1963
    122  CA        36.0440   10.2080   -3.3120 C.3   126  VAL126      0.1727
    123  C         34.9590   10.5650   -4.3420 C.2   126  VAL126      0.2616
    124  O         35.0290   10.1160   -5.4650 O.2   126  VAL126     -0.2715
    125  CB        36.0170    8.6780   -2.8950 C.3   126  VAL126      0.0290
    126  CG1       37.0620    8.3880   -1.8300 C.3   126  VAL126      0.0023
    127  CG2       34.6520    8.2450   -2.4710 C.3   126  VAL126      0.0023
    128  N         33.9600   11.3650   -3.9690 N.am  127  THR127     -0.1951
    129  CA        32.9850   11.8340   -4.9800 C.3   127  THR127      0.1897
    130  C         33.6090   12.8070   -5.9920 C.2   127  THR127      0.2313
    131  O         33.0750   13.0150   -7.0870 O.2   127  THR127     -0.2863
    132  CB        31.7210   12.4680   -4.3580 C.3   127  THR127      0.1794
    133  OG1       32.0600   13.7170   -3.7300 O.3   127  THR127     -0.2208
    134  CG2       31.1260   11.5250   -3.3590 C.3   127  THR127      0.0378
    135  N         32.9210    1.0640    0.9300 N.3   140  ASP140     -0.1225
    136  CA        32.0640    0.8210    2.0840 C.3   140  ASP140      0.1805
    137  C         31.5250    2.1430    2.7100 C.2   140  ASP140      0.2598
    138  O         31.4000    2.2840    3.9400 O.2   140  ASP140     -0.2718
    139  CB        32.8080   -0.0210    3.1200 C.3   140  ASP140      0.1424
    140  CG        31.9010   -0.6590    4.1360 C.2   140  ASP140      0.3668
    141  OD1       30.7130   -0.9140    3.8370 O.co2 140  ASP140     -0.2456
    142  OD2       32.3750   -0.9570    5.2440 O.co2 140  ASP140     -0.2456
    143  N         31.1640    3.0710    1.8460 N.am  141  ILE141     -0.1966
    144  CA        30.6670    4.3810    2.2630 C.3   141  ILE141      0.1727
    145  C         29.1620    4.2800    2.4890 C.2   141  ILE141      0.2616
    146  O         28.4670    3.6220    1.7060 O.2   141  ILE141     -0.2715
    147  CB        30.9540    5.4430    1.1750 C.3   141  ILE141      0.0290
    148  CG1       32.4590    5.6730    1.0510 C.3   141  ILE141      0.0022
    149  CG2       30.2030    6.7600    1.4740 C.3   141  ILE141      0.0023
    150  CD1       32.8470    6.5960   -0.0690 C.3   141  ILE141      0.0001
    151  N         28.6880    4.9010    3.5740 N.am  142  GLY142     -0.1955
    152  CA        27.2430    5.0300    3.8590 C.3   142  GLY142      0.1869
    153  C         27.0670    4.9460    5.3550 C.2   142  GLY142      0.2309
    154  O         27.1930    3.8730    5.9400 O.2   142  GLY142     -0.2863
    155  N         29.1800   -1.1100   -0.6960 N.3   177  LYS177     -0.1245
    156  CA        28.0460   -0.9590    0.2180 C.3   177  LYS177      0.1561
    157  C         26.8980   -0.2090   -0.4500 C.2   177  LYS177      0.2260
    158  O         27.0950    0.8320   -1.1210 O.2   177  LYS177     -0.2867
    159  CB        28.4420   -0.2320    1.5320 C.3   177  LYS177      0.0271
    160  CG        27.2760   -0.1680    2.5370 C.3   177  LYS177      0.0035
    161  CD        27.6010    0.7800    3.7030 C.3   177  LYS177      0.0206
    162  CE        26.5350    0.7180    4.7670 C.3   177  LYS177      0.1093
    163  NZ        27.1110    1.2790    6.0580 N.3   177  LYS177     -0.1314
@<TRIPOS>BOND
     1   131   130    2
     2   130   129    1
     3   124   123    2
     4   129   132    1
     5   129   128    1
     6   132   133    1
     7   132   134    1
     8   123   128   am
     9   123   122    1
    10   116   115    2
    11   122   125    1
    12   122   121    1
    13   125   127    1
    14   125   126    1
    15   115   121   am
    16   115   114    1
    17    11    12    1
    18   111   110    1
    19   119   118   ar
    20   118   120   ar
    21   118   117    1
    22   117   114    1
    23   114   113    1
    24   158   157    2
    25    12    13    1
    26    12    15    1
    27   113   108   am
    28   112   110    1
    29    13    14    2
    30   155   156    1
    31   110   107    1
    32   157   156    1
    33   150   148    1
    34   108   107    1
    35   108   109    2
    36   107   106    1
    37   156   159    1
    38    15    16    1
    39    19    20    1
    40   135   136    1
    41    66    64   ar
    42    66    67   ar
    43   148   147    1
    44   147   149    1
    45   147   144    1
    46    17    16   ar
    47    16    18   ar
    48   159   160    1
    49    64    61   ar
    50   146   145    2
    51    67    65   ar
    52   143   144    1
    53   143   137   am
    54    20    21    1
    55   136   137    1
    56   136   139    1
    57    68    69    1
    58   144   145    1
    59   145   151   am
    60   160   161    1
    61   137   138    2
    62    82    80    1
    63    61    63   ar
    64    61    59   ar
    65    65    63   ar
    66    21    23   am
    67    21    22    2
    68   139   140    1
    69    69    70    1
    70    69    72    1
    71    23    24    1
    72    57    56    2
    73    71    70    2
    74    70    75   am
    75    80    81    1
    76    80    79    1
    77   151   152    1
    78    58    59    1
    79    58    55    1
    80    27    24    1
    81    27    28    1
    82    63    62   ar
    83   161   162    1
    84    56    55    1
    85   141   140   ar
    86   152   153    1
    87    59    60   ar
    88    75    76    1
    89    24    25    1
    90   140   142   ar
    91    76    79    1
    92    76    77    1
    93    72    73    1
    94    72    74    1
    95    55    54    1
    96   162   163    1
    97    62    60   ar
    98   153   154    2
    99    78    77    2
   100    25    29   am
   101    25    26    2
   102    77    83   am
   103    54    50   am
   104    29    30    1
   105    47    46    2
   106    83    84    1
   107    51    50    2
   108    50    49    1
   109    45    46    1
   110    45    44    1
   111    95    93   ar
   112    95    96   ar
   113    46    48   am
   114    10     9    2
   115    30    31    1
   116    93    92   ar
   117    96    94   ar
   118    32    31    2
   119    84    85    1
   120    48    49    1
   121    44    35   am
   122    49    52    1
   123    31    33   am
   124     9     8    1
   125    92    94   ar
   126    92    91    1
   127    85    86    2
   128    53    52    1
   129     8     7    1
   130    91    88    1
   131    35    36    2
   132    35    34    1
   133   100    99    2
   134    33    34    1
   135    34    37    1
   136    99    98    1
   137    88    89    1
   138    88    87    1
   139    97    89   am
   140    97    98    1
   141    89    90    2
   142   101    98    1
   143   101   102    1
   144     6     5    1
   145    37    38    1
   146   102   103    1
   147    38    39    1
   148     4     3    2
   149     5     2    1
   150     3     2    1
   151     1     2    1
   152   103   104   ar
   153   103   105   ar
   154    39    40    1
   155    40    41    2
   156    41    42    1
   157    41    43    1
