@<TRIPOS>MOLECULE
tmp/2wa3A00.pdb
 129 121 0 0 0
SMALL
GASTEIGER

@<TRIPOS>ATOM
      1  N         11.9090   22.7990   36.5470 N.3   131  TYR131     -0.1241
      2  CA        12.8290   22.5300   35.4440 C.3   131  TYR131      0.1605
      3  C         13.6950   21.3660   35.9080 C.2   131  TYR131      0.2264
      4  O         14.4460   21.5350   36.8690 O.2   131  TYR131     -0.2867
      5  CB        13.7100   23.7900   35.1280 C.3   131  TYR131      0.0534
      6  CG        13.8540   24.1810   33.6360 C.ar  131  TYR131     -0.0201
      7  CD1       14.1190   23.2160   32.6460 C.ar  131  TYR131     -0.0009
      8  CD2       13.7230   25.5140   33.2160 C.ar  131  TYR131     -0.0009
      9  CE1       14.2360   23.5610   31.3090 C.ar  131  TYR131      0.0417
     10  CE2       13.8470   25.8610   31.8620 C.ar  131  TYR131      0.0417
     11  CZ        14.0940   24.8710   30.9320 C.ar  131  TYR131      0.1957
     12  OH        14.1900   25.1740   29.6150 O.3   131  TYR131     -0.2866
     13  N         17.0190   19.3640   35.3500 N.3   133  GLN133     -0.1245
     14  CA        18.3360   19.6500   34.7370 C.3   133  GLN133      0.1566
     15  C         19.3610   18.7420   35.3820 C.2   133  GLN133      0.2260
     16  O         19.8050   19.0130   36.4920 O.2   133  GLN133     -0.2867
     17  CB        18.7730   21.1390   34.9340 C.3   133  GLN133      0.0367
     18  CG        17.8330   22.1820   34.2540 C.3   133  GLN133      0.0905
     19  CD        18.2120   23.6840   34.4500 C.2   133  GLN133      0.2608
     20  OE1       19.1010   23.9600   35.4000 O.2   133  GLN133     -0.2717
     21  NE2       17.6810   24.5730   33.7530 N.am  133  GLN133     -0.0878
     22  N         17.4480   18.1240   29.8370 N.3   174  LEU174     -0.1245
     23  CA        16.6280   19.2050   30.3920 C.3   174  LEU174      0.1561
     24  C         15.1650   19.0380   29.9840 C.2   174  LEU174      0.2260
     25  O         14.8720   18.8260   28.8070 O.2   174  LEU174     -0.2867
     26  CB        17.1660   20.5740   29.9950 C.3   174  LEU174      0.0270
     27  CG        18.6040   20.9330   30.4220 C.3   174  LEU174      0.0019
     28  CD1       19.5350   20.6660   29.2790 C.3   174  LEU174      0.0001
     29  CD2       18.7910   22.4080   30.7900 C.3   174  LEU174      0.0001
     30  N         14.7220   30.6840   30.9640 N.3   182  THR182     -0.1218
     31  CA        16.0760   30.6790   31.5260 C.3   182  THR182      0.1862
     32  C         16.5920   32.0050   31.0620 C.2   182  THR182      0.2287
     33  O         16.7910   32.1990   29.8570 O.2   182  THR182     -0.2866
     34  CB        16.9400   29.5230   30.9450 C.3   182  THR182      0.1770
     35  OG1       16.6600   28.3280   31.6550 O.3   182  THR182     -0.2211
     36  CG2       18.4180   29.7590   31.0390 C.3   182  THR182      0.0375
     37  N         22.2090   34.5440   29.9230 N.3   185  HIS185     -0.1241
     38  CA        23.5150   34.3430   30.5310 C.3   185  HIS185      0.1621
     39  C         24.4780   33.8470   29.5200 C.2   185  HIS185      0.2264
     40  O         24.0890   33.6090   28.3680 O.2   185  HIS185     -0.2867
     41  CB        23.4000   33.3480   31.6110 C.3   185  HIS185      0.0745
     42  CG        22.9610   32.0290   31.1080 C.ar  185  HIS185      0.0817
     43  ND1       21.6590   31.7870   30.7620 N.ar  185  HIS185     -0.2268
     44  CD2       23.6600   30.9270   30.7800 C.ar  185  HIS185      0.1154
     45  CE1       21.5650   30.5610   30.2850 C.ar  185  HIS185      0.1986
     46  NE2       22.7620   30.0220   30.2970 N.ar  185  HIS185     -0.2212
     47  N         27.9510   31.0530   28.8820 N.3   187  ASP187     -0.1239
     48  CA        28.7050   29.9250   29.3410 C.3   187  ASP187      0.1674
     49  C         30.0900   30.0330   28.7700 C.2   187  ASP187      0.2266
     50  O         30.3050   30.5660   27.6950 O.2   187  ASP187     -0.2867
     51  CB        28.0740   28.6230   28.8610 C.3   187  ASP187      0.1410
     52  CG        26.6350   28.4030   29.4130 C.2   187  ASP187      0.3668
     53  OD1       26.5220   28.4140   30.6440 O.co2 187  ASP187     -0.2456
     54  OD2       25.6280   28.1950   28.6260 O.co2 187  ASP187     -0.2456
     55  N         28.7510   24.9540   22.7760 N.3   191  ASN191     -0.1240
     56  CA        27.5300   24.2300   23.0550 C.3   191  ASN191      0.1653
     57  C         26.7370   23.8210   21.8110 C.2   191  ASN191      0.2266
     58  O         26.4760   24.6640   20.9380 O.2   191  ASN191     -0.2867
     59  CB        26.6680   25.0040   24.0700 C.3   191  ASN191      0.1155
     60  CG        25.3390   24.3110   24.4170 C.2   191  ASN191      0.2627
     61  OD1       25.0730   23.1700   24.0410 O.2   191  ASN191     -0.2716
     62  ND2       24.4930   25.0080   25.1510 N.am  191  ASN191     -0.0877
     63  N         23.0140   22.4290   21.2900 N.3   193  PHE193     -0.1241
     64  CA        21.7170   22.3750   22.0320 C.3   193  PHE193      0.1605
     65  C         20.8380   21.5870   21.1130 C.2   193  PHE193      0.2264
     66  O         20.5600   22.0670   20.0150 O.2   193  PHE193     -0.2867
     67  CB        21.2650   23.8250   22.1790 C.3   193  PHE193      0.0534
     68  CG        19.9450   24.0730   22.8470 C.ar  193  PHE193     -0.0203
     69  CD1       18.7480   23.8860   22.1830 C.ar  193  PHE193     -0.0042
     70  CD2       19.9030   24.7760   24.0650 C.ar  193  PHE193     -0.0042
     71  CE1       17.5650   24.2480   22.7660 C.ar  193  PHE193     -0.0003
     72  CE2       18.7090   25.1650   24.6340 C.ar  193  PHE193     -0.0003
     73  CZ        17.5410   24.8730   23.9920 C.ar  193  PHE193     -0.0000
     74  N         11.4170   25.4570   21.7510 N.3   200  LYS200     -0.1245
     75  CA        12.1110   26.4570   22.5580 C.3   200  LYS200      0.1561
     76  C         12.5530   27.6070   21.7130 C.2   200  LYS200      0.2260
     77  O         13.1500   27.4240   20.6590 O.2   200  LYS200     -0.2867
     78  CB        13.3350   25.8810   23.2850 C.3   200  LYS200      0.0271
     79  CG        12.9500   24.9770   24.4780 C.3   200  LYS200      0.0035
     80  CD        14.1600   24.3310   25.1680 C.3   200  LYS200      0.0206
     81  CE        14.0430   24.2870   26.6820 C.3   200  LYS200      0.1093
     82  NZ        12.6390   24.5220   27.1430 N.3   200  LYS200     -0.1314
     83  N         22.7080   33.7550   26.1030 N.3   265  HIS265     -0.1241
     84  CA        21.4710   33.1840   25.6390 C.3   265  HIS265      0.1621
     85  C         20.3240   33.2540   26.6310 C.2   265  HIS265      0.2264
     86  O         20.5150   33.1250   27.8350 O.2   265  HIS265     -0.2867
     87  CB        21.6930   31.7530   25.1380 C.3   265  HIS265      0.0745
     88  CG        22.5960   30.9270   26.0000 C.ar  265  HIS265      0.0817
     89  ND1       23.9570   31.1310   26.0550 N.ar  265  HIS265     -0.2268
     90  CD2       22.3390   29.8580   26.7980 C.ar  265  HIS265      0.1154
     91  CE1       24.4980   30.2380   26.8680 C.ar  265  HIS265      0.1986
     92  NE2       23.5390   29.4450   27.3330 N.ar  265  HIS265     -0.2212
     93  N         16.4560   31.5550   26.9850 N.3   267  ILE267     -0.1245
     94  CA        15.7940   30.3780   26.4260 C.3   267  ILE267      0.1561
     95  C         14.4210   30.2250   27.0170 C.2   267  ILE267      0.2260
     96  O         14.2960   30.1200   28.2190 O.2   267  ILE267     -0.2867
     97  CB        16.6460   29.1500   26.7130 C.3   267  ILE267      0.0252
     98  CG1       17.8300   29.1480   25.7090 C.3   267  ILE267      0.0019
     99  CG2       15.8330   27.8790   26.6290 C.3   267  ILE267      0.0019
    100  CD1       19.0790   28.8780   26.3370 C.3   267  ILE267      0.0001
    101  N         15.1620   18.7120   26.0150 N.3   278  THR278     -0.1218
    102  CA        16.3870   19.0520   25.2940 C.3   278  THR278      0.1862
    103  C         17.5960   18.2920   25.8670 C.2   278  THR278      0.2287
    104  O         17.7020   18.0600   27.0750 O.2   278  THR278     -0.2866
    105  CB        16.6870   20.5960   25.4690 C.3   278  THR278      0.1770
    106  OG1       15.5010   21.3530   25.1790 O.3   278  THR278     -0.2211
    107  CG2       17.8430   21.0590   24.5780 C.3   278  THR278      0.0375
    108  N         21.9150   18.7990   25.8760 N.3   280  ASN280     -0.1240
    109  CA        23.0670   19.6010   25.4200 C.3   280  ASN280      0.1653
    110  C         24.4050   18.9150   25.4730 C.2   280  ASN280      0.2266
    111  O         24.5800   17.9830   26.1840 O.2   280  ASN280     -0.2867
    112  CB        23.1790   20.8700   26.2220 C.3   280  ASN280      0.1155
    113  CG        22.0320   21.7430   26.0140 C.2   280  ASN280      0.2627
    114  OD1       22.2760   22.9390   25.4610 O.2   280  ASN280     -0.2716
    115  ND2       20.8970   21.3490   26.3180 N.am  280  ASN280     -0.0877
    116  N         28.4300   20.0470   25.8890 N.3   282  TRP282     -0.1241
    117  CA        29.3510   21.1550   26.1850 C.3   282  TRP282      0.1605
    118  C         30.7870   20.7030   25.9910 C.2   282  TRP282      0.2264
    119  O         31.1830   19.6510   26.4740 O.2   282  TRP282     -0.2867
    120  CB        29.2030   21.6570   27.6290 C.3   282  TRP282      0.0550
    121  CG        28.0580   22.5700   27.8740 C.ar  282  TRP282      0.0003
    122  CD1       27.9950   23.9240   27.6390 C.ar  282  TRP282      0.0946
    123  CD2       26.8070   22.2090   28.4470 C.ar  282  TRP282      0.0152
    124  NE1       26.7680   24.4190   28.0200 N.ar  282  TRP282     -0.2442
    125  CE2       26.0170   23.3890   28.5170 C.ar  282  TRP282      0.0810
    126  CE3       26.2600   20.9980   28.8880 C.ar  282  TRP282      0.0012
    127  CZ2       24.7050   23.3840   29.0130 C.ar  282  TRP282      0.0191
    128  CZ3       24.9500   20.9920   29.3880 C.ar  282  TRP282      0.0001
    129  CH2       24.1850   22.1710   29.4370 C.ar  282  TRP282      0.0015
@<TRIPOS>BOND
     1    66    65    2
     2    77    76    2
     3    58    57    2
     4    65    64    1
     5    63    64    1
     6    76    75    1
     7    74    75    1
     8    57    56    1
     9    64    67    1
    10    67    68    1
    11    69    71   ar
    12    69    68   ar
    13    75    78    1
    14    71    73   ar
    15    55    56    1
    16    68    70   ar
    17    56    59    1
    18    78    79    1
    19    73    72   ar
    20    61    60    2
    21    70    72   ar
    22    59    60    1
    23    60    62   am
    24    79    80    1
    25   107   105    1
    26    87    84    1
    27    87    88    1
    28    80    81    1
    29   106   105    1
    30   102   105    1
    31   102   103    1
    32   102   101    1
    33   109   110    1
    34   109   108    1
    35   109   112    1
    36   114   113    2
    37   110   111    2
    38    84    83    1
    39    84    85    1
    40    98   100    1
    41    98    97    1
    42   103   104    2
    43   116   117    1
    44   118   117    1
    45   118   119    2
    46    88    89   ar
    47    88    90   ar
    48   113   112    1
    49   113   115   am
    50    89    91   ar
    51   117   120    1
    52    94    97    1
    53    94    93    1
    54    94    95    1
    55    99    97    1
    56    85    86    2
    57    81    82    1
    58    90    92   ar
    59    91    92   ar
    60    95    96    2
    61   120   121    1
    62   122   121   ar
    63   122   124   ar
    64    50    49    2
    65   121   123   ar
    66   124   125   ar
    67    40    39    2
    68   123   125   ar
    69   123   126   ar
    70   125   127   ar
    71    54    52   ar
    72    49    48    1
    73    25    24    2
    74    51    48    1
    75    51    52    1
    76    47    48    1
    77   126   128   ar
    78   127   129   ar
    79    28    27    1
    80   128   129   ar
    81    52    53   ar
    82    39    38    1
    83    12    11    1
    84    22    23    1
    85    33    32    2
    86    37    38    1
    87    24    23    1
    88    26    23    1
    89    26    27    1
    90    45    46   ar
    91    45    43   ar
    92    46    44   ar
    93    27    29    1
    94    38    41    1
    95    43    42   ar
    96    44    42   ar
    97    11     9   ar
    98    11    10   ar
    99    34    36    1
   100    34    31    1
   101    34    35    1
   102    30    31    1
   103    32    31    1
   104    42    41    1
   105     9     7   ar
   106    10     8   ar
   107     7     6   ar
   108     8     6   ar
   109     6     5    1
   110    21    19   am
   111    18    19    1
   112    18    17    1
   113    19    20    2
   114    14    17    1
   115    14    13    1
   116    14    15    1
   117     5     2    1
   118    15    16    2
   119     2     3    1
   120     2     1    1
   121     3     4    2
