@<TRIPOS>MOLECULE
tmp/2wa4A00.pdb
 120 113 0 0 0
SMALL
GASTEIGER

@<TRIPOS>ATOM
      1  N         11.7620   22.0480   36.0960 N.3   131  TYR131     -0.1241
      2  CA        12.7700   21.6190   35.1130 C.3   131  TYR131      0.1605
      3  C         13.4540   20.4050   35.7080 C.2   131  TYR131      0.2264
      4  O         13.8520   20.4600   36.8600 O.2   131  TYR131     -0.2867
      5  CB        13.8240   22.7150   34.8770 C.3   131  TYR131      0.0534
      6  CG        13.8340   23.3720   33.5010 C.ar  131  TYR131     -0.0201
      7  CD1       14.0310   22.6050   32.3520 C.ar  131  TYR131     -0.0009
      8  CD2       13.6990   24.7710   33.3500 C.ar  131  TYR131     -0.0009
      9  CE1       14.0560   23.1840   31.0920 C.ar  131  TYR131      0.0417
     10  CE2       13.7190   25.3600   32.0800 C.ar  131  TYR131      0.0417
     11  CZ        13.8950   24.5370   30.9660 C.ar  131  TYR131      0.1957
     12  OH        13.9040   25.0260   29.7040 O.3   131  TYR131     -0.2866
     13  N         17.5120   17.9720   29.7200 N.3   174  LEU174     -0.1245
     14  CA        16.5900   18.9030   30.3750 C.3   174  LEU174      0.1561
     15  C         15.1690   18.6260   29.9030 C.2   174  LEU174      0.2260
     16  O         14.9460   18.3910   28.7170 O.2   174  LEU174     -0.2867
     17  CB        16.9890   20.3460   30.1000 C.3   174  LEU174      0.0270
     18  CG        18.3080   20.7220   30.8140 C.3   174  LEU174      0.0019
     19  CD1       19.4750   20.7950   29.8430 C.3   174  LEU174      0.0001
     20  CD2       18.1890   22.0100   31.5590 C.3   174  LEU174      0.0001
     21  N         14.6360   30.3720   31.1050 N.3   182  THR182     -0.1218
     22  CA        15.9770   30.3730   31.7220 C.3   182  THR182      0.1862
     23  C         16.5390   31.6950   31.2890 C.2   182  THR182      0.2287
     24  O         16.8140   31.8820   30.1140 O.2   182  THR182     -0.2866
     25  CB        16.8380   29.2480   31.2010 C.3   182  THR182      0.1770
     26  OG1       16.2340   28.0220   31.5780 O.3   182  THR182     -0.2211
     27  CG2       18.2650   29.2330   31.8090 C.3   182  THR182      0.0375
     28  N         22.2250   34.2230   30.4050 N.3   185  HIS185     -0.1241
     29  CA        23.5280   33.9620   31.0280 C.3   185  HIS185      0.1621
     30  C         24.5360   33.5650   29.9600 C.2   185  HIS185      0.2264
     31  O         24.1360   33.2910   28.8180 O.2   185  HIS185     -0.2867
     32  CB        23.3830   32.7980   32.0140 C.3   185  HIS185      0.0745
     33  CG        22.9710   31.5240   31.3860 C.ar  185  HIS185      0.0817
     34  ND1       21.6690   31.2680   31.0260 N.ar  185  HIS185     -0.2268
     35  CD2       23.6860   30.4280   31.0250 C.ar  185  HIS185      0.1154
     36  CE1       21.5910   30.0400   30.5250 C.ar  185  HIS185      0.1986
     37  NE2       22.7960   29.5050   30.5330 N.ar  185  HIS185     -0.2212
     38  N         28.1960   30.9780   29.1430 N.3   187  ASP187     -0.1239
     39  CA        29.0270   29.8740   29.5830 C.3   187  ASP187      0.1674
     40  C         30.4020   30.0070   28.9160 C.2   187  ASP187      0.2266
     41  O         30.5520   30.5960   27.8670 O.2   187  ASP187     -0.2867
     42  CB        28.3480   28.5580   29.2650 C.3   187  ASP187      0.1410
     43  CG        29.0110   27.3390   29.9820 C.2   187  ASP187      0.3668
     44  OD1       30.2170   27.0030   29.6940 O.co2 187  ASP187     -0.2456
     45  OD2       28.2940   26.6940   30.8120 O.co2 187  ASP187     -0.2456
     46  N         28.8990   25.0210   23.1750 N.3   191  ASN191     -0.1240
     47  CA        27.6810   24.2550   23.4460 C.3   191  ASN191      0.1653
     48  C         26.8770   23.8430   22.1860 C.2   191  ASN191      0.2266
     49  O         26.4660   24.6920   21.3940 O.2   191  ASN191     -0.2867
     50  CB        26.7320   25.0580   24.3950 C.3   191  ASN191      0.1155
     51  CG        25.4060   24.3410   24.6540 C.2   191  ASN191      0.2627
     52  OD1       25.2260   23.1660   24.2890 O.2   191  ASN191     -0.2716
     53  ND2       24.4640   25.0320   25.2980 N.am  191  ASN191     -0.0877
     54  N         23.2650   22.4450   21.3610 N.3   193  PHE193     -0.1241
     55  CA        21.9910   22.3660   22.0500 C.3   193  PHE193      0.1605
     56  C         21.1030   21.5650   21.0880 C.2   193  PHE193      0.2264
     57  O         20.7420   22.0880   20.0280 O.2   193  PHE193     -0.2867
     58  CB        21.5610   23.8280   22.2080 C.3   193  PHE193      0.0534
     59  CG        20.2310   24.0680   22.7960 C.ar  193  PHE193     -0.0203
     60  CD1       19.0780   23.6890   22.1560 C.ar  193  PHE193     -0.0042
     61  CD2       20.1140   24.8730   23.9120 C.ar  193  PHE193     -0.0042
     62  CE1       17.8320   24.0150   22.6770 C.ar  193  PHE193     -0.0003
     63  CE2       18.8610   25.2250   24.4380 C.ar  193  PHE193     -0.0003
     64  CZ        17.7240   24.7970   23.8140 C.ar  193  PHE193     -0.0000
     65  N         11.7470   25.2830   21.5180 N.3   200  LYS200     -0.1245
     66  CA        12.3760   26.2810   22.3910 C.3   200  LYS200      0.1561
     67  C         12.8150   27.4950   21.6640 C.2   200  LYS200      0.2260
     68  O         13.4340   27.4270   20.6140 O.2   200  LYS200     -0.2867
     69  CB        13.5750   25.6710   23.1560 C.3   200  LYS200      0.0271
     70  CG        13.2230   25.4250   24.6170 C.3   200  LYS200      0.0035
     71  CD        14.0150   24.3610   25.2570 C.3   200  LYS200      0.0206
     72  CE        13.8870   24.4120   26.8050 C.3   200  LYS200      0.1093
     73  NZ        12.4840   24.4980   27.3070 N.3   200  LYS200     -0.1314
     74  N         22.8850   33.6530   26.2890 N.3   265  HIS265     -0.1241
     75  CA        21.6970   33.0620   25.7730 C.3   265  HIS265      0.1621
     76  C         20.5430   33.1370   26.7830 C.2   265  HIS265      0.2264
     77  O         20.7590   33.0230   27.9880 O.2   265  HIS265     -0.2867
     78  CB        21.9750   31.6260   25.2810 C.3   265  HIS265      0.0745
     79  CG        22.8140   30.7860   26.2020 C.ar  265  HIS265      0.0817
     80  ND1       24.1690   31.0200   26.4070 N.ar  265  HIS265     -0.2268
     81  CD2       22.5120   29.6650   26.9030 C.ar  265  HIS265      0.1154
     82  CE1       24.6510   30.0970   27.2220 C.ar  265  HIS265      0.1986
     83  NE2       23.6730   29.2450   27.5150 N.ar  265  HIS265     -0.2212
     84  N         16.6570   31.3840   27.1050 N.3   267  ILE267     -0.1242
     85  CA        15.9820   30.1870   26.5900 C.3   267  ILE267      0.1601
     86  C         14.6030   29.9600   27.1940 C.2   267  ILE267      0.2264
     87  O         14.4620   29.9550   28.3780 O.2   267  ILE267     -0.2867
     88  CB        16.8980   28.9940   26.7000 C.3   267  ILE267      0.0472
     89  CG1       18.0300   29.2590   25.6960 C.2   267  ILE267     -0.0246
     90  CG2       16.1540   27.7520   26.3000 C.3   267  ILE267      0.0066
     91  CD1       19.1280   28.5380   25.8810 C.2   267  ILE267     -0.0049
     92  N         15.4810   18.5050   25.8540 N.3   278  THR278     -0.1218
     93  CA        16.6620   19.0030   25.1710 C.3   278  THR278      0.1862
     94  C         17.8880   18.2880   25.7220 C.2   278  THR278      0.2287
     95  O         17.9060   17.9030   26.8660 O.2   278  THR278     -0.2866
     96  CB        16.7950   20.5030   25.3970 C.3   278  THR278      0.1770
     97  OG1       15.5330   21.1810   25.1170 O.3   278  THR278     -0.2211
     98  CG2       17.9830   21.1190   24.5330 C.3   278  THR278      0.0375
     99  N         22.1170   19.0360   25.9060 N.3   280  ASN280     -0.1240
    100  CA        23.2310   19.9060   25.5330 C.3   280  ASN280      0.1653
    101  C         24.5210   19.1340   25.6270 C.2   280  ASN280      0.2266
    102  O         24.6640   18.3150   26.4800 O.2   280  ASN280     -0.2867
    103  CB        23.3950   21.1600   26.4110 C.3   280  ASN280      0.1155
    104  CG        22.1980   22.1070   26.3640 C.2   280  ASN280      0.2627
    105  OD1       22.3720   23.3150   25.8020 O.2   280  ASN280     -0.2716
    106  ND2       21.1460   21.7740   26.8890 N.am  280  ASN280     -0.0877
    107  N         28.7540   19.8600   25.8850 N.3   282  TRP282     -0.1241
    108  CA        29.6660   20.9970   26.1580 C.3   282  TRP282      0.1605
    109  C         31.0840   20.5650   25.9230 C.2   282  TRP282      0.2264
    110  O         31.4600   19.4850   26.3400 O.2   282  TRP282     -0.2867
    111  CB        29.5510   21.5120   27.6000 C.3   282  TRP282      0.0550
    112  CG        28.4880   22.4730   27.8450 C.ar  282  TRP282      0.0003
    113  CD1       28.4900   23.8230   27.5620 C.ar  282  TRP282      0.0946
    114  CD2       27.2420   22.2080   28.4540 C.ar  282  TRP282      0.0152
    115  NE1       27.3190   24.4010   27.9440 N.ar  282  TRP282     -0.2442
    116  CE2       26.5280   23.4400   28.5040 C.ar  282  TRP282      0.0810
    117  CE3       26.6530   21.0520   28.9850 C.ar  282  TRP282      0.0012
    118  CZ2       25.2680   23.5460   29.0560 C.ar  282  TRP282      0.0191
    119  CZ3       25.3820   21.1640   29.5340 C.ar  282  TRP282      0.0001
    120  CH2       24.6910   22.3940   29.5390 C.ar  282  TRP282      0.0015
@<TRIPOS>BOND
     1    57    56    2
     2    68    67    2
     3    56    55    1
     4    54    55    1
     5    49    48    2
     6    65    66    1
     7    67    66    1
     8    55    58    1
     9    60    62   ar
    10    60    59   ar
    11    48    47    1
    12    58    59    1
    13    66    69    1
    14    62    64   ar
    15    59    61   ar
    16    69    70    1
    17    46    47    1
    18    47    50    1
    19    64    63   ar
    20    61    63   ar
    21    52    51    2
    22    50    51    1
    23    98    96    1
    24    70    71    1
    25    51    53   am
    26    97    96    1
    27    93    96    1
    28    93    94    1
    29    93    92    1
    30    71    72    1
    31    78    75    1
    32    78    79    1
    33   100   101    1
    34   100    99    1
    35   100   103    1
    36   101   102    2
    37    89    91    2
    38    89    88    1
    39    94    95    2
    40    75    74    1
    41    75    76    1
    42   105   104    2
    43   107   108    1
    44   109   108    1
    45   109   110    2
    46   108   111    1
    47    79    80   ar
    48    79    81   ar
    49    90    88    1
    50   104   103    1
    51   104   106   am
    52    80    82   ar
    53    85    88    1
    54    85    84    1
    55    85    86    1
    56    76    77    2
    57    72    73    1
    58    81    83   ar
    59    86    87    2
    60    82    83   ar
    61   113   112   ar
    62   113   115   ar
    63   111   112    1
    64   112   114   ar
    65    41    40    2
    66   115   116   ar
    67   114   116   ar
    68   114   117   ar
    69   116   118   ar
    70    16    15    2
    71    31    30    2
    72    40    39    1
    73   117   119   ar
    74   118   120   ar
    75    38    39    1
    76    42    39    1
    77    42    43    1
    78   119   120   ar
    79    44    43   ar
    80    12    11    1
    81    13    14    1
    82    19    18    1
    83    15    14    1
    84    30    29    1
    85    43    45   ar
    86    17    14    1
    87    17    18    1
    88    24    23    2
    89    28    29    1
    90    36    37   ar
    91    36    34   ar
    92    37    35   ar
    93    18    20    1
    94    11     9   ar
    95    11    10   ar
    96    35    33   ar
    97    34    33   ar
    98    29    32    1
    99     9     7   ar
   100    21    22    1
   101    25    26    1
   102    25    22    1
   103    25    27    1
   104    23    22    1
   105    33    32    1
   106    10     8   ar
   107     7     6   ar
   108     8     6   ar
   109     6     5    1
   110     5     2    1
   111     2     3    1
   112     2     1    1
   113     3     4    2
