@<TRIPOS>MOLECULE
tmp/2wa8A00.pdb
 170 166 0 0 0
SMALL
GASTEIGER

@<TRIPOS>ATOM
      1  N         25.6190   33.0710   22.6850 N.3    14  LEU14      -0.1231
      2  CA        24.2110   32.7200   22.6270 C.3    14  LEU14       0.1693
      3  C         23.4270   33.7970   23.3710 C.2    14  LEU14       0.2592
      4  O         23.8110   34.1910   24.4580 O.2    14  LEU14      -0.2718
      5  CB        24.0020   31.3540   23.2790 C.3    14  LEU14       0.0284
      6  CG        23.2250   30.3130   22.4780 C.3    14  LEU14       0.0019
      7  CD1       23.8610   30.1120   21.1160 C.3    14  LEU14       0.0001
      8  CD2       23.1510   29.0030   23.2710 C.3    14  LEU14       0.0001
      9  N         22.3500   34.2940   22.7780 N.am   15  VAL15      -0.1966
     10  CA        21.4890   35.2450   23.4710 C.3    15  VAL15       0.1727
     11  C         20.2000   34.6040   23.9880 C.2    15  VAL15       0.2616
     12  O         19.6580   33.6890   23.3850 O.2    15  VAL15      -0.2715
     13  CB        21.1520   36.4690   22.5960 C.3    15  VAL15       0.0290
     14  CG1       20.4250   37.5570   23.4240 C.3    15  VAL15       0.0023
     15  CG2       22.4240   37.0290   21.9840 C.3    15  VAL15       0.0023
     16  N         19.7390   35.0660   25.1420 N.am   16  ASN16      -0.1958
     17  CA        18.5050   34.5550   25.7270 C.3    16  ASN16       0.1819
     18  C         17.2470   35.0380   25.0160 C.2    16  ASN16       0.2621
     19  O         17.1840   36.1620   24.5110 O.2    16  ASN16      -0.2715
     20  CB        18.3840   34.9340   27.1980 C.3    16  ASN16       0.1195
     21  CG        17.2630   34.1710   27.8950 C.2    16  ASN16       0.2630
     22  OD1       17.2230   32.9520   27.8420 O.2    16  ASN16      -0.2716
     23  ND2       16.3640   34.8810   28.5480 N.am   16  ASN16      -0.0877
     24  N         16.2390   34.1820   24.9770 N.am   17  ASP17      -0.1957
     25  CA        14.9170   34.6190   24.5660 C.3    17  ASP17       0.1840
     26  C         13.8770   33.8450   25.3940 C.2    17  ASP17       0.2622
     27  O         14.2030   32.8570   26.0570 O.2    17  ASP17      -0.2715
     28  CB        14.7590   34.3740   23.0660 C.3    17  ASP17       0.1450
     29  CG        14.6740   32.8970   22.7410 C.2    17  ASP17       0.3671
     30  OD1       13.6470   32.2880   23.0710 O.co2  17  ASP17      -0.2456
     31  OD2       15.6420   32.3480   22.1710 O.co2  17  ASP17      -0.2456
     32  N         12.6360   34.3060   25.3900 N.am   18  ASP18      -0.1957
     33  CA        11.6220   33.6930   26.2400 C.3    18  ASP18       0.1840
     34  C         10.9340   32.4940   25.6330 C.2    18  ASP18       0.2622
     35  O         10.1020   31.8760   26.2700 O.2    18  ASP18      -0.2715
     36  CB        10.5840   34.7290   26.6450 C.3    18  ASP18       0.1450
     37  CG        11.2000   35.8720   27.4090 C.2    18  ASP18       0.3671
     38  OD1       12.1580   35.6130   28.1750 O.co2  18  ASP18      -0.2456
     39  OD2       10.7480   37.0280   27.2370 O.co2  18  ASP18      -0.2456
     40  N         11.2770   32.1490   24.4020 N.am   19  TYR19      -0.1960
     41  CA        10.4620   31.1780   23.6710 C.3    19  TYR19       0.1771
     42  C         11.1680   29.9020   23.2560 C.2    19  TYR19       0.2620
     43  O         10.5350   28.8570   23.1980 O.2    19  TYR19      -0.2715
     44  CB         9.7270   31.8720   22.5140 C.3    19  TYR19       0.0574
     45  CG         8.9970   33.0770   23.0540 C.ar   19  TYR19      -0.0198
     46  CD1        7.9540   32.9120   23.9550 C.ar   19  TYR19      -0.0009
     47  CD2        9.3910   34.3660   22.7290 C.ar   19  TYR19      -0.0009
     48  CE1        7.2990   33.9970   24.4920 C.ar   19  TYR19       0.0417
     49  CE2        8.7440   35.4560   23.2610 C.ar   19  TYR19       0.0417
     50  CZ         7.7020   35.2680   24.1350 C.ar   19  TYR19       0.1957
     51  OH         7.0560   36.3520   24.6620 O.3    19  TYR19      -0.2866
     52  N         12.4710   29.9690   23.0010 N.am   20  THR20      -0.1937
     53  CA        13.2190   28.7510   22.7400 C.3    20  THR20       0.2013
     54  C         13.1860   27.8240   23.9730 C.2    20  THR20       0.2484
     55  O         13.5210   28.2410   25.0780 O.2    20  THR20      -0.2729
     56  CB        14.7070   29.0390   22.3650 C.3    20  THR20       0.1807
     57  OG1       14.7690   30.0370   21.3400 O.3    20  THR20      -0.2208
     58  CG2       15.4080   27.7490   21.8940 C.3    20  THR20       0.0379
     59  N         12.8030   26.5510   23.7790 N.am   21  PRO21      -0.2715
     60  CA        12.8510   25.6200   24.9150 C.3    21  PRO21       0.1536
     61  C         14.2760   25.3980   25.4290 C.2    21  PRO21       0.2598
     62  O         15.2290   25.2840   24.6480 O.2    21  PRO21      -0.2715
     63  CB        12.3280   24.3090   24.3230 C.3    21  PRO21       0.0310
     64  CG        11.5970   24.6950   23.0890 C.3    21  PRO21       0.0237
     65  CD        12.3030   25.9030   22.5540 C.3    21  PRO21       0.0939
     66  N         14.4120   25.3210   26.7390 N.am   22  MET22      -0.1964
     67  CA        15.6940   25.0000   27.3440 C.3    22  MET22       0.1736
     68  C         16.3090   23.7160   26.7770 C.2    22  MET22       0.2616
     69  O         17.5040   23.6700   26.4820 O.2    22  MET22      -0.2715
     70  CB        15.5320   24.8700   28.8600 C.3    22  MET22       0.0427
     71  CG        15.3880   26.1910   29.5970 C.3    22  MET22       0.0599
     72  SD        15.0450   25.8240   31.3540 S.3    22  MET22      -0.1393
     73  CE        15.1900   27.4670   32.0710 C.3    22  MET22       0.0692
     74  N         15.4930   22.6760   26.6520 N.am   23  GLU23      -0.1977
     75  CA        15.9280   21.3940   26.0830 C.3    23  GLU23       0.1602
     76  C         16.6000   21.6280   24.7240 C.2    23  GLU23       0.2287
     77  O         17.6080   20.9930   24.3820 O.2    23  GLU23      -0.2864
     78  CB        14.7360   20.4900   25.8240 C.3    23  GLU23       0.0415
     79  CG        14.3220   19.5720   26.9420 C.3    23  GLU23       0.1163
     80  CD        13.1980   18.6270   26.4920 C.2    23  GLU23       0.3649
     81  OE1       13.3740   17.9260   25.4670 O.co2  23  GLU23      -0.2457
     82  OE2       12.1390   18.5910   27.1560 O.co2  23  GLU23      -0.2457
     83  N         18.0680   24.4880   23.4660 N.3    25  VAL25      -0.1231
     84  CA        19.3680   25.1220   23.6360 C.3    25  VAL25       0.1692
     85  C         20.4210   24.0770   24.0780 C.2    25  VAL25       0.2591
     86  O         21.5170   24.0390   23.5500 O.2    25  VAL25      -0.2718
     87  CB        19.3400   26.3020   24.6440 C.3    25  VAL25       0.0266
     88  CG1       20.7580   26.8330   24.8400 C.3    25  VAL25       0.0020
     89  CG2       18.3900   27.4400   24.1640 C.3    25  VAL25       0.0020
     90  N         20.0800   23.2220   25.0360 N.am   26  ILE26      -0.1980
     91  CA        21.0110   22.1840   25.4610 C.3    26  ILE26       0.1595
     92  C         21.4860   21.3590   24.2750 C.2    26  ILE26       0.2287
     93  O         22.6740   21.0990   24.1300 O.2    26  ILE26      -0.2864
     94  CB        20.4120   21.2900   26.5450 C.3    26  ILE26       0.0276
     95  CG1       20.1580   22.1180   27.8230 C.3    26  ILE26       0.0022
     96  CG2       21.3700   20.1100   26.8440 C.3    26  ILE26       0.0022
     97  CD1       19.3730   21.3910   28.9130 C.3    26  ILE26       0.0001
     98  N         26.2320   16.9180   28.3400 N.3    37  VAL37      -0.1231
     99  CA        24.9480   17.4350   28.7870 C.3    37  VAL37       0.1692
    100  C         25.1130   18.3330   30.0010 C.2    37  VAL37       0.2591
    101  O         24.5340   19.4160   30.0660 O.2    37  VAL37      -0.2718
    102  CB        23.9720   16.3150   29.1570 C.3    37  VAL37       0.0266
    103  CG1       22.5810   16.9000   29.3700 C.3    37  VAL37       0.0020
    104  CG2       23.9450   15.2620   28.0660 C.3    37  VAL37       0.0020
    105  N         25.9120   17.8760   30.9540 N.am   38  GLU38      -0.1979
    106  CA        26.1810   18.6310   32.1760 C.3    38  GLU38       0.1602
    107  C         26.6510   20.0720   31.9220 C.2    38  GLU38       0.2287
    108  O         26.0430   21.0040   32.3880 O.2    38  GLU38      -0.2864
    109  CB        27.2090   17.8770   33.0410 C.3    38  GLU38       0.0415
    110  CG        26.7490   16.4750   33.5050 C.3    38  GLU38       0.1163
    111  CD        26.8960   15.3920   32.4260 C.2    38  GLU38       0.3649
    112  OE1       27.5730   15.6460   31.3970 O.co2  38  GLU38      -0.2457
    113  OE2       26.3350   14.2810   32.6170 O.co2  38  GLU38      -0.2457
    114  N         23.9900   22.1270   29.8960 N.3    41  THR41      -0.1203
    115  CA        22.8870   22.6200   30.7120 C.3    41  THR41       0.1994
    116  C         23.3120   23.8270   31.5310 C.2    41  THR41       0.2617
    117  O         22.5650   24.7930   31.6490 O.2    41  THR41      -0.2717
    118  CB        22.4160   21.5440   31.7040 C.3    41  THR41       0.1784
    119  OG1       22.0410   20.3720   30.9760 O.3    41  THR41      -0.2211
    120  CG2       21.2280   22.0520   32.5040 C.3    41  THR41       0.0376
    121  N         24.5030   23.7680   32.1120 N.am   42  GLN42      -0.1979
    122  CA        24.9800   24.8750   32.9220 C.3    42  GLN42       0.1601
    123  C         25.1280   26.1280   32.0620 C.2    42  GLN42       0.2287
    124  O         24.8090   27.2560   32.4890 O.2    42  GLN42      -0.2864
    125  CB        26.3020   24.5260   33.6190 C.3    42  GLN42       0.0394
    126  CG        26.9120   25.7400   34.3310 C.3    42  GLN42       0.0908
    127  CD        28.1240   25.4560   35.2190 C.2    42  GLN42       0.2608
    128  OE1       28.6810   26.3920   35.8100 O.2    42  GLN42      -0.2717
    129  NE2       28.5430   24.1920   35.3130 N.am   42  GLN42      -0.0878
    130  N         23.5670   26.7570   29.1470 N.3    44  MET44      -0.1230
    131  CA        22.2140   27.2070   28.8160 C.3    44  MET44       0.1702
    132  C         21.7050   28.0770   29.9570 C.2    44  MET44       0.2592
    133  O         21.1450   29.1650   29.7310 O.2    44  MET44      -0.2718
    134  CB        21.2810   26.0170   28.5800 C.3    44  MET44       0.0401
    135  CG        19.8550   26.4040   28.2580 C.3    44  MET44       0.0596
    136  SD        18.8950   26.6890   29.7670 S.3    44  MET44      -0.1393
    137  CE        18.9170   25.0780   30.5120 C.3    44  MET44       0.0692
    138  N         21.9330   27.6230   31.1850 N.am   45  LEU45      -0.1980
    139  CA        21.4380   28.3720   32.3310 C.3    45  LEU45       0.1596
    140  C         22.1400   29.7180   32.4890 C.2    45  LEU45       0.2287
    141  O         21.5120   30.6890   32.8640 O.2    45  LEU45      -0.2864
    142  CB        21.5270   27.5510   33.6130 C.3    45  LEU45       0.0297
    143  CG        20.4900   26.4410   33.6400 C.3    45  LEU45       0.0022
    144  CD1       20.7050   25.5380   34.8690 C.3    45  LEU45       0.0001
    145  CD2       19.0840   27.0510   33.6160 C.3    45  LEU45       0.0001
    146  N         23.2080   31.5790   30.0670 N.3    47  VAL47      -0.1231
    147  CA        22.4800   32.3710   29.0790 C.3    47  VAL47       0.1692
    148  C         21.1110   32.7810   29.6420 C.2    47  VAL47       0.2592
    149  O         20.7690   33.9560   29.6630 O.2    47  VAL47      -0.2718
    150  CB        22.2870   31.5510   27.7390 C.3    47  VAL47       0.0266
    151  CG1       21.5140   32.3430   26.7040 C.3    47  VAL47       0.0020
    152  CG2       23.6510   31.1050   27.1730 C.3    47  VAL47       0.0020
    153  N         20.3370   31.7830   30.0760 N.am   48  HIS48      -0.1976
    154  CA        19.0040   31.9820   30.5960 C.3    48  HIS48       0.1656
    155  C         18.9760   33.0330   31.7020 C.2    48  HIS48       0.2291
    156  O         18.0980   33.8750   31.7200 O.2    48  HIS48      -0.2864
    157  CB        18.4620   30.6680   31.1360 C.3    48  HIS48       0.0771
    158  CG        17.0640   30.7660   31.6780 C.ar   48  HIS48       0.0820
    159  ND1       16.7900   30.7090   33.0330 N.ar   48  HIS48      -0.2267
    160  CD2       15.8740   30.8950   31.0590 C.ar   48  HIS48       0.1154
    161  CE1       15.4850   30.8060   33.2140 C.ar   48  HIS48       0.1986
    162  NE2       14.9020   30.9160   32.0360 N.ar   48  HIS48      -0.2212
    163  N         15.9080   31.3180   18.5590 N.3    81  LEU81      -0.1245
    164  CA        17.2190   31.3140   19.2220 C.3    81  LEU81       0.1561
    165  C         18.2930   32.0260   18.3990 C.2    81  LEU81       0.2260
    166  O         18.5120   31.6990   17.2120 O.2    81  LEU81      -0.2867
    167  CB        17.6700   29.8980   19.5270 C.3    81  LEU81       0.0270
    168  CG        19.1020   29.8750   20.0690 C.3    81  LEU81       0.0019
    169  CD1       19.1770   30.5120   21.5010 C.3    81  LEU81       0.0001
    170  CD2       19.6230   28.4590   20.0330 C.3    81  LEU81       0.0001
@<TRIPOS>BOND
     1   166   165    2
     2   165   164    1
     3   163   164    1
     4   164   167    1
     5   167   168    1
     6   170   168    1
     7   168   169    1
     8     7     6    1
     9    57    56    1
    10    58    56    1
    11    15    13    1
    12    31    29   ar
    13    56    53    1
    14     6     8    1
    15     6     5    1
    16    44    45    1
    17    44    41    1
    18    65    64    1
    19    65    59    1
    20    13    14    1
    21    13    10    1
    22     2     1    1
    23     2     5    1
    24     2     3    1
    25    47    45   ar
    26    47    49   ar
    27    53    52    1
    28    53    54    1
    29    29    28    1
    30    29    30   ar
    31     9     3   am
    32     9    10    1
    33    52    42   am
    34    45    46   ar
    35    28    25    1
    36    64    63    1
    37    43    42    2
    38    42    41    1
    39    49    50   ar
    40     3     4    2
    41    12    11    2
    42    83    84    1
    43    10    11    1
    44    86    85    2
    45    84    85    1
    46    84    87    1
    47    41    40    1
    48    59    54   am
    49    59    60    1
    50    46    48   ar
    51    54    55    2
    52    11    16   am
    53    85    90   am
    54    93    92    2
    55    50    48   ar
    56    50    51    1
    57    89    87    1
    58    92    91    1
    59    63    60    1
    60    77    76    2
    61    40    34   am
    62    19    18    2
    63    25    24    1
    64    25    26    1
    65    87    88    1
    66    62    61    2
    67    76    75    1
    68    60    61    1
    69    24    18   am
    70    18    17    1
    71    90    91    1
    72    16    17    1
    73    32    26   am
    74    32    33    1
    75    26    27    2
    76    61    66   am
    77    91    94    1
    78    81    80   ar
    79    34    33    1
    80    34    35    2
    81    17    20    1
    82    78    75    1
    83    78    79    1
    84    75    74    1
    85    33    36    1
    86    69    68    2
    87    80    79    1
    88    80    82   ar
    89    94    96    1
    90    94    95    1
    91    36    37    1
    92    74    68   am
    93   151   150    1
    94    66    67    1
    95    68    67    1
    96   152   150    1
    97    20    21    1
    98    39    37   ar
    99    67    70    1
   100    37    38   ar
   101   150   147    1
   102    95    97    1
   103    22    21    2
   104    21    23   am
   105   104   102    1
   106   135   134    1
   107   135   136    1
   108    98    99    1
   109   134   131    1
   110    99   102    1
   111    99   100    1
   112   131   130    1
   113   131   132    1
   114    70    71    1
   115   147   148    1
   116   147   146    1
   117   102   103    1
   118    71    72    1
   119   148   149    2
   120   148   153   am
   121   133   132    2
   122   136   137    1
   123   114   115    1
   124   132   138   am
   125   100   101    2
   126   100   105   am
   127   153   154    1
   128   154   157    1
   129   154   155    1
   130   115   116    1
   131   115   118    1
   132   105   106    1
   133   119   118    1
   134   160   158   ar
   135   160   162   ar
   136   157   158    1
   137   138   139    1
   138    72    73    1
   139   112   111   ar
   140   116   117    2
   141   116   121   am
   142   158   159   ar
   143   155   156    2
   144   118   120    1
   145   107   106    1
   146   107   108    2
   147   162   161   ar
   148   123   124    2
   149   123   122    1
   150   121   122    1
   151   106   109    1
   152   139   140    1
   153   139   142    1
   154   111   113   ar
   155   111   110    1
   156   140   141    2
   157   122   125    1
   158   159   161   ar
   159   109   110    1
   160   142   143    1
   161   145   143    1
   162   125   126    1
   163   143   144    1
   164   126   127    1
   165   127   129   am
   166   127   128    2
