@<TRIPOS>MOLECULE
tmp/2wa9G00.pdb
 98 96 0 0 0
SMALL
GASTEIGER

@<TRIPOS>ATOM
      1  N         21.4910   18.1500  -16.9410 N.3    11  ASN11      -0.1225
      2  CA        22.8970   18.0010  -16.5600 C.3    11  ASN11       0.1785
      3  C         23.2360   18.2790  -15.0960 C.2    11  ASN11       0.2597
      4  O         22.6680   19.1630  -14.4760 O.2    11  ASN11      -0.2718
      5  CB        23.7610   18.9010  -17.4520 C.3    11  ASN11       0.1169
      6  CG        25.2640   18.5530  -17.3940 C.2    11  ASN11       0.2627
      7  OD1       25.6430   17.3960  -17.4640 O.2    11  ASN11      -0.2716
      8  ND2       26.1050   19.5540  -17.2660 N.am   11  ASN11      -0.0877
      9  N         24.1830   17.5120  -14.5630 N.am   12  ASP12      -0.1960
     10  CA        24.7640   17.7680  -13.2500 C.3    12  ASP12       0.1840
     11  C         26.1970   17.2590  -13.2680 C.2    12  ASP12       0.2622
     12  O         26.4830   16.3440  -13.9880 O.2    12  ASP12      -0.2715
     13  CB        23.9440   17.0850  -12.1510 C.3    12  ASP12       0.1450
     14  CG        23.9150   15.5950  -12.2990 C.2    12  ASP12       0.3671
     15  OD1       24.9470   14.9490  -11.9780 O.co2  12  ASP12      -0.2456
     16  OD2       22.8720   15.0740  -12.7530 O.co2  12  ASP12      -0.2456
     17  N         27.0820   17.8510  -12.4730 N.am   13  ASP13      -0.1957
     18  CA        28.5070   17.5400  -12.5140 C.3    13  ASP13       0.1840
     19  C         28.8470   16.1730  -11.9160 C.2    13  ASP13       0.2622
     20  O         30.0270   15.8070  -11.8250 O.2    13  ASP13      -0.2715
     21  CB        29.3070   18.6230  -11.7860 C.3    13  ASP13       0.1450
     22  CG        29.0960   20.0160  -12.3740 C.2    13  ASP13       0.3671
     23  OD1       28.5800   20.1430  -13.4960 O.co2  13  ASP13      -0.2456
     24  OD2       29.4500   21.0150  -11.7100 O.co2  13  ASP13      -0.2456
     25  N         27.8340   15.4140  -11.5170 N.am   14  TYR14      -0.1960
     26  CA        28.1000   14.2720  -10.6540 C.3    14  TYR14       0.1771
     27  C         27.7260   12.8920  -11.2080 C.2    14  TYR14       0.2620
     28  O         28.4170   11.9000  -10.9460 O.2    14  TYR14      -0.2715
     29  CB        27.4840   14.5190   -9.2660 C.3    14  TYR14       0.0574
     30  CG        28.1090   15.7220   -8.6140 C.ar   14  TYR14      -0.0198
     31  CD1       29.4270   15.6780   -8.1420 C.ar   14  TYR14      -0.0009
     32  CD2       27.4250   16.9320   -8.5440 C.ar   14  TYR14      -0.0009
     33  CE1       30.0250   16.8030   -7.5860 C.ar   14  TYR14       0.0417
     34  CE2       28.0190   18.0630   -7.9910 C.ar   14  TYR14       0.0417
     35  CZ        29.3140   17.9870   -7.5090 C.ar   14  TYR14       0.1957
     36  OH        29.9070   19.0970   -6.9560 O.3    14  TYR14      -0.2866
     37  N         26.6400   12.8390  -11.9650 N.am   15  THR15      -0.1937
     38  CA        26.1970   11.6070  -12.5500 C.3    15  THR15       0.2013
     39  C         27.2080   11.1130  -13.6130 C.2    15  THR15       0.2484
     40  O         27.5210   11.8290  -14.5820 O.2    15  THR15      -0.2729
     41  CB        24.8330   11.7910  -13.2190 C.3    15  THR15       0.1807
     42  OG1       23.9100   12.3980  -12.3090 O.3    15  THR15      -0.2208
     43  CG2       24.2690   10.4550  -13.6800 C.3    15  THR15       0.0379
     44  N         27.7090    9.8820  -13.4430 N.am   16  PRO16      -0.2715
     45  CA        28.5880    9.3050  -14.4270 C.3    16  PRO16       0.1536
     46  C         27.9330    9.2860  -15.7950 C.2    16  PRO16       0.2598
     47  O         26.6870    9.2970  -15.8790 O.2    16  PRO16      -0.2715
     48  CB        28.7780    7.8740  -13.9200 C.3    16  PRO16       0.0310
     49  CG        28.5720    7.9640  -12.4550 C.3    16  PRO16       0.0237
     50  CD        27.5790    9.0380  -12.2400 C.3    16  PRO16       0.0939
     51  N         28.7730    9.2440  -16.8420 N.am   17  MET17      -0.1978
     52  CA        28.2970    9.2200  -18.2090 C.3    17  MET17       0.1605
     53  C         27.7930    7.8270  -18.4970 C.2    17  MET17       0.2287
     54  O         26.7600    7.6670  -19.1580 O.2    17  MET17      -0.2864
     55  CB        29.3920    9.6700  -19.1790 C.3    17  MET17       0.0413
     56  CG        29.6470   11.1580  -19.1350 C.3    17  MET17       0.0598
     57  SD        31.2720   11.6290  -19.7000 S.3    17  MET17      -0.1393
     58  CE        31.0560   13.3620  -20.0020 C.3    17  MET17       0.0692
     59  N         24.1660    7.6060  -17.5010 N.3    20  VAL20      -0.1245
     60  CA        23.2570    8.2280  -18.4790 C.3    20  VAL20       0.1561
     61  C         23.0870    7.3340  -19.7140 C.2    20  VAL20       0.2260
     62  O         22.0020    7.2220  -20.2600 O.2    20  VAL20      -0.2867
     63  CB        23.7760    9.6370  -18.8890 C.3    20  VAL20       0.0252
     64  CG1       22.9950   10.2190  -20.0750 C.3    20  VAL20       0.0019
     65  CG2       23.7280   10.5620  -17.6900 C.3    20  VAL20       0.0019
     66  N         24.0700   11.6090  -24.6050 N.3    39  MET39      -0.1245
     67  CA        24.8620   11.7880  -23.3940 C.3    39  MET39       0.1570
     68  C         25.7890   13.0020  -23.4870 C.2    39  MET39       0.2261
     69  O         25.7970   13.8390  -22.6020 O.2    39  MET39      -0.2867
     70  CB        25.6100   10.5140  -23.0570 C.3    39  MET39       0.0387
     71  CG        26.3740   10.5920  -21.7990 C.3    39  MET39       0.0595
     72  SD        27.9200   11.3480  -22.1310 S.3    39  MET39      -0.1393
     73  CE        28.7830    9.9450  -22.9190 C.3    39  MET39       0.0692
     74  N         23.6460   16.1220  -23.2330 N.3    42  VAL42      -0.1231
     75  CA        23.3460   16.5070  -21.8660 C.3    42  VAL42       0.1692
     76  C         24.5850   17.1370  -21.2490 C.2    42  VAL42       0.2592
     77  O         24.5210   18.1450  -20.5410 O.2    42  VAL42      -0.2718
     78  CB        22.8830   15.3170  -20.9890 C.3    42  VAL42       0.0266
     79  CG1       22.5280   15.8320  -19.5760 C.3    42  VAL42       0.0020
     80  CG2       21.6740   14.5820  -21.6080 C.3    42  VAL42       0.0020
     81  N         25.7290   16.5580  -21.5440 N.am   43  HIS43      -0.1976
     82  CA        26.9500   17.0300  -20.9220 C.3    43  HIS43       0.1656
     83  C         27.3790   18.4330  -21.3680 C.2    43  HIS43       0.2291
     84  O         27.8480   19.2390  -20.5560 O.2    43  HIS43      -0.2864
     85  CB        28.0770   16.0410  -21.1280 C.3    43  HIS43       0.0771
     86  CG        29.3010   16.3730  -20.3450 C.ar   43  HIS43       0.0820
     87  ND1       30.4650   16.8050  -20.9390 N.ar   43  HIS43      -0.2267
     88  CD2       29.5460   16.3390  -19.0180 C.ar   43  HIS43       0.1154
     89  CE1       31.3820   17.0090  -20.0120 C.ar   43  HIS43       0.1986
     90  NE2       30.8480   16.7280  -18.8370 N.ar   43  HIS43      -0.2212
     91  N         20.8840   12.5780  -10.8800 N.3    76  LEU76      -0.1245
     92  CA        20.3460   12.8660  -12.2130 C.3    76  LEU76       0.1561
     93  C         18.8750   13.2510  -12.2020 C.2    76  LEU76       0.2260
     94  O         18.0210   12.4860  -11.7640 O.2    76  LEU76      -0.2867
     95  CB        20.5610   11.6950  -13.1570 C.3    76  LEU76       0.0270
     96  CG        20.1930   11.9340  -14.6360 C.3    76  LEU76       0.0019
     97  CD1       21.1010   13.0130  -15.2690 C.3    76  LEU76       0.0001
     98  CD2       20.2580   10.6400  -15.4270 C.3    76  LEU76       0.0001
@<TRIPOS>BOND
     1    66    67    1
     2    68    67    1
     3    68    69    2
     4    67    70    1
     5    74    75    1
     6    70    71    1
     7    73    72    1
     8    72    71    1
     9    75    76    1
    10    75    78    1
    11    80    78    1
    12    81    76   am
    13    81    82    1
    14    83    82    1
    15    83    84    2
    16    76    77    2
    17    85    82    1
    18    85    86    1
    19    78    79    1
    20    87    86   ar
    21    87    89   ar
    22    86    88   ar
    23    62    61    2
    24    64    63    1
    25    89    90   ar
    26    58    57    1
    27    61    60    1
    28    57    56    1
    29    55    56    1
    30    55    52    1
    31    54    53    2
    32    88    90   ar
    33    63    60    1
    34    63    65    1
    35    53    52    1
    36    60    59    1
    37    52    51    1
    38     7     6    2
    39     5     6    1
    40     5     2    1
    41     6     8   am
    42     1     2    1
    43    51    46   am
    44     2     3    1
    45    47    46    2
    46    46    45    1
    47    98    96    1
    48    97    96    1
    49     3     9   am
    50     3     4    2
    51    96    95    1
    52    40    39    2
    53     9    10    1
    54    45    48    1
    55    45    44    1
    56    12    11    2
    57    48    49    1
    58    43    41    1
    59    39    44   am
    60    39    38    1
    61    23    22   ar
    62    44    50    1
    63    11    10    1
    64    11    17   am
    65    10    13    1
    66    41    38    1
    67    41    42    1
    68    95    92    1
    69    16    14   ar
    70    38    37    1
    71    18    17    1
    72    18    19    1
    73    18    21    1
    74    49    50    1
    75    22    21    1
    76    22    24   ar
    77    14    13    1
    78    14    15   ar
    79    92    93    1
    80    92    91    1
    81    93    94    2
    82    37    27   am
    83    19    20    2
    84    19    25   am
    85    25    26    1
    86    27    28    2
    87    27    26    1
    88    26    29    1
    89    29    30    1
    90    30    32   ar
    91    30    31   ar
    92    32    34   ar
    93    31    33   ar
    94    34    35   ar
    95    33    35   ar
    96    35    36    1
