@<TRIPOS>MOLECULE
tmp/2wa9E00.pdb
 107 105 0 0 0
SMALL
GASTEIGER

@<TRIPOS>ATOM
      1  N         68.3670  -24.8400  -20.2790 N.3    12  ASN12      -0.1225
      2  CA        68.1950  -23.4360  -19.8390 C.3    12  ASN12       0.1785
      3  C         68.8280  -22.3680  -20.7410 C.2    12  ASN12       0.2597
      4  O         69.8930  -22.5910  -21.3330 O.2    12  ASN12      -0.2718
      5  CB        68.7170  -23.2660  -18.3980 C.3    12  ASN12       0.1169
      6  CG        68.2960  -21.9460  -17.7640 C.2    12  ASN12       0.2627
      7  OD1       67.1310  -21.5520  -17.8300 O.2    12  ASN12      -0.2716
      8  ND2       69.2450  -21.2630  -17.1360 N.am   12  ASN12      -0.0877
      9  N         68.1530  -21.2190  -20.8330 N.am   13  ASP13      -0.1960
     10  CA        68.6910  -20.0110  -21.4770 C.3    13  ASP13       0.1840
     11  C         68.0480  -18.8110  -20.8030 C.2    13  ASP13       0.2622
     12  O         66.9140  -18.9050  -20.3070 O.2    13  ASP13      -0.2715
     13  CB        68.4590  -19.9990  -23.0090 C.3    13  ASP13       0.1450
     14  CG        66.9720  -20.0280  -23.3930 C.2    13  ASP13       0.3671
     15  OD1       66.3390  -18.9540  -23.3780 O.co2  13  ASP13      -0.2456
     16  OD2       66.4450  -21.1250  -23.7320 O.co2  13  ASP13      -0.2456
     17  N         68.7660  -17.6870  -20.7920 N.am   14  ASP14      -0.1957
     18  CA        68.3330  -16.4780  -20.0880 C.3    14  ASP14       0.1840
     19  C         67.1700  -15.7480  -20.7380 C.2    14  ASP14       0.2622
     20  O         66.7890  -14.6670  -20.2770 O.2    14  ASP14      -0.2715
     21  CB        69.5100  -15.5020  -19.9750 C.3    14  ASP14       0.1450
     22  CG        70.6710  -16.0790  -19.2000 C.2    14  ASP14       0.3671
     23  OD1       70.4760  -17.0970  -18.4940 O.co2  14  ASP14      -0.2456
     24  OD2       71.7790  -15.5090  -19.2940 O.co2  14  ASP14      -0.2456
     25  N         66.6080  -16.3110  -21.8010 N.am   15  TYR15      -0.1960
     26  CA        65.7470  -15.5290  -22.6780 C.3    15  TYR15       0.1771
     27  C         64.3320  -16.0290  -22.8070 C.2    15  TYR15       0.2620
     28  O         63.3990  -15.2430  -22.8940 O.2    15  TYR15      -0.2715
     29  CB        66.4170  -15.3170  -24.0430 C.3    15  TYR15       0.0574
     30  CG        67.7110  -14.5410  -23.8860 C.ar   15  TYR15      -0.0198
     31  CD1       67.6910  -13.1830  -23.5860 C.ar   15  TYR15      -0.0009
     32  CD2       68.9460  -15.1770  -23.9750 C.ar   15  TYR15      -0.0009
     33  CE1       68.8660  -12.4720  -23.4040 C.ar   15  TYR15       0.0417
     34  CE2       70.1300  -14.4740  -23.7940 C.ar   15  TYR15       0.0417
     35  CZ        70.0800  -13.1230  -23.5090 C.ar   15  TYR15       0.1957
     36  OH        71.2440  -12.4110  -23.3320 O.3    15  TYR15      -0.2866
     37  N         64.1740  -17.3390  -22.7930 N.am   16  THR16      -0.1937
     38  CA        62.8680  -17.9540  -22.9180 C.3    16  THR16       0.2013
     39  C         62.0430  -17.6810  -21.6730 C.2    16  THR16       0.2484
     40  O         62.4390  -18.0870  -20.5810 O.2    16  THR16      -0.2729
     41  CB        62.9990  -19.4590  -23.1220 C.3    16  THR16       0.1807
     42  OG1       63.8300  -19.7040  -24.2700 O.3    16  THR16      -0.2208
     43  CG2       61.6200  -20.0890  -23.3240 C.3    16  THR16       0.0379
     44  N         60.8940  -16.9960  -21.8370 N.am   17  PRO17      -0.2715
     45  CA        59.9260  -16.8100  -20.7640 C.3    17  PRO17       0.1536
     46  C         59.5630  -18.1250  -20.0710 C.2    17  PRO17       0.2598
     47  O         59.5460  -19.1970  -20.6870 O.2    17  PRO17      -0.2715
     48  CB        58.6870  -16.2970  -21.4890 C.3    17  PRO17       0.0310
     49  CG        59.1870  -15.6750  -22.7250 C.3    17  PRO17       0.0237
     50  CD        60.4470  -16.3860  -23.1010 C.3    17  PRO17       0.0939
     51  N         59.2600  -18.0140  -18.7860 N.am   18  MET18      -0.1964
     52  CA        58.8130  -19.1310  -17.9740 C.3    18  MET18       0.1736
     53  C         57.4140  -19.5690  -18.3480 C.2    18  MET18       0.2616
     54  O         57.1110  -20.7620  -18.2980 O.2    18  MET18      -0.2715
     55  CB        58.8460  -18.7570  -16.5000 C.3    18  MET18       0.0427
     56  CG        60.2510  -18.5680  -15.9390 C.3    18  MET18       0.0599
     57  SD        60.2360  -17.8530  -14.2550 S.3    18  MET18      -0.1393
     58  CE        61.9770  -18.0200  -13.7980 C.3    18  MET18       0.0692
     59  N         56.5580  -18.6230  -18.7200 N.am   19  GLU19      -0.1977
     60  CA        55.2280  -18.9610  -19.2270 C.3    19  GLU19       0.1602
     61  C         55.3630  -19.9190  -20.4100 C.2    19  GLU19       0.2287
     62  O         54.6270  -20.9070  -20.5220 O.2    19  GLU19      -0.2864
     63  CB        54.4500  -17.7070  -19.6570 C.3    19  GLU19       0.0415
     64  CG        54.3410  -16.5840  -18.5920 C.3    19  GLU19       0.1163
     65  CD        53.6130  -17.0200  -17.3170 C.2    19  GLU19       0.3649
     66  OE1       52.4140  -17.3620  -17.3980 O.co2  19  GLU19      -0.2457
     67  OE2       54.2410  -17.0150  -16.2300 O.co2  19  GLU19      -0.2457
     68  N         57.8280  -22.0220  -21.2050 N.3    21  VAL21      -0.1245
     69  CA        58.2480  -23.3360  -20.7740 C.3    21  VAL21       0.1561
     70  C         57.0490  -24.1000  -20.1840 C.2    21  VAL21       0.2260
     71  O         56.8800  -25.3030  -20.4060 O.2    21  VAL21      -0.2867
     72  CB        59.4130  -23.2390  -19.7820 C.3    21  VAL21       0.0252
     73  CG1       59.7360  -24.6030  -19.1910 C.3    21  VAL21       0.0019
     74  CG2       60.6360  -22.6460  -20.4840 C.3    21  VAL21       0.0019
     75  N         59.7540  -26.3000  -14.5560 N.3    40  MET40      -0.1245
     76  CA        60.1570  -25.0010  -15.0500 C.3    40  MET40       0.1570
     77  C         61.2220  -24.3910  -14.1330 C.2    40  MET40       0.2261
     78  O         62.3130  -24.0460  -14.5930 O.2    40  MET40      -0.2867
     79  CB        58.9440  -24.1000  -15.2430 C.3    40  MET40       0.0387
     80  CG        59.3030  -22.7360  -15.7620 C.3    40  MET40       0.0595
     81  SD        59.6850  -21.7300  -14.3400 S.3    40  MET40      -0.1393
     82  CE        58.0440  -21.4850  -13.6640 C.3    40  MET40       0.0692
     83  N         64.4920  -26.2350  -14.6600 N.3    43  VAL43      -0.1231
     84  CA        65.2740  -25.7850  -15.8190 C.3    43  VAL43       0.1692
     85  C         65.9580  -24.4560  -15.4830 C.2    43  VAL43       0.2592
     86  O         67.1410  -24.2490  -15.7910 O.2    43  VAL43      -0.2718
     87  CB        64.4180  -25.6480  -17.1080 C.3    43  VAL43       0.0266
     88  CG1       65.2790  -25.2060  -18.2770 C.3    43  VAL43       0.0020
     89  CG2       63.7430  -26.9950  -17.4550 C.3    43  VAL43       0.0020
     90  N         65.2130  -23.5780  -14.8160 N.am   44  HIS44      -0.1976
     91  CA        65.7100  -22.2620  -14.4680 C.3    44  HIS44       0.1656
     92  C         66.8660  -22.2650  -13.4780 C.2    44  HIS44       0.2291
     93  O         67.8120  -21.5040  -13.6450 O.2    44  HIS44      -0.2864
     94  CB        64.5910  -21.3830  -13.9270 C.3    44  HIS44       0.0771
     95  CG        64.9880  -19.9520  -13.7820 C.ar   44  HIS44       0.0820
     96  ND1       65.1480  -19.3470  -12.5540 N.ar   44  HIS44      -0.2267
     97  CD2       65.3060  -19.0160  -14.7080 C.ar   44  HIS44       0.1154
     98  CE1       65.5300  -18.0950  -12.7320 C.ar   44  HIS44       0.1986
     99  NE2       65.6320  -17.8700  -14.0290 N.ar   44  HIS44      -0.2212
    100  N         64.7260  -21.5780  -26.9410 N.3    77  LEU77      -0.1245
    101  CA        64.6700  -22.7760  -26.0930 C.3    77  LEU77       0.1561
    102  C         65.1700  -24.0420  -26.8060 C.2    77  LEU77       0.2260
    103  O         64.6110  -24.4530  -27.8280 O.2    77  LEU77      -0.2867
    104  CB        63.2600  -22.9890  -25.5160 C.3    77  LEU77       0.0270
    105  CG        63.1160  -24.1200  -24.4860 C.3    77  LEU77       0.0019
    106  CD1       63.9030  -23.8290  -23.2070 C.3    77  LEU77       0.0001
    107  CD2       61.6470  -24.4040  -24.1650 C.3    77  LEU77       0.0001
@<TRIPOS>BOND
     1   103   102    2
     2   100   101    1
     3   102   101    1
     4   101   104    1
     5   104   105    1
     6   105   107    1
     7   105   106    1
     8    42    41    1
     9    29    30    1
    10    29    26    1
    11    32    30   ar
    12    32    34   ar
    13    30    31   ar
    14    34    35   ar
    15    16    14   ar
    16    31    33   ar
    17    35    33   ar
    18    35    36    1
    19    14    15   ar
    20    14    13    1
    21    43    41    1
    22    41    38    1
    23    50    49    1
    24    50    44    1
    25    13    10    1
    26    38    37    1
    27    38    39    1
    28    28    27    2
    29    27    37   am
    30    27    26    1
    31    49    48    1
    32    26    25    1
    33    44    39   am
    34    44    45    1
    35    25    19   am
    36    39    40    2
    37    48    45    1
    38    10     9    1
    39    10    11    1
    40     4     3    2
    41    68    69    1
    42     9     3   am
    43    11    17   am
    44    11    12    2
    45    17    18    1
    46    69    70    1
    47    69    72    1
    48    45    46    1
    49     3     2    1
    50    19    20    2
    51    19    18    1
    52    47    46    2
    53    62    61    2
    54    74    72    1
    55    61    60    1
    56    71    70    2
    57     1     2    1
    58    18    21    1
    59    46    51   am
    60    21    22    1
    61     2     5    1
    62    72    73    1
    63    63    60    1
    64    63    64    1
    65    24    22   ar
    66    60    59    1
    67    22    23   ar
    68    51    52    1
    69    59    53   am
    70    64    65    1
    71     5     6    1
    72    53    54    2
    73    53    52    1
    74    88    87    1
    75    52    55    1
    76     7     6    2
    77     6     8   am
    78    89    87    1
    79    66    65   ar
    80    65    67   ar
    81    87    84    1
    82    55    56    1
    83    56    57    1
    84    84    85    1
    85    84    83    1
    86    86    85    2
    87    80    79    1
    88    80    81    1
    89    85    90   am
    90    79    76    1
    91    76    75    1
    92    76    77    1
    93    90    91    1
    94    97    99   ar
    95    97    95   ar
    96    78    77    2
    97    91    94    1
    98    91    92    1
    99    81    82    1
   100    57    58    1
   101    99    98   ar
   102    94    95    1
   103    95    96   ar
   104    93    92    2
   105    98    96   ar
