@<TRIPOS>MOLECULE
tmp/2wabA00.pdb
 160 157 0 0 0
SMALL
GASTEIGER

@<TRIPOS>ATOM
      1  N          9.0640   48.6600   11.8070 N.3   123  ASP123     -0.1225
      2  CA         8.4490   47.3760   12.1760 C.3   123  ASP123      0.1805
      3  C          9.5250   46.3330   12.5500 C.2   123  ASP123      0.2597
      4  O         10.5800   46.7270   13.0300 O.2   123  ASP123     -0.2718
      5  CB         7.4740   46.9190   11.0460 C.3   123  ASP123      0.1424
      6  CG         8.1560   46.7730    9.6770 C.2   123  ASP123      0.3668
      7  OD1        9.3930   46.4720    9.5670 O.co2 123  ASP123     -0.2456
      8  OD2        7.4290   46.9370    8.6680 O.co2 123  ASP123     -0.2456
      9  N          9.2960   45.0400   12.3070 N.am  124  ALA124     -0.1979
     10  CA        10.2980   43.9680   12.5440 C.3   124  ALA124      0.1597
     11  C         11.6520   44.2850   11.9030 C.2   124  ALA124      0.2287
     12  O         12.6830   43.9370   12.4470 O.2   124  ALA124     -0.2864
     13  CB         9.8040   42.6210   11.9870 C.3   124  ALA124      0.0319
     14  N         14.3830   41.9220   14.1520 N.3   129  TYR129     -0.1241
     15  CA        13.7680   40.5980   14.3830 C.3   129  TYR129      0.1605
     16  C         14.5510   39.4950   13.6460 C.2   129  TYR129      0.2264
     17  O         14.8010   39.6020   12.4860 O.2   129  TYR129     -0.2867
     18  CB        12.3230   40.6950   13.8920 C.3   129  TYR129      0.0534
     19  CG        11.4260   39.4680   13.9010 C.ar  129  TYR129     -0.0201
     20  CD1       10.1410   39.5490   14.4770 C.ar  129  TYR129     -0.0009
     21  CD2       11.7760   38.2830   13.2280 C.ar  129  TYR129     -0.0009
     22  CE1        9.2540   38.4910   14.4300 C.ar  129  TYR129      0.0417
     23  CE2       10.8510   37.1890   13.1760 C.ar  129  TYR129      0.0417
     24  CZ         9.6070   37.3140   13.7910 C.ar  129  TYR129      0.1957
     25  OH         8.6810   36.2710   13.7540 O.3   129  TYR129     -0.2866
     26  N          7.5810   44.8910   15.9710 N.3   169  SER169     -0.1202
     27  CA         7.4810   43.8280   14.9200 C.3   169  SER169      0.2020
     28  C          5.9980   43.5700   14.6510 C.2   169  SER169      0.2619
     29  O          5.1900   43.4980   15.6100 O.2   169  SER169     -0.2717
     30  CB         8.2000   42.5250   15.3110 C.3   169  SER169      0.2103
     31  OG         9.5960   42.7930   15.4330 O.3   169  SER169     -0.2182
     32  N          5.6500   43.4730   13.3680 N.am  170  GLY170     -0.1956
     33  CA         4.2640   43.1760   12.9450 C.3   170  GLY170      0.1869
     34  C          3.4240   44.4340   12.7830 C.2   170  GLY170      0.2309
     35  O          2.2740   44.3760   12.2920 O.2   170  GLY170     -0.2863
     36  N          0.4520   42.7630   10.9360 N.3   177  TYR177     -0.1241
     37  CA         0.6990   41.5420   10.1500 C.3   177  TYR177      0.1605
     38  C         -0.5100   40.5920   10.1840 C.2   177  TYR177      0.2264
     39  O         -1.0860   40.3310   11.2610 O.2   177  TYR177     -0.2867
     40  CB         1.9380   40.8120   10.6510 C.3   177  TYR177      0.0534
     41  CG         2.0750   39.4480   10.0170 C.ar  177  TYR177     -0.0201
     42  CD1        2.5890   39.2910    8.7430 C.ar  177  TYR177     -0.0009
     43  CD2        1.6100   38.3300   10.6840 C.ar  177  TYR177     -0.0009
     44  CE1        2.6800   38.0090    8.1650 C.ar  177  TYR177      0.0417
     45  CE2        1.6960   37.0900   10.1440 C.ar  177  TYR177      0.0417
     46  CZ         2.2390   36.9300    8.9100 C.ar  177  TYR177      0.1957
     47  OH         2.2880   35.6540    8.4440 O.3   177  TYR177     -0.2866
     48  N          5.5330   47.0130    5.0400 N.3   216  THR216     -0.1203
     49  CA         5.6540   45.5640    4.8250 C.3   216  THR216      0.1994
     50  C          4.3990   44.8540    5.3640 C.2   216  THR216      0.2617
     51  O          3.8290   43.9950    4.6770 O.2   216  THR216     -0.2717
     52  CB         6.9640   44.9930    5.4330 C.3   216  THR216      0.1784
     53  OG1        8.0800   45.6190    4.7980 O.3   216  THR216     -0.2211
     54  CG2        7.0810   43.4590    5.2610 C.3   216  THR216      0.0376
     55  N          3.9000   45.2420    6.5340 N.am  217  ASN217     -0.1974
     56  CA         2.7190   44.5460    7.0810 C.3   217  ASN217      0.1688
     57  C          1.4040   44.9150    6.4120 C.2   217  ASN217      0.2292
     58  O          0.4190   44.1630    6.4940 O.2   217  ASN217     -0.2864
     59  CB         2.6460   44.6980    8.6000 C.3   217  ASN217      0.1181
     60  CG         3.7680   43.9530    9.2970 C.2   217  ASN217      0.2629
     61  OD1        3.8490   42.7420    9.2050 O.2   217  ASN217     -0.2716
     62  ND2        4.6400   44.6680    9.9890 N.am  217  ASN217     -0.0877
     63  N          1.9670   42.4750    3.0250 N.3   220  SER220     -0.1217
     64  CA         2.6010   41.1490    2.9950 C.3   220  SER220      0.1889
     65  C          1.5830   40.0040    2.9110 C.2   220  SER220      0.2288
     66  O          1.9790   38.8740    2.6420 O.2   220  SER220     -0.2866
     67  CB         3.5310   40.9430    4.1970 C.3   220  SER220      0.2089
     68  OG         2.7930   40.9900    5.3880 O.3   220  SER220     -0.2183
     69  N         11.9570   43.4060    2.2480 N.3   256  MET256     -0.1245
     70  CA        11.1850   42.1730    2.4160 C.3   256  MET256      0.1570
     71  C          9.9130   42.0700    1.5510 C.2   256  MET256      0.2261
     72  O          9.3470   40.9890    1.3860 O.2   256  MET256     -0.2867
     73  CB        10.7690   42.0260    3.8840 C.3   256  MET256      0.0387
     74  CG        11.9280   41.7410    4.8950 C.3   256  MET256      0.0595
     75  SD        11.1820   41.4070    6.4960 S.3   256  MET256     -0.1393
     76  CE        10.4000   39.7590    6.2790 C.3   256  MET256      0.0692
     77  N          7.8400   41.8780   -1.9190 N.3   258  TRP258     -0.1241
     78  CA         8.1600   41.2120   -3.1730 C.3   258  TRP258      0.1605
     79  C          6.9410   41.3340   -4.0590 C.2   258  TRP258      0.2264
     80  O          5.8060   41.5900   -3.5700 O.2   258  TRP258     -0.2867
     81  CB         8.4840   39.7290   -2.9340 C.3   258  TRP258      0.0550
     82  CG         7.2880   38.9950   -2.3770 C.ar  258  TRP258      0.0003
     83  CD1        6.8910   38.9440   -1.0600 C.ar  258  TRP258      0.0946
     84  CD2        6.2860   38.2890   -3.1260 C.ar  258  TRP258      0.0152
     85  NE1        5.7270   38.2250   -0.9480 N.ar  258  TRP258     -0.2442
     86  CE2        5.3330   37.8100   -2.1970 C.ar  258  TRP258      0.0810
     87  CE3        6.1360   37.9660   -4.4820 C.ar  258  TRP258      0.0012
     88  CZ2        4.2120   37.0450   -2.5880 C.ar  258  TRP258      0.0191
     89  CZ3        5.0140   37.2240   -4.8710 C.ar  258  TRP258      0.0001
     90  CH2        4.0790   36.7620   -3.9340 C.ar  258  TRP258      0.0015
     91  N         15.1790   44.3280   -2.9890 N.3   291  GLN291     -0.1231
     92  CA        14.6520   43.1300   -2.4040 C.3   291  GLN291      0.1698
     93  C         15.7610   42.1300   -2.1090 C.2   291  GLN291      0.2592
     94  O         16.6980   41.9870   -2.8880 O.2   291  GLN291     -0.2718
     95  CB        13.5680   42.5720   -3.3270 C.3   291  GLN291      0.0381
     96  CG        12.7720   41.4840   -2.7340 C.3   291  GLN291      0.0905
     97  CD        11.9550   40.7420   -3.8020 C.2   291  GLN291      0.2608
     98  OE1       11.6190   41.3020   -4.8730 O.2   291  GLN291     -0.2717
     99  NE2       11.6440   39.4840   -3.5160 N.am  291  GLN291     -0.0878
    100  N         15.7080   41.4550   -0.9520 N.am  292  GLN292     -0.1966
    101  CA        16.7450   40.4860   -0.6510 C.3   292  GLN292      0.1733
    102  C         16.5210   39.2860   -1.5830 C.2   292  GLN292      0.2616
    103  O         15.3790   38.9540   -1.9400 O.2   292  GLN292     -0.2715
    104  CB        16.7450   40.0870    0.8310 C.3   292  GLN292      0.0408
    105  CG        15.3740   39.8430    1.3660 C.3   292  GLN292      0.0908
    106  CD        15.3000   39.6440    2.8810 C.2   292  GLN292      0.2608
    107  OE1       16.2300   39.9340    3.6240 O.2   292  GLN292     -0.2717
    108  NE2       14.1760   39.1160    3.3280 N.am  292  GLN292     -0.0878
    109  N         17.6190   38.6700   -1.9980 N.am  293  ASP293     -0.1971
    110  CA        17.5850   37.6830   -3.0570 C.3   293  ASP293      0.1709
    111  C         18.1900   36.3450   -2.6750 C.2   293  ASP293      0.2293
    112  O         18.4940   35.5250   -3.5520 O.2   293  ASP293     -0.2864
    113  CB        18.3190   38.2610   -4.2780 C.3   293  ASP293      0.1436
    114  CG        19.7950   38.6140   -3.9830 C.2   293  ASP293      0.3671
    115  OD1       20.3540   38.1890   -2.9260 O.co2 293  ASP293     -0.2456
    116  OD2       20.4070   39.3400   -4.8270 O.co2 293  ASP293     -0.2456
    117  N         19.0370   34.5550    5.0380 N.3   298  TYR298     -0.1241
    118  CA        17.8320   35.1000    5.6760 C.3   298  TYR298      0.1605
    119  C         17.8980   34.8410    7.1700 C.2   298  TYR298      0.2264
    120  O         18.4410   33.8050    7.6260 O.2   298  TYR298     -0.2867
    121  CB        16.5820   34.3580    5.1890 C.3   298  TYR298      0.0534
    122  CG        16.2660   34.5610    3.7260 C.ar  298  TYR298     -0.0201
    123  CD1       15.5110   35.6730    3.3000 C.ar  298  TYR298     -0.0009
    124  CD2       16.6740   33.6210    2.7700 C.ar  298  TYR298     -0.0009
    125  CE1       15.2150   35.8630    1.9430 C.ar  298  TYR298      0.0417
    126  CE2       16.3570   33.7930    1.4190 C.ar  298  TYR298      0.0417
    127  CZ        15.6500   34.9080    1.0220 C.ar  298  TYR298      0.1957
    128  OH        15.3450   35.0820   -0.2940 O.3   298  TYR298     -0.2866
    129  N         11.9160   33.9130    9.9340 N.3   301  ASP301     -0.1225
    130  CA        10.6610   34.3210    9.2710 C.3   301  ASP301      0.1805
    131  C         10.9220   35.2930    8.1090 C.2   301  ASP301      0.2598
    132  O         10.0930   36.1680    7.8470 O.2   301  ASP301     -0.2718
    133  CB         9.6620   34.9360   10.2670 C.3   301  ASP301      0.1424
    134  CG         9.0480   33.8930   11.1900 C.2   301  ASP301      0.3668
    135  OD1        8.6930   32.8220   10.6970 O.co2 301  ASP301     -0.2456
    136  OD2        8.9430   34.1280   12.4190 O.co2 301  ASP301     -0.2456
    137  N         12.0400   35.0710    7.4080 N.am  302  TRP302     -0.1962
    138  CA        12.4620   35.8450    6.2450 C.3   302  TRP302      0.1771
    139  C         13.0560   37.2240    6.5310 C.2   302  TRP302      0.2619
    140  O         13.3250   37.9620    5.5760 O.2   302  TRP302     -0.2715
    141  CB        11.2770   36.0480    5.2860 C.3   302  TRP302      0.0590
    142  CG        10.7600   34.7550    4.6680 C.ar  302  TRP302      0.0006
    143  CD1        9.9520   33.7860    5.2800 C.ar  302  TRP302      0.0946
    144  CD2       10.9820   34.3160    3.3310 C.ar  302  TRP302      0.0152
    145  NE1        9.6850   32.7640    4.3650 N.ar  302  TRP302     -0.2442
    146  CE2       10.3100   33.0610    3.1740 C.ar  302  TRP302      0.0810
    147  CE3       11.7290   34.8330    2.2490 C.ar  302  TRP302      0.0012
    148  CZ2       10.3320   32.3370    1.9520 C.ar  302  TRP302      0.0191
    149  CZ3       11.7260   34.1270    1.0320 C.ar  302  TRP302      0.0001
    150  CH2       11.0130   32.8930    0.8990 C.ar  302  TRP302      0.0015
    151  N         13.1830   37.6090    7.8110 N.am  303  HIS303     -0.1973
    152  CA        13.6470   38.9380    8.1400 C.3   303  HIS303      0.1656
    153  C         15.1450   39.0500    7.8520 C.2   303  HIS303      0.2291
    154  O         15.8660   38.0260    7.7530 O.2   303  HIS303     -0.2864
    155  CB        13.2880   39.3390    9.5810 C.3   303  HIS303      0.0771
    156  CG        11.8270   39.4250    9.8210 C.ar  303  HIS303      0.0820
    157  ND1       11.0530   38.3100   10.0950 N.ar  303  HIS303     -0.2267
    158  CD2       10.9810   40.4830    9.8190 C.ar  303  HIS303      0.1154
    159  CE1        9.7860   38.6780   10.2260 C.ar  303  HIS303      0.1986
    160  NE2        9.7170   39.9900   10.0710 N.ar  303  HIS303     -0.2212
@<TRIPOS>BOND
     1    98    97    2
     2    89    87   ar
     3    89    90   ar
     4   116   114   ar
     5    87    84   ar
     6   113   114    1
     7   113   110    1
     8    79    80    2
     9    79    78    1
    10   114   115   ar
    11    90    88   ar
    12    97    99   am
    13    97    96    1
    14   112   111    2
    15    95    96    1
    16    95    92    1
    17    78    81    1
    18    78    77    1
    19    84    82   ar
    20    84    86   ar
    21   110   111    1
    22   110   109    1
    23    91    92    1
    24    81    82    1
    25    94    93    2
    26    88    86   ar
    27    92    93    1
    28    82    83   ar
    29    86    85   ar
    30    93   100   am
    31   109   102   am
    32   103   102    2
    33   102   101    1
    34    83    85   ar
    35   100   101    1
    36   101   104    1
    37   128   127    1
    38   104   105    1
    39   150   149   ar
    40   150   148   ar
    41   127   126   ar
    42   127   125   ar
    43   149   147   ar
    44   105   106    1
    45    72    71    2
    46   126   124   ar
    47    71    70    1
    48   125   123   ar
    49   148   146   ar
    50    69    70    1
    51   147   144   ar
    52    70    73    1
    53    66    65    2
    54   124   122   ar
    55   106   108   am
    56   106   107    2
    57    65    64    1
    58    64    63    1
    59    64    67    1
    60   146   144   ar
    61   146   145   ar
    62   123   122   ar
    63   144   142   ar
    64   122   121    1
    65    73    74    1
    66    67    68    1
    67   145   143   ar
    68   142   143   ar
    69   142   141    1
    70    51    50    2
    71    53    52    1
    72    49    48    1
    73    49    50    1
    74    49    52    1
    75    74    75    1
    76   117   118    1
    77   121   118    1
    78    54    52    1
    79   141   138    1
    80    50    55   am
    81   140   139    2
    82   118   119    1
    83   138   139    1
    84   138   137    1
    85    76    75    1
    86    57    58    2
    87    57    56    1
    88   139   151   am
    89    55    56    1
    90    56    59    1
    91   119   120    2
    92   137   131   am
    93   154   153    2
    94   151   152    1
    95   132   131    2
    96   153   152    1
    97   131   130    1
    98   152   155    1
    99    44    42   ar
   100    44    46   ar
   101    47    46    1
   102    59    60    1
   103     8     6   ar
   104    42    41   ar
   105    46    45   ar
   106    61    60    2
   107   130   129    1
   108   130   133    1
   109    60    62   am
   110     7     6   ar
   111   155   156    1
   112     6     5    1
   113   158   156   ar
   114   158   160   ar
   115   156   157   ar
   116    41    40    1
   117    41    43   ar
   118   160   159   ar
   119   157   159   ar
   120    45    43   ar
   121    37    38    1
   122    37    40    1
   123    37    36    1
   124    38    39    2
   125   133   134    1
   126   135   134   ar
   127     5     2    1
   128   134   136   ar
   129     1     2    1
   130    11    12    2
   131    11    10    1
   132    13    10    1
   133     2     3    1
   134    35    34    2
   135     9    10    1
   136     9     3   am
   137    17    16    2
   138     3     4    2
   139    34    33    1
   140    33    32    1
   141    23    21   ar
   142    23    24   ar
   143    21    19   ar
   144    32    28   am
   145    16    15    1
   146    25    24    1
   147    24    22   ar
   148    18    19    1
   149    18    15    1
   150    19    20   ar
   151    14    15    1
   152    22    20   ar
   153    28    27    1
   154    28    29    2
   155    27    30    1
   156    27    26    1
   157    30    31    1
