@<TRIPOS>MOLECULE
tmp/2wagA00.pdb
 116 116 0 0 0
SMALL
GASTEIGER

@<TRIPOS>ATOM
      1  N          3.7810   43.4210   15.3540 N.3    10  MET10      -0.1245
      2  CA         2.9430   44.6060   15.5570 C.3    10  MET10       0.1570
      3  C          1.5670   44.3480   14.9630 C.2    10  MET10       0.2261
      4  O          1.4220   43.6960   13.9250 O.2    10  MET10      -0.2867
      5  CB         3.6020   45.8560   14.9530 C.3    10  MET10       0.0387
      6  CG         4.8830   46.2630   15.6800 C.3    10  MET10       0.0595
      7  SD         5.9830   47.3130   14.6920 S.3    10  MET10      -0.1393
      8  CE         4.9150   48.6920   14.2910 C.3    10  MET10       0.0692
      9  N         -0.5570   46.0830   13.3470 N.3    12  ARG12      -0.1231
     10  CA        -0.8930   46.6030   12.0180 C.3    12  ARG12       0.1694
     11  C         -0.5700   45.6540   10.8590 C.2    12  ARG12       0.2592
     12  O         -1.0500   45.8650    9.7460 O.2    12  ARG12      -0.2718
     13  CB        -0.2050   47.9450   11.8020 C.3    12  ARG12       0.0321
     14  CG         1.3170   47.8240   11.6100 C.3    12  ARG12       0.0489
     15  CD         1.9830   49.1890   11.6180 C.3    12  ARG12       0.2205
     16  NE         1.9820   49.7630   12.9610 N.pl3  12  ARG12      -0.0865
     17  CZ         2.5040   50.9420   13.2760 C.cat  12  ARG12       0.5346
     18  NH1        3.0610   51.6940   12.3390 N.pl3  12  ARG12       0.1354
     19  NH2        2.4650   51.3680   14.5340 N.pl3  12  ARG12       0.1354
     20  N          0.2760   44.6490   11.0950 N.am   13  TYR13      -0.1976
     21  CA         0.6440   43.7180   10.0390 C.3    13  TYR13       0.1639
     22  C         -0.1640   42.4550   10.1960 C.2    13  TYR13       0.2290
     23  O          0.1070   41.6470   11.0900 O.2    13  TYR13      -0.2864
     24  CB         2.1530   43.4010   10.1030 C.3    13  TYR13       0.0560
     25  CG         2.9850   44.6460   10.0530 C.ar   13  TYR13      -0.0198
     26  CD1        2.9970   45.4350    8.9200 C.ar   13  TYR13      -0.0009
     27  CD2        3.7460   45.0680   11.1640 C.ar   13  TYR13      -0.0009
     28  CE1        3.7290   46.6140    8.8740 C.ar   13  TYR13       0.0417
     29  CE2        4.4890   46.2270   11.1270 C.ar   13  TYR13       0.0417
     30  CZ         4.4780   47.0080    9.9860 C.ar   13  TYR13       0.1957
     31  OH         5.1990   48.1750    9.9420 O.3    13  TYR13      -0.2866
     32  N         11.1300   45.9690   17.4840 N.3   170  LYS170     -0.1231
     33  CA        10.4390   46.3930   16.2800 C.3   170  LYS170      0.1678
     34  C         11.4430   46.4940   15.1240 C.2   170  LYS170      0.2434
     35  O         12.6380   46.7240   15.3250 O.2   170  LYS170     -0.2733
     36  CB         9.7970   47.7520   16.5270 C.3   170  LYS170      0.0284
     37  CG         8.6930   47.7150   17.5780 C.3   170  LYS170      0.0035
     38  CD         8.0060   49.0720   17.7390 C.3   170  LYS170      0.0206
     39  CE         6.5900   48.8790   18.2520 C.3   170  LYS170      0.1093
     40  NZ         6.4690   47.7740   19.2430 N.3   170  LYS170     -0.1314
     41  N         10.9670   46.2890   13.9000 N.am  171  PRO171     -0.2718
     42  CA        11.8830   46.1980   12.7640 C.3   171  PRO171      0.1535
     43  C         12.3440   47.5480   12.2560 C.2   171  PRO171      0.2599
     44  O         11.5510   48.4850   12.1410 O.2   171  PRO171     -0.2715
     45  CB        11.0340   45.5100   11.6970 C.3   171  PRO171      0.0310
     46  CG         9.6080   45.9840   12.0160 C.3   171  PRO171      0.0237
     47  CD         9.5650   46.0220   13.5310 C.3   171  PRO171      0.0939
     48  N         13.6330   47.6670   11.9650 N.am  172  SER172     -0.1936
     49  CA        14.1340   48.8530   11.2660 C.3   172  SER172      0.2055
     50  C         15.5000   48.5980   10.6720 C.2   172  SER172      0.2642
     51  O         16.3450   47.9170   11.2570 O.2   172  SER172     -0.2714
     52  CB        14.2200   50.0710   12.1850 C.3   172  SER172      0.2130
     53  OG        15.3490   49.9550   13.0330 O.3   172  SER172     -0.2179
     54  N         15.7050   49.1860    9.5060 N.am  173  LEU173     -0.1977
     55  CA        16.9380   49.0170    8.7390 C.3   173  LEU173      0.1596
     56  C         17.7920   50.2590    8.9380 C.2   173  LEU173      0.2287
     57  O         17.2670   51.3740    8.9570 O.2   173  LEU173     -0.2864
     58  CB        16.6220   48.8070    7.2520 C.3   173  LEU173      0.0297
     59  CG        15.7660   47.5640    6.9520 C.3   173  LEU173      0.0022
     60  CD1       15.4020   47.4890    5.4780 C.3   173  LEU173      0.0001
     61  CD2       16.4850   46.2960    7.4160 C.3   173  LEU173      0.0001
     62  N         17.5740   53.2950    6.8110 N.3   176  GLU176     -0.1231
     63  CA        16.1940   53.8160    6.7610 C.3   176  GLU176      0.1699
     64  C         15.3580   53.2980    5.5880 C.2   176  GLU176      0.2592
     65  O         14.3000   53.8100    5.2840 O.2   176  GLU176     -0.2718
     66  CB        16.1650   55.3570    6.8540 C.3   176  GLU176      0.0402
     67  CG        16.7630   55.8580    8.1730 C.3   176  GLU176      0.1161
     68  CD        16.5990   57.3550    8.3840 C.2   176  GLU176      0.3649
     69  OE1       16.1130   58.0560    7.4670 O.co2 176  GLU176     -0.2457
     70  OE2       16.9670   57.8250    9.4820 O.co2 176  GLU176     -0.2457
     71  N         15.8480   52.2600    4.9140 N.am  177  ARG177     -0.1966
     72  CA        15.0520   51.6000    3.8860 C.3   177  ARG177      0.1729
     73  C         13.8040   50.9750    4.4780 C.2   177  ARG177      0.2616
     74  O         13.7710   50.5910    5.6490 O.2   177  ARG177     -0.2715
     75  CB        15.8400   50.4870    3.1950 C.3   177  ARG177      0.0348
     76  CG        16.6760   50.9330    2.0250 C.3   177  ARG177      0.0492
     77  CD        17.2550   49.7210    1.3110 C.3   177  ARG177      0.2205
     78  NE        16.2720   49.0650    0.4460 N.pl3 177  ARG177     -0.0865
     79  CZ        16.5610   48.1400   -0.4730 C.cat 177  ARG177      0.5346
     80  NH1       17.8110   47.7270   -0.6340 N.pl3 177  ARG177      0.1354
     81  NH2       15.5900   47.6210   -1.2290 N.pl3 177  ARG177      0.1354
     82  N         12.7890   50.8360    3.6450 N.am  178  LYS178     -0.1963
     83  CA        11.5810   50.1130    4.0300 C.3   178  LYS178      0.1728
     84  C         11.7530   48.6120    3.7960 C.2   178  LYS178      0.2616
     85  O         12.3000   48.1910    2.7760 O.2   178  LYS178     -0.2715
     86  CB        10.3670   50.6250    3.2410 C.3   178  LYS178      0.0311
     87  CG        10.0420   52.0770    3.5660 C.3   178  LYS178      0.0038
     88  CD         8.7040   52.5090    2.9920 C.3   178  LYS178      0.0206
     89  CE         8.5820   54.0250    2.9850 C.3   178  LYS178      0.1093
     90  NZ         9.6410   54.6350    2.1230 N.3   178  LYS178     -0.1314
     91  N         11.3060   47.8090    4.7570 N.am  179  TRP179     -0.1974
     92  CA        11.3380   46.3530    4.6250 C.3   179  TRP179      0.1640
     93  C         10.0560   45.8380    3.9840 C.2   179  TRP179      0.2290
     94  O          8.9920   46.4980    4.0290 O.2   179  TRP179     -0.2864
     95  CB        11.6060   45.6570    5.9710 C.3   179  TRP179      0.0576
     96  CG        10.6490   46.0400    7.0670 C.ar  179  TRP179      0.0006
     97  CD1       10.8030   47.0470    7.9620 C.ar  179  TRP179      0.0946
     98  CD2        9.3650   45.4480    7.3420 C.ar  179  TRP179      0.0152
     99  NE1        9.7060   47.1090    8.8000 N.ar  179  TRP179     -0.2442
    100  CE2        8.8080   46.1440    8.4370 C.ar  179  TRP179      0.0810
    101  CE3        8.6380   44.3930    6.7790 C.ar  179  TRP179      0.0012
    102  CZ2        7.5570   45.8160    8.9760 C.ar  179  TRP179      0.0191
    103  CZ3        7.3950   44.0650    7.3170 C.ar  179  TRP179      0.0001
    104  CH2        6.8680   44.7760    8.4040 C.ar  179  TRP179      0.0015
    105  N          4.7120   43.3750    4.8770 N.3   206  TYR206     -0.1241
    106  CA         4.5070   44.7440    5.2720 C.3   206  TYR206      0.1605
    107  C          3.1020   45.2910    5.0110 C.2   206  TYR206      0.2264
    108  O          2.6700   46.1580    5.6690 O.2   206  TYR206     -0.2867
    109  CB         5.5070   45.6510    4.4700 C.3   206  TYR206      0.0534
    110  CG         5.0320   45.9840    3.0740 C.ar  206  TYR206     -0.0201
    111  CD1        4.3300   47.1320    2.8340 C.ar  206  TYR206     -0.0009
    112  CD2        5.1950   45.1220    2.0450 C.ar  206  TYR206     -0.0009
    113  CE1        3.8290   47.3860    1.6680 C.ar  206  TYR206      0.0417
    114  CE2        4.7320   45.4210    0.8320 C.ar  206  TYR206      0.0417
    115  CZ         4.0160   46.5610    0.6510 C.ar  206  TYR206      0.1957
    116  OH         3.5190   46.7900   -0.6070 O.3   206  TYR206     -0.2866
@<TRIPOS>BOND
     1    81    79    1
     2    80    79    1
     3   116   115    1
     4    79    78    2
     5    78    77    1
     6   115   114   ar
     7   115   113   ar
     8   114   112   ar
     9    77    76    1
    10   113   111   ar
    11    76    75    1
    12   112   110   ar
    13    90    89    1
    14    85    84    2
    15   111   110   ar
    16    89    88    1
    17    88    87    1
    18   110   109    1
    19    75    72    1
    20    86    87    1
    21    86    83    1
    22    82    83    1
    23    82    73   am
    24    84    83    1
    25    84    91   am
    26    72    73    1
    27    72    71    1
    28    93    94    2
    29    93    92    1
    30   109   106    1
    31    73    74    2
    32    92    91    1
    33    92    95    1
    34   105   106    1
    35    71    64   am
    36   107   106    1
    37   107   108    2
    38    65    64    2
    39    60    59    1
    40    64    63    1
    41    95    96    1
    42    63    62    1
    43    63    66    1
    44   101   103   ar
    45   101    98   ar
    46    66    67    1
    47    59    58    1
    48    59    61    1
    49    96    98   ar
    50    96    97   ar
    51    58    55    1
    52   103   104   ar
    53    98   100   ar
    54    69    68   ar
    55    97    99   ar
    56    67    68    1
    57    68    70   ar
    58   104   102   ar
    59   100    99   ar
    60   100   102   ar
    61    55    56    1
    62    55    54    1
    63    28    26   ar
    64    28    30   ar
    65    26    25   ar
    66    56    57    2
    67    54    50   am
    68    12    11    2
    69    31    30    1
    70    30    29   ar
    71    21    24    1
    72    21    22    1
    73    21    20    1
    74    25    24    1
    75    25    27   ar
    76    22    23    2
    77    50    51    2
    78    50    49    1
    79    11    20   am
    80    11    10    1
    81    29    27   ar
    82    49    48    1
    83    49    52    1
    84    14    15    1
    85    14    13    1
    86    15    16    1
    87    45    46    1
    88    45    42    1
    89    13    10    1
    90    48    43   am
    91    46    47    1
    92    10     9    1
    93    44    43    2
    94    52    53    1
    95    43    42    1
    96    18    17    1
    97    42    41    1
    98    16    17    2
    99    17    19    1
   100    47    41    1
   101    41    34   am
   102     4     3    2
   103     8     7    1
   104     7     6    1
   105     5     2    1
   106     5     6    1
   107     3     2    1
   108    34    35    2
   109    34    33    1
   110     1     2    1
   111    33    36    1
   112    33    32    1
   113    36    37    1
   114    37    38    1
   115    38    39    1
   116    39    40    1
