@<TRIPOS>MOLECULE
tmp/2wajA00.pdb
 140 129 0 0 0
SMALL
GASTEIGER

@<TRIPOS>ATOM
      1  N         28.2470    7.7450   35.6000 N.3    25  ILE25      -0.1231
      2  CA        27.8610    7.4250   34.2280 C.3    25  ILE25       0.1692
      3  C         27.8040    8.6500   33.3130 C.2    25  ILE25       0.2592
      4  O         27.8970    8.5080   32.0960 O.2    25  ILE25      -0.2718
      5  CB        26.5420    6.6030   34.1480 C.3    25  ILE25       0.0266
      6  CG1       25.3430    7.4140   34.6420 C.3    25  ILE25       0.0019
      7  CG2       26.6870    5.2710   34.8990 C.3    25  ILE25       0.0020
      8  CD1       24.0270    6.6300   34.7500 C.3    25  ILE25       0.0001
      9  N         27.6880    9.8460   33.8950 N.am   26  GLY26      -0.1957
     10  CA        27.4710   11.0730   33.1220 C.3    26  GLY26       0.1869
     11  C         28.2310   12.2840   33.6290 C.2    26  GLY26       0.2309
     12  O         28.5340   12.3780   34.8260 O.2    26  GLY26      -0.2863
     13  N         26.1600   12.6540   36.4710 N.3    31  VAL31      -0.1245
     14  CA        25.1730   11.5670   36.6340 C.3    31  VAL31       0.1561
     15  C         25.8140   10.2540   37.1340 C.2    31  VAL31       0.2260
     16  O         26.8420    9.8430   36.6320 O.2    31  VAL31      -0.2867
     17  CB        24.3030   11.2870   35.3170 C.3    31  VAL31       0.0252
     18  CG1       23.1320   10.3790   35.6110 C.3    31  VAL31       0.0019
     19  CG2       23.7810   12.5390   34.6880 C.3    31  VAL31       0.0019
     20  N         19.2410    6.1020   38.1160 N.3    44  ALA44      -0.1245
     21  CA        20.2110    7.1580   37.7890 C.3    44  ALA44       0.1562
     22  C         19.9850    8.3380   38.7250 C.2    44  ALA44       0.2260
     23  O         18.8310    8.7410   38.9520 O.2    44  ALA44      -0.2867
     24  CB        20.0790    7.6040   36.3340 C.3    44  ALA44       0.0290
     25  N         21.1680   12.3150   39.2560 N.3    46  LYS46      -0.1245
     26  CA        21.7910   13.5060   38.7100 C.3    46  LYS46       0.1561
     27  C         21.7350   14.6920   39.6880 C.2    46  LYS46       0.2260
     28  O         20.6680   15.0180   40.2750 O.2    46  LYS46      -0.2867
     29  CB        21.1940   13.8640   37.3590 C.3    46  LYS46       0.0271
     30  CG        21.6110   15.2190   36.8690 C.3    46  LYS46       0.0035
     31  CD        21.4900   15.2890   35.3790 C.3    46  LYS46       0.0206
     32  CE        21.0890   16.6810   34.9610 C.3    46  LYS46       0.1093
     33  NZ        21.2010   16.8600   33.4920 N.3    46  LYS46      -0.1314
     34  N         11.1160   10.9610   30.1160 N.3    77  ILE77      -0.1245
     35  CA        11.6240   10.8720   31.4720 C.3    77  ILE77       0.1561
     36  C         10.5420   11.1120   32.5210 C.2    77  ILE77       0.2260
     37  O          9.6710   11.9910   32.3710 O.2    77  ILE77      -0.2867
     38  CB        12.7640   11.9150   31.7140 C.3    77  ILE77       0.0252
     39  CG1       13.3270   11.7750   33.1420 C.3    77  ILE77       0.0019
     40  CG2       12.3090   13.3720   31.3620 C.3    77  ILE77       0.0019
     41  CD1       14.5030   12.6230   33.4210 C.3    77  ILE77       0.0001
     42  N         10.4850   11.2180   36.9940 N.3    79  LEU79      -0.1245
     43  CA        11.2970   11.1060   38.1750 C.3    79  LEU79       0.1561
     44  C         10.6930   10.1650   39.1720 C.2    79  LEU79       0.2260
     45  O          9.4690   10.0360   39.2430 O.2    79  LEU79      -0.2867
     46  CB        11.4860   12.4830   38.7960 C.3    79  LEU79       0.0270
     47  CG        12.1200   13.4970   37.8460 C.3    79  LEU79       0.0019
     48  CD1       12.0350   14.9010   38.4060 C.3    79  LEU79       0.0001
     49  CD2       13.5560   13.0980   37.4910 C.3    79  LEU79       0.0001
     50  N         18.1710   14.5870   41.2850 N.3    97  LEU97      -0.1245
     51  CA        17.0770   14.0000   40.5490 C.3    97  LEU97       0.1561
     52  C         17.3660   12.5030   40.4320 C.2    97  LEU97       0.2260
     53  O         18.5430   12.0770   40.1650 O.2    97  LEU97      -0.2867
     54  CB        16.9870   14.6250   39.1520 C.3    97  LEU97       0.0270
     55  CG        16.9720   16.1540   38.9530 C.3    97  LEU97       0.0019
     56  CD1       16.9540   16.4380   37.4670 C.3    97  LEU97       0.0001
     57  CD2       15.7880   16.8490   39.6500 C.3    97  LEU97       0.0001
     58  N         15.8870    8.8140   38.6630 N.3    99  MET99      -0.1230
     59  CA        15.0270    8.0570   37.7660 C.3    99  MET99       0.1702
     60  C         15.4290    6.5890   37.6570 C.2    99  MET99       0.2592
     61  O         16.5250    6.2070   38.0470 O.2    99  MET99      -0.2718
     62  CB        14.9910    8.6960   36.3740 C.3    99  MET99       0.0401
     63  CG        16.3030    8.6450   35.6440 C.3    99  MET99       0.0596
     64  SD        16.2470    9.4310   34.0360 S.3    99  MET99      -0.1393
     65  CE        15.4040    8.2100   33.0250 C.3    99  MET99       0.0692
     66  N         14.5520    5.7600   37.0940 N.am  100  GLU100     -0.1966
     67  CA        14.9270    4.3570   36.8500 C.3   100  GLU100      0.1733
     68  C         16.1450    4.3220   35.9100 C.2   100  GLU100      0.2616
     69  O         16.2230    5.1000   34.9660 O.2   100  GLU100     -0.2715
     70  CB        13.7360    3.5350   36.3200 C.3   100  GLU100      0.0429
     71  CG        13.6150    3.5550   34.8010 C.3   100  GLU100      0.1163
     72  CD        12.3210    2.9400   34.2770 C.2   100  GLU100      0.3649
     73  OE1       12.3850    1.8050   33.7300 O.co2 100  GLU100     -0.2457
     74  OE2       11.2540    3.6040   34.4100 O.co2 100  GLU100     -0.2457
     75  N         17.1060    3.4510   36.1910 N.am  101  LEU101     -0.1963
     76  CA        18.3320    3.3660   35.3690 C.3   101  LEU101      0.1728
     77  C         18.0830    2.6980   34.0340 C.2   101  LEU101      0.2616
     78  O         17.3660    1.7070   33.9580 O.2   101  LEU101     -0.2715
     79  CB        19.4320    2.5870   36.0950 C.3   101  LEU101      0.0311
     80  CG        20.8180    2.5530   35.4420 C.3   101  LEU101      0.0022
     81  CD1       21.4630    3.9180   35.4030 C.3   101  LEU101      0.0001
     82  CD2       21.7070    1.6020   36.2080 C.3   101  LEU101      0.0001
     83  N         18.7250    3.2180   32.9990 N.am  102  MET102     -0.1963
     84  CA        18.6040    2.6920   31.6550 C.3   102  MET102      0.1736
     85  C         19.9650    2.1640   31.2390 C.2   102  MET102      0.2616
     86  O         20.9470    2.3190   31.9750 O.2   102  MET102     -0.2715
     87  CB        18.1660    3.8050   30.6910 C.3   102  MET102      0.0427
     88  CG        16.8680    4.4800   31.0810 C.3   102  MET102      0.0599
     89  SD        15.4710    3.4470   30.6660 S.3   102  MET102     -0.1393
     90  CE        15.2070    3.9470   28.9680 C.3   102  MET102      0.0692
     91  N         20.0430    1.5810   30.0490 N.am  103  ASP103     -0.1957
     92  CA        21.2340    0.8180   29.7050 C.3   103  ASP103      0.1840
     93  C         22.2710    1.5580   28.8850 C.2   103  ASP103      0.2622
     94  O         23.4640    1.2780   29.0150 O.2   103  ASP103     -0.2715
     95  CB        20.8480   -0.4990   29.0500 C.3   103  ASP103      0.1450
     96  CG        19.9690   -1.3750   29.9550 C.2   103  ASP103      0.3671
     97  OD1       20.2090   -1.4630   31.1740 O.co2 103  ASP103     -0.2456
     98  OD2       19.0330   -1.9900   29.4300 O.co2 103  ASP103     -0.2456
     99  N         21.8350    2.5230   28.0740 N.am  104  ALA104     -0.1963
    100  CA        22.7370    3.2120   27.1380 C.3   104  ALA104      0.1728
    101  C         22.1390    4.5030   26.6540 C.2   104  ALA104      0.2616
    102  O         20.9050    4.6330   26.5940 O.2   104  ALA104     -0.2715
    103  CB        23.0350    2.2960   25.9220 C.3   104  ALA104      0.0334
    104  N         22.9850    5.4580   26.2740 N.am  105  ASN105     -0.1972
    105  CA        22.4320    6.6140   25.5450 C.3   105  ASN105      0.1688
    106  C         22.3730    6.3530   24.0410 C.2   105  ASN105      0.2292
    107  O         22.8890    5.3500   23.5730 O.2   105  ASN105     -0.2864
    108  CB        23.0620    7.9640   25.9330 C.3   105  ASN105      0.1181
    109  CG        24.3210    8.2610   25.1920 C.2   105  ASN105      0.2629
    110  OD1       24.9000    7.3980   24.5440 O.2   105  ASN105     -0.2716
    111  ND2       24.7650    9.5060   25.2810 N.am  105  ASN105     -0.0877
    112  N         22.2690   12.4300   22.7350 N.3   146  SER146     -0.1202
    113  CA        22.9260   12.3700   24.0310 C.3   146  SER146      0.2020
    114  C         21.9110   12.4950   25.1600 C.2   146  SER146      0.2618
    115  O         22.1690   12.0590   26.2890 O.2   146  SER146     -0.2717
    116  CB        23.9930   13.4580   24.1250 C.3   146  SER146      0.2103
    117  OG        23.3980   14.7360   23.9980 O.3   146  SER146     -0.2182
    118  N         20.7500   13.0850   24.8440 N.am  147  ASN147     -0.1974
    119  CA        19.6520   13.2060   25.7980 C.3   147  ASN147      0.1688
    120  C         18.5050   12.2220   25.5710 C.2   147  ASN147      0.2292
    121  O         17.3600   12.4840   25.9480 O.2   147  ASN147     -0.2864
    122  CB        19.1200   14.6360   25.8250 C.3   147  ASN147      0.1181
    123  CG        20.1550   15.6330   26.3200 C.2   147  ASN147      0.2629
    124  OD1       20.8490   15.3930   27.3060 O.2   147  ASN147     -0.2716
    125  ND2       20.2390   16.7710   25.6430 N.am  147  ASN147     -0.0877
    126  N         17.8570    7.9560   26.0430 N.3   149  VAL149     -0.1245
    127  CA        18.3750    6.7180   26.6080 C.3   149  VAL149      0.1561
    128  C         17.5440    5.4890   26.2070 C.2   149  VAL149      0.2260
    129  O         16.3600    5.6120   25.8620 O.2   149  VAL149     -0.2867
    130  CB        18.6380    6.8320   28.1320 C.3   149  VAL149      0.0252
    131  CG1       19.9510    7.6110   28.3720 C.3   149  VAL149      0.0019
    132  CG2       17.4450    7.4680   28.8920 C.3   149  VAL149      0.0019
    133  N         15.0100   12.5840   27.6760 N.3   159  LEU159     -0.1245
    134  CA        15.3890   13.0990   29.0330 C.3   159  LEU159      0.1561
    135  C         15.2480   14.6030   29.2920 C.2   159  LEU159      0.2260
    136  O         15.3300   15.0280   30.4510 O.2   159  LEU159     -0.2867
    137  CB        16.8410   12.7560   29.3860 C.3   159  LEU159      0.0270
    138  CG        17.4480   11.3410   29.3330 C.3   159  LEU159      0.0019
    139  CD1       18.9700   11.4320   29.2400 C.3   159  LEU159      0.0001
    140  CD2       17.0540   10.5430   30.5180 C.3   159  LEU159      0.0001
@<TRIPOS>BOND
     1   112   113    1
     2   107   106    2
     3   117   116    1
     4   113   116    1
     5   113   114    1
     6   106   105    1
     7   110   109    2
     8   118   114   am
     9   118   119    1
    10   114   115    2
    11   109   111   am
    12   109   108    1
    13   105   108    1
    14   105   104    1
    15   120   119    1
    16   120   121    2
    17   125   123   am
    18   119   122    1
    19   122   123    1
    20   129   128    2
    21   103   100    1
    22   126   127    1
    23   128   127    1
    24   104   101   am
    25   123   124    2
    26   102   101    2
    27   127   130    1
    28   101   100    1
    29   100    99    1
    30   133   134    1
    31    99    93   am
    32   130   131    1
    33   130   132    1
    34    93    94    2
    35    93    92    1
    36    90    89    1
    37   134   135    1
    38   134   137    1
    39    95    92    1
    40    95    96    1
    41   139   138    1
    42   135   136    2
    43   138   137    1
    44   138   140    1
    45    98    96   ar
    46    92    91    1
    47    96    97   ar
    48    91    85   am
    49    34    35    1
    50    89    88    1
    51    87    88    1
    52    87    84    1
    53    85    84    1
    54    85    86    2
    55    40    38    1
    56    35    38    1
    57    35    36    1
    58    84    83    1
    59    38    39    1
    60     4     3    2
    61    37    36    2
    62    83    77   am
    63    65    64    1
    64    10    11    1
    65    10     9    1
    66    39    41    1
    67     3     9   am
    68     3     2    1
    69    33    32    1
    70    11    12    2
    71    73    72   ar
    72    78    77    2
    73    77    76    1
    74    64    63    1
    75     5     2    1
    76     5     6    1
    77     5     7    1
    78     2     1    1
    79    72    74   ar
    80    72    71    1
    81     6     8    1
    82    19    17    1
    83    71    70    1
    84    32    31    1
    85    69    68    2
    86    17    18    1
    87    17    14    1
    88    76    79    1
    89    76    75    1
    90    31    30    1
    91    81    80    1
    92    80    79    1
    93    80    82    1
    94    63    62    1
    95    68    75   am
    96    68    67    1
    97    70    67    1
    98    24    21    1
    99    62    59    1
   100    13    14    1
   101    16    15    2
   102    14    15    1
   103    67    66    1
   104    30    29    1
   105    42    43    1
   106    66    60   am
   107    29    26    1
   108    56    55    1
   109    49    47    1
   110    60    59    1
   111    60    61    2
   112    59    58    1
   113    21    20    1
   114    21    22    1
   115    47    48    1
   116    47    46    1
   117    43    46    1
   118    43    44    1
   119    26    25    1
   120    26    27    1
   121    22    23    2
   122    55    54    1
   123    55    57    1
   124    54    51    1
   125    44    45    2
   126    27    28    2
   127    53    52    2
   128    52    51    1
   129    51    50    1
