@<TRIPOS>MOLECULE
tmp/2walA00.pdb
 106 101 0 0 0
SMALL
GASTEIGER

@<TRIPOS>ATOM
      1  N        -42.2810  -29.8590    7.2640 N.3    13  GLY13      -0.1225
      2  CA       -43.4420  -29.6330    8.1510 C.3    13  GLY13       0.1811
      3  C        -43.4880  -30.6600    9.2710 C.2    13  GLY13       0.2280
      4  O        -43.7690  -30.3260   10.4280 O.2    13  GLY13      -0.2866
      5  N        -40.7030  -29.9080   11.8480 N.3    16  LEU16      -0.1231
      6  CA       -41.0930  -28.7510   12.6580 C.3    16  LEU16       0.1693
      7  C        -42.0540  -29.1500   13.7410 C.2    16  LEU16       0.2592
      8  O        -41.8930  -28.7770   14.8980 O.2    16  LEU16      -0.2718
      9  CB       -41.7880  -27.7020   11.7760 C.3    16  LEU16       0.0284
     10  CG       -41.7170  -26.2160   12.1510 C.3    16  LEU16       0.0019
     11  CD1      -43.0400  -25.4970   11.8030 C.3    16  LEU16       0.0001
     12  CD2      -41.3320  -25.9710   13.5620 C.3    16  LEU16       0.0001
     13  N        -43.0850  -29.8830   13.3410 N.am   17  HIS17      -0.1976
     14  CA       -44.0080  -30.5030   14.2830 C.3    17  HIS17       0.1656
     15  C        -43.2050  -31.2360   15.3800 C.2    17  HIS17       0.2291
     16  O        -43.3930  -31.0490   16.5820 O.2    17  HIS17      -0.2864
     17  CB       -44.8900  -31.4880   13.5050 C.3    17  HIS17       0.0771
     18  CG       -46.0500  -32.0230   14.2780 C.ar   17  HIS17       0.0820
     19  ND1      -47.0440  -32.7650   13.6850 N.ar   17  HIS17      -0.2267
     20  CD2      -46.3800  -31.9260   15.5860 C.ar   17  HIS17       0.1154
     21  CE1      -47.9320  -33.1110   14.5980 C.ar   17  HIS17       0.1986
     22  NE2      -47.5500  -32.6190   15.7590 N.ar   17  HIS17      -0.2212
     23  N        -41.0660  -28.7670   17.5930 N.3    20  LEU20      -0.1245
     24  CA       -41.8900  -28.0240   18.5350 C.3    20  LEU20       0.1561
     25  C        -42.2330  -28.8750   19.7500 C.2    20  LEU20       0.2260
     26  O        -42.2120  -28.3900   20.8660 O.2    20  LEU20      -0.2867
     27  CB       -43.1670  -27.5030   17.8590 C.3    20  LEU20       0.0270
     28  CG       -42.9200  -26.4350   16.7700 C.3    20  LEU20       0.0019
     29  CD1      -44.2260  -26.0780   16.0030 C.3    20  LEU20       0.0001
     30  CD2      -42.2760  -25.2110   17.3390 C.3    20  LEU20       0.0001
     31  N        -44.9510  -19.3810    8.9970 N.3    85  VAL85      -0.1231
     32  CA       -45.9650  -20.4060    9.0380 C.3    85  VAL85       0.1692
     33  C        -47.3000  -19.6340    9.0880 C.2    85  VAL85       0.2593
     34  O        -47.3960  -18.5670    9.7130 O.2    85  VAL85      -0.2718
     35  CB       -45.6200  -21.3060   10.2490 C.3    85  VAL85       0.0266
     36  CG1      -46.7980  -21.6170   11.1420 C.3    85  VAL85       0.0020
     37  CG2      -44.8110  -22.5250    9.7630 C.3    85  VAL85       0.0020
     38  N        -48.3060  -20.1390    8.3930 N.am   86  GLY86      -0.1942
     39  CA       -49.5410  -19.4130    8.2080 C.3    86  GLY86       0.2014
     40  C        -50.7590  -19.9120    8.9570 C.2    86  GLY86       0.2638
     41  O        -51.8870  -19.4750    8.6760 O.2    86  GLY86      -0.2714
     42  N        -50.5610  -20.8050    9.9170 N.am   87  ASP87      -0.1971
     43  CA       -51.6830  -21.2650   10.7580 C.3    87  ASP87       0.1709
     44  C        -51.3400  -21.1280   12.2060 C.2    87  ASP87       0.2293
     45  O        -50.6730  -21.9730   12.7500 O.2    87  ASP87      -0.2864
     46  CB       -52.0610  -22.7160   10.4610 C.3    87  ASP87       0.1436
     47  CG       -53.3560  -23.1370   11.1520 C.2    87  ASP87       0.3671
     48  OD1      -53.6710  -22.6380   12.2620 O.co2  87  ASP87      -0.2456
     49  OD2      -54.0490  -23.9940   10.5920 O.co2  87  ASP87      -0.2456
     50  N        -52.9760  -23.8790   14.7250 N.3    90  ARG90      -0.1231
     51  CA       -52.3620  -25.1980   14.6980 C.3    90  ARG90       0.1694
     52  C        -51.0450  -25.1740   15.4620 C.2    90  ARG90       0.2591
     53  O        -50.6950  -26.1370   16.1370 O.2    90  ARG90      -0.2718
     54  CB       -52.1360  -25.6870   13.2760 C.3    90  ARG90       0.0321
     55  CG       -51.5620  -27.1090   13.1960 C.3    90  ARG90       0.0489
     56  CD       -52.6110  -28.2300   13.3670 C.3    90  ARG90       0.2205
     57  NE       -52.0540  -29.4450   13.9930 N.pl3  90  ARG90      -0.0865
     58  CZ       -51.2240  -30.3250   13.4090 C.cat  90  ARG90       0.5346
     59  NH1      -50.7980  -30.1800   12.1490 N.pl3  90  ARG90       0.1354
     60  NH2      -50.8020  -31.3760   14.1070 N.pl3  90  ARG90       0.1354
     61  N        -50.3190  -24.0690   15.3590 N.am   91  LEU91      -0.1980
     62  CA       -49.0620  -23.9450   16.0480 C.3    91  LEU91       0.1596
     63  C        -49.3100  -24.0340   17.5550 C.2    91  LEU91       0.2287
     64  O        -48.5730  -24.6930   18.2880 O.2    91  LEU91      -0.2864
     65  CB       -48.3950  -22.6300   15.6720 C.3    91  LEU91       0.0297
     66  CG       -47.0530  -22.3710   16.3500 C.3    91  LEU91       0.0022
     67  CD1      -46.0370  -23.3900   15.8430 C.3    91  LEU91       0.0001
     68  CD2      -46.6040  -20.9320   16.1100 C.3    91  LEU91       0.0001
     69  N        -50.1960  -27.6340   18.7410 N.3    94  ILE94      -0.1245
     70  CA       -48.9800  -28.4590   18.8840 C.3    94  ILE94       0.1561
     71  C        -48.2050  -28.1360   20.1800 C.2    94  ILE94       0.2260
     72  O        -47.7810  -29.0430   20.8840 O.2    94  ILE94      -0.2867
     73  CB       -48.0440  -28.2960   17.6460 C.3    94  ILE94       0.0252
     74  CG1      -48.7130  -28.8610   16.3870 C.3    94  ILE94       0.0019
     75  CG2      -46.6870  -28.9800   17.8650 C.3    94  ILE94       0.0019
     76  CD1      -48.0260  -28.4410   15.0670 C.3    94  ILE94       0.0001
     77  N        -43.1160  -22.6960    5.7400 N.3   145  ILE145     -0.1231
     78  CA       -43.3800  -24.1260    5.8360 C.3   145  ILE145      0.1692
     79  C        -44.8790  -24.2920    5.9540 C.2   145  ILE145      0.2593
     80  O        -45.5620  -23.6250    6.7570 O.2   145  ILE145     -0.2718
     81  CB       -42.6220  -24.7990    7.0030 C.3   145  ILE145      0.0266
     82  CG1      -41.1140  -24.7500    6.7530 C.3   145  ILE145      0.0019
     83  CG2      -43.0450  -26.2820    7.1930 C.3   145  ILE145      0.0020
     84  CD1      -40.3140  -24.8840    8.0100 C.3   145  ILE145      0.0001
     85  N        -45.3650  -25.2130    5.1420 N.am  146  THR146     -0.1939
     86  CA       -46.7690  -25.4500    4.9150 C.3   146  THR146      0.2028
     87  C        -47.2080  -26.6230    5.7820 C.2   146  THR146      0.2642
     88  O        -46.3760  -27.4360    6.2010 O.2   146  THR146     -0.2714
     89  CB       -46.9530  -25.7190    3.3990 C.3   146  THR146      0.1808
     90  OG1      -47.3520  -24.4860    2.7560 O.3   146  THR146     -0.2208
     91  CG2      -47.9480  -26.8330    3.1170 C.3   146  THR146      0.0379
     92  N        -48.4980  -26.6970    6.0910 N.am  147  LEU147     -0.1963
     93  CA       -49.0240  -27.8450    6.8160 C.3   147  LEU147      0.1713
     94  C        -48.9290  -29.0680    5.9070 C.2   147  LEU147      0.2458
     95  O        -49.4470  -29.0330    4.7770 O.2   147  LEU147     -0.2730
     96  CB       -50.4810  -27.6340    7.2250 C.3   147  LEU147      0.0310
     97  CG       -50.6940  -26.6920    8.4010 C.3   147  LEU147      0.0022
     98  CD1      -52.1380  -26.1210    8.4210 C.3   147  LEU147      0.0001
     99  CD2      -50.3330  -27.4580    9.6670 C.3   147  LEU147      0.0001
    100  N        -48.2630  -30.1470    6.3860 N.am  148  PRO148     -0.2727
    101  CA       -48.2400  -31.3790    5.5920 C.3   148  PRO148      0.1402
    102  C        -49.6780  -31.8800    5.4740 C.2   148  PRO148      0.2269
    103  O        -50.1100  -32.3130    4.4030 O.2   148  PRO148     -0.2865
    104  CB       -47.3500  -32.3260    6.4120 C.3   148  PRO148      0.0296
    105  CG       -47.2910  -31.7610    7.7840 C.3   148  PRO148      0.0237
    106  CD       -47.5470  -30.2880    7.6690 C.3   148  PRO148      0.0939
@<TRIPOS>BOND
     1    90    89    1
     2    91    89    1
     3    89    86    1
     4   103   102    2
     5    95    94    2
     6    86    85    1
     7    86    87    1
     8    85    79   am
     9   102   101    1
    10   101   100    1
    11   101   104    1
    12    77    78    1
    13    87    92   am
    14    87    88    2
    15    78    79    1
    16    78    81    1
    17    94   100   am
    18    94    93    1
    19    79    80    2
    20    92    93    1
    21   100   106    1
    22   104   105    1
    23    82    81    1
    24    82    84    1
    25    93    96    1
    26    81    83    1
    27    96    97    1
    28     1     2    1
    29   106   105    1
    30     2     3    1
    31    39    38    1
    32    39    40    1
    33    38    33   am
    34    97    98    1
    35    97    99    1
    36    41    40    2
    37    40    42   am
    38    31    32    1
    39    32    33    1
    40    32    35    1
    41    33    34    2
    42     3     4    2
    43    37    35    1
    44    42    43    1
    45    35    36    1
    46    46    43    1
    47    46    47    1
    48    49    47   ar
    49    43    44    1
    50    47    48   ar
    51     9    10    1
    52     9     6    1
    53    11    10    1
    54     5     6    1
    55    59    58    1
    56    10    12    1
    57    44    45    2
    58     6     7    1
    59    55    54    1
    60    55    56    1
    61    54    51    1
    62    13     7   am
    63    13    14    1
    64    56    57    1
    65    58    57    2
    66    58    60    1
    67    17    18    1
    68    17    14    1
    69    19    18   ar
    70    19    21   ar
    71     7     8    2
    72    18    20   ar
    73    14    15    1
    74    21    22   ar
    75    51    50    1
    76    51    52    1
    77    76    74    1
    78    61    52   am
    79    61    62    1
    80    15    16    2
    81    52    53    2
    82    20    22   ar
    83    65    62    1
    84    65    66    1
    85    67    66    1
    86    29    28    1
    87    62    63    1
    88    68    66    1
    89    74    73    1
    90    28    30    1
    91    28    27    1
    92    63    64    2
    93    23    24    1
    94    73    75    1
    95    73    70    1
    96    27    24    1
    97    24    25    1
    98    69    70    1
    99    70    71    1
   100    25    26    2
   101    71    72    2
