@<TRIPOS>MOLECULE
tmp/2wapA00.pdb
 205 198 0 0 0
SMALL
GASTEIGER

@<TRIPOS>ATOM
      1  N        -19.4360  -16.2160   -2.3910 N.3   159  MET159     -0.1230
      2  CA       -18.1510  -15.5390   -2.3410 C.3   159  MET159      0.1702
      3  C        -18.0900  -14.2900   -3.2000 C.2   159  MET159      0.2592
      4  O        -17.0000  -13.8580   -3.5730 O.2   159  MET159     -0.2718
      5  CB       -17.0290  -16.4850   -2.7770 C.3   159  MET159      0.0401
      6  CG       -16.9740  -17.7540   -1.9810 C.3   159  MET159      0.0596
      7  SD       -15.6180  -18.7810   -2.5260 S.3   159  MET159     -0.1393
      8  CE       -16.0600  -19.0930   -4.2470 C.3   159  MET159      0.0692
      9  N        -19.2370  -13.7050   -3.5190 N.am  160  PHE160     -0.1962
     10  CA       -19.2240  -12.5090   -4.3400 C.3   160  PHE160      0.1771
     11  C        -19.7980  -11.2890   -3.6350 C.2   160  PHE160      0.2620
     12  O        -20.5520  -10.5010   -4.2050 O.2   160  PHE160     -0.2715
     13  CB       -19.8660  -12.7530   -5.7090 C.3   160  PHE160      0.0574
     14  CG       -19.0490  -12.1820   -6.8280 C.ar  160  PHE160     -0.0200
     15  CD1      -18.0180  -12.9210   -7.3750 C.ar  160  PHE160     -0.0042
     16  CD2      -19.2550  -10.8730   -7.2670 C.ar  160  PHE160     -0.0042
     17  CE1      -17.2460  -12.3990   -8.3790 C.ar  160  PHE160     -0.0003
     18  CE2      -18.4850  -10.3410   -8.2680 C.ar  160  PHE160     -0.0003
     19  CZ       -17.4750  -11.1030   -8.8290 C.ar  160  PHE160     -0.0000
     20  N        -19.4260  -11.1550   -2.3760 N.am  161  SER161     -0.1936
     21  CA       -19.5970   -9.9190   -1.6230 C.3   161  SER161      0.2055
     22  C        -18.3200   -9.7280   -0.8660 C.2   161  SER161      0.2643
     23  O        -17.5840  -10.6990   -0.6660 O.2   161  SER161     -0.2714
     24  CB       -20.7380  -10.0250   -0.6200 C.3   161  SER161      0.2130
     25  OG       -20.7540   -8.8810    0.2170 O.3   161  SER161     -0.2179
     26  N        -18.0300   -8.4970   -0.4560 N.am  162  TYR162     -0.1973
     27  CA       -16.9150   -8.3080    0.4830 C.3   162  TYR162      0.1639
     28  C        -17.4020   -8.0730    1.9080 C.2   162  TYR162      0.2290
     29  O        -16.7160   -7.4680    2.7220 O.2   162  TYR162     -0.2864
     30  CB       -15.8790   -7.2770    0.0080 C.3   162  TYR162      0.0560
     31  CG       -16.3370   -5.8500   -0.0900 C.ar  162  TYR162     -0.0198
     32  CD1      -16.0570   -4.9430    0.9250 C.ar  162  TYR162     -0.0009
     33  CD2      -17.0000   -5.3860   -1.2300 C.ar  162  TYR162     -0.0009
     34  CE1      -16.4550   -3.6250    0.8220 C.ar  162  TYR162      0.0417
     35  CE2      -17.3960   -4.0680   -1.3370 C.ar  162  TYR162      0.0417
     36  CZ       -17.1260   -3.1990   -0.3070 C.ar  162  TYR162      0.1957
     37  OH       -17.5180   -1.8950   -0.3970 O.3   162  TYR162     -0.2866
     38  N        -14.6470   -9.5670    3.0700 N.3   184  GLY184     -0.1210
     39  CA       -14.8430  -10.8480    2.4030 C.3   184  GLY184      0.1956
     40  C        -14.3230  -10.8200    0.9910 C.2   184  GLY184      0.2612
     41  O        -13.8020   -9.8020    0.5640 O.2   184  GLY184     -0.2717
     42  N        -14.4760  -11.9060    0.2390 N.am  185  SER185     -0.1952
     43  CA       -15.1370  -13.1300    0.6720 C.3   185  SER185      0.1924
     44  C        -14.3620  -13.9630    1.7030 C.2   185  SER185      0.2314
     45  O        -14.9460  -14.8360    2.3480 O.2   185  SER185     -0.2863
     46  CB       -15.4770  -13.9870   -0.5480 C.3   185  SER185      0.2116
     47  OG       -14.4770  -13.8940   -1.5430 O.3   185  SER185     -0.2180
     48  N        -10.5830  -12.5810   -6.3200 N.3   206  ILE206     -0.1231
     49  CA       -10.8140  -12.2630   -7.7290 C.3   206  ILE206      0.1692
     50  C        -11.1110  -10.7680   -7.9070 C.2   206  ILE206      0.2593
     51  O        -11.0240  -10.2360   -9.0150 O.2   206  ILE206     -0.2718
     52  CB       -11.9560  -13.1700   -8.3200 C.3   206  ILE206      0.0266
     53  CG1      -11.9550  -13.1480   -9.8500 C.3   206  ILE206      0.0019
     54  CG2      -13.2990  -12.7710   -7.7850 C.3   206  ILE206      0.0020
     55  CD1      -12.7700  -14.2550  -10.4900 C.3   206  ILE206      0.0001
     56  N        -11.4570  -10.1080   -6.8000 N.am  207  GLY207     -0.1942
     57  CA       -11.7650   -8.6810   -6.7850 C.3   207  GLY207      0.2014
     58  C        -11.3160   -7.9440   -5.5340 C.2   207  GLY207      0.2639
     59  O        -11.6860   -6.7890   -5.3370 O.2   207  GLY207     -0.2714
     60  N        -10.4850   -8.5880   -4.7110 N.am  208  GLY208     -0.1939
     61  CA       -10.0440   -8.0280   -3.4220 C.3   208  GLY208      0.2014
     62  C        -10.3440   -8.8900   -2.2100 C.2   208  GLY208      0.2639
     63  O        -10.1200   -8.4700   -1.0820 O.2   208  GLY208     -0.2714
     64  N        -10.7970  -10.1170   -2.4410 N.am  209  SER209     -0.1949
     65  CA       -11.3290  -10.9650   -1.3730 C.3   209  SER209      0.1924
     66  C        -10.3210  -11.5390   -0.3640 C.2   209  SER209      0.2314
     67  O        -10.7140  -12.1610    0.6220 O.2   209  SER209     -0.2863
     68  CB       -12.1360  -12.0900   -1.9970 C.3   209  SER209      0.2116
     69  OG       -13.2680  -11.5270   -2.6300 O.3   209  SER209     -0.2180
     70  N         -9.5540   -7.3410    1.3170 N.3   212  PHE212     -0.1241
     71  CA       -10.6270   -6.7050    2.0810 C.3   212  PHE212      0.1605
     72  C        -10.6370   -7.2270    3.5050 C.2   212  PHE212      0.2264
     73  O        -10.4870   -6.4360    4.4450 O.2   212  PHE212     -0.2867
     74  CB       -11.9950   -6.9100    1.4300 C.3   212  PHE212      0.0534
     75  CG       -12.2320   -6.0500    0.2240 C.ar  212  PHE212     -0.0203
     76  CD1      -12.1720   -4.6670    0.3190 C.ar  212  PHE212     -0.0042
     77  CD2      -12.5400   -6.6210   -1.0010 C.ar  212  PHE212     -0.0042
     78  CE1      -12.4020   -3.8720   -0.7900 C.ar  212  PHE212     -0.0003
     79  CE2      -12.7670   -5.8410   -2.1100 C.ar  212  PHE212     -0.0003
     80  CZ       -12.7020   -4.4650   -2.0060 C.ar  212  PHE212     -0.0000
     81  N        -11.6400    7.5010   -7.9060 N.3   303  TYR303     -0.1241
     82  CA       -12.8180    6.6960   -8.1560 C.3   303  TYR303      0.1605
     83  C        -13.5640    6.5660   -6.8450 C.2   303  TYR303      0.2264
     84  O        -14.7180    6.9860   -6.7410 O.2   303  TYR303     -0.2867
     85  CB       -12.4280    5.3170   -8.7040 C.3   303  TYR303      0.0534
     86  CG       -13.5510    4.6650   -9.4550 C.ar  303  TYR303     -0.0201
     87  CD1      -14.3730    3.7120   -8.8510 C.ar  303  TYR303     -0.0009
     88  CD2      -13.8170    5.0300  -10.7600 C.ar  303  TYR303     -0.0009
     89  CE1      -15.4240    3.1390   -9.5530 C.ar  303  TYR303      0.0417
     90  CE2      -14.8500    4.4770  -11.4540 C.ar  303  TYR303      0.0417
     91  CZ       -15.6560    3.5400  -10.8580 C.ar  303  TYR303      0.1957
     92  OH       -16.6830    3.0050  -11.5970 O.3   303  TYR303     -0.2866
     93  N        -11.9120   -0.6440  -14.5610 N.3   340  LEU340     -0.1231
     94  CA       -12.9150   -1.0820  -13.6160 C.3   340  LEU340      0.1693
     95  C        -14.2420   -1.2890  -14.3160 C.2   340  LEU340      0.2591
     96  O        -14.7990   -2.3810  -14.2840 O.2   340  LEU340     -0.2718
     97  CB       -13.0680   -0.0580  -12.4880 C.3   340  LEU340      0.0284
     98  CG       -11.8530    0.0550  -11.5640 C.3   340  LEU340      0.0019
     99  CD1      -12.0010    1.2480  -10.6410 C.3   340  LEU340      0.0001
    100  CD2      -11.6430   -1.2150  -10.7420 C.3   340  LEU340      0.0001
    101  N        -14.7330   -0.2370  -14.9580 N.am  341  GLU341     -0.1979
    102  CA       -16.1020   -0.2110  -15.4470 C.3   341  GLU341      0.1602
    103  C        -16.3340   -1.1150  -16.6360 C.2   341  GLU341      0.2287
    104  O        -17.3640   -1.7470  -16.7330 O.2   341  GLU341     -0.2864
    105  CB       -16.5150    1.2170  -15.7870 C.3   341  GLU341      0.0415
    106  CG       -16.7220    2.0650  -14.5450 C.3   341  GLU341      0.1163
    107  CD       -16.9100    3.5300  -14.8430 C.2   341  GLU341      0.3649
    108  OE1      -16.9580    4.3150  -13.8830 O.co2 341  GLU341     -0.2457
    109  OE2      -17.0200    3.9130  -16.0280 O.co2 341  GLU341     -0.2457
    110  N        -15.6910   -5.3220  -14.9110 N.3   345  THR345     -0.1218
    111  CA       -17.1040   -5.6920  -14.8960 C.3   345  THR345      0.1862
    112  C        -17.4110   -6.6640  -16.0380 C.2   345  THR345      0.2287
    113  O        -18.0850   -7.6870  -15.8520 O.2   345  THR345     -0.2866
    114  CB       -17.9870   -4.4400  -15.0470 C.3   345  THR345      0.1770
    115  OG1      -17.5840   -3.4580  -14.0880 O.3   345  THR345     -0.2211
    116  CG2      -19.4370   -4.7800  -14.8260 C.3   345  THR345      0.0375
    117  N        -15.7420  -10.1380  -15.4730 N.3   348  LEU348     -0.1231
    118  CA       -16.4720  -10.8790  -14.4420 C.3   348  LEU348      0.1693
    119  C        -17.8980  -11.2280  -14.8490 C.2   348  LEU348      0.2592
    120  O        -18.4460  -12.2130  -14.3690 O.2   348  LEU348     -0.2718
    121  CB       -16.5290  -10.0660  -13.1430 C.3   348  LEU348      0.0284
    122  CG       -15.2230   -9.8560  -12.3810 C.3   348  LEU348      0.0019
    123  CD1      -15.4140   -8.7910  -11.2990 C.3   348  LEU348      0.0001
    124  CD2      -14.7520  -11.1830  -11.7870 C.3   348  LEU348      0.0001
    125  N        -18.5050  -10.4140  -15.7060 N.am  349  PHE349     -0.1976
    126  CA       -19.8890  -10.6510  -16.1210 C.3   349  PHE349      0.1639
    127  C        -20.0620  -10.7100  -17.6440 C.2   349  PHE349      0.2290
    128  O        -21.0990  -10.3130  -18.1860 O.2   349  PHE349     -0.2864
    129  CB       -20.7910   -9.5860  -15.5080 C.3   349  PHE349      0.0560
    130  CG       -20.7120   -9.5290  -14.0120 C.ar  349  PHE349     -0.0200
    131  CD1      -21.3830  -10.4730  -13.2360 C.ar  349  PHE349     -0.0042
    132  CD2      -19.9570   -8.5450  -13.3810 C.ar  349  PHE349     -0.0042
    133  CE1      -21.3120  -10.4350  -11.8520 C.ar  349  PHE349     -0.0003
    134  CE2      -19.8770   -8.4900  -12.0010 C.ar  349  PHE349     -0.0003
    135  CZ       -20.5560   -9.4350  -11.2260 C.ar  349  PHE349     -0.0000
    136  N        -27.3580   -7.0900   -6.1080 N.3   372  LEU372     -0.1245
    137  CA       -26.5870   -7.6760   -7.1870 C.3   372  LEU372      0.1561
    138  C        -27.4050   -8.7080   -7.9680 C.2   372  LEU372      0.2260
    139  O        -27.4580   -8.6760   -9.1980 O.2   372  LEU372     -0.2867
    140  CB       -25.3240   -8.3310   -6.6270 C.3   372  LEU372      0.0270
    141  CG       -24.3730   -8.8870   -7.6720 C.3   372  LEU372      0.0019
    142  CD1      -23.8660   -7.7540   -8.5440 C.3   372  LEU372      0.0001
    143  CD2      -23.2150   -9.6470   -7.0140 C.3   372  LEU372      0.0001
    144  N        -21.4160    6.1720  -12.9660 N.3   396  ARG396     -0.1245
    145  CA       -20.8340    4.9280  -12.4890 C.3   396  ARG396      0.1563
    146  C        -21.8150    3.7720  -12.5510 C.2   396  ARG396      0.2260
    147  O        -21.4390    2.6290  -12.8730 O.2   396  ARG396     -0.2867
    148  CB       -20.3910    5.0730  -11.0490 C.3   396  ARG396      0.0307
    149  CG       -19.0140    5.6430  -10.8970 C.3   396  ARG396      0.0489
    150  CD       -18.3660    5.1640   -9.6000 C.3   396  ARG396      0.2205
    151  NE       -19.0330    5.7230   -8.4220 N.pl3 396  ARG396     -0.0865
    152  CZ       -18.6120    5.5480   -7.1770 C.cat 396  ARG396      0.5346
    153  NH1      -17.5290    4.8210   -6.9370 N.pl3 396  ARG396      0.1354
    154  NH2      -19.2700    6.0950   -6.1680 N.pl3 396  ARG396      0.1354
    155  N        -21.6870    0.5050  -14.8830 N.3   400  PHE400     -0.1241
    156  CA       -21.7820   -0.8170  -14.2800 C.3   400  PHE400      0.1605
    157  C        -22.8430   -1.6530  -14.9990 C.2   400  PHE400      0.2264
    158  O        -22.5400   -2.7420  -15.4690 O.2   400  PHE400     -0.2867
    159  CB       -22.1080   -0.6660  -12.7900 C.3   400  PHE400      0.0534
    160  CG       -22.0070   -1.9360  -11.9990 C.ar  400  PHE400     -0.0203
    161  CD1      -23.0510   -2.3370  -11.1820 C.ar  400  PHE400     -0.0042
    162  CD2      -20.8560   -2.7190  -12.0460 C.ar  400  PHE400     -0.0042
    163  CE1      -22.9650   -3.4960  -10.4390 C.ar  400  PHE400     -0.0003
    164  CE2      -20.7600   -3.8890  -11.2980 C.ar  400  PHE400     -0.0003
    165  CZ       -21.8250   -4.2740  -10.4910 C.ar  400  PHE400     -0.0000
    166  N        -20.5780   -0.7330   -3.9220 N.3   456  THR456     -0.1203
    167  CA       -19.9500   -1.5320   -4.9670 C.3   456  THR456      0.1994
    168  C        -18.7580   -0.8200   -5.5930 C.2   456  THR456      0.2618
    169  O        -17.8390   -1.4640   -6.0860 O.2   456  THR456     -0.2717
    170  CB       -20.9580   -1.9160   -6.0640 C.3   456  THR456      0.1784
    171  OG1      -22.2320   -2.1960   -5.4710 O.3   456  THR456     -0.2211
    172  CG2      -20.4830   -3.1440   -6.8050 C.3   456  THR456      0.0376
    173  N        -18.7710    0.5050   -5.5700 N.am  457  GLY457     -0.1956
    174  CA       -17.6830    1.2820   -6.1450 C.3   457  GLY457      0.1869
    175  C        -16.3670    1.1170   -5.4230 C.2   457  GLY457      0.2309
    176  O        -15.3190    1.1500   -6.0440 O.2   457  GLY457     -0.2863
    177  N        -14.7460   -1.2270   -4.3890 N.3   459  VAL459     -0.1245
    178  CA       -13.9300   -2.3390   -4.8160 C.3   459  VAL459      0.1561
    179  C        -12.6830   -1.8630   -5.6410 C.2   459  VAL459      0.2260
    180  O        -11.7100   -2.5920   -5.8010 O.2   459  VAL459     -0.2867
    181  CB       -14.8410   -3.3530   -5.5460 C.3   459  VAL459      0.0252
    182  CG1      -15.1020   -2.9460   -7.0070 C.3   459  VAL459      0.0019
    183  CG2      -14.2710   -4.7320   -5.4390 C.3   459  VAL459      0.0019
    184  N         -9.7290   -4.2520   -7.0000 N.3   463  MET463     -0.1245
    185  CA       -10.1600   -4.7690   -8.2940 C.3   463  MET463      0.1570
    186  C         -9.1470   -4.4570   -9.3960 C.2   463  MET463      0.2261
    187  O         -8.8170   -5.2990  -10.2310 O.2   463  MET463     -0.2867
    188  CB       -11.5140   -4.1360   -8.6360 C.3   463  MET463      0.0387
    189  CG       -12.1650   -4.5980   -9.9300 C.3   463  MET463      0.0595
    190  SD       -12.5700   -6.3390   -9.8810 S.3   463  MET463     -0.1393
    191  CE       -14.0040   -6.3560   -8.8250 C.3   463  MET463      0.0692
    192  N        -23.4900    4.7520   -4.1150 N.3   499  TRP499     -0.1241
    193  CA       -22.3000    3.9880   -3.7180 C.3   499  TRP499      0.1605
    194  C        -21.3610    4.7830   -2.8240 C.2   499  TRP499      0.2264
    195  O        -20.7490    4.2210   -1.9110 O.2   499  TRP499     -0.2867
    196  CB       -21.5030    3.5390   -4.9320 C.3   499  TRP499      0.0550
    197  CG       -22.1690    2.5360   -5.7890 C.ar  499  TRP499      0.0003
    198  CD1      -23.3450    1.8860   -5.5510 C.ar  499  TRP499      0.0946
    199  CD2      -21.6660    2.0210   -7.0230 C.ar  499  TRP499      0.0152
    200  NE1      -23.6190    1.0140   -6.5810 N.ar  499  TRP499     -0.2442
    201  CE2      -22.6010    1.0770   -7.4950 C.ar  499  TRP499      0.0810
    202  CE3      -20.5200    2.2760   -7.7810 C.ar  499  TRP499      0.0012
    203  CZ2      -22.4190    0.3830   -8.6790 C.ar  499  TRP499      0.0191
    204  CZ3      -20.3450    1.5890   -8.9620 C.ar  499  TRP499      0.0001
    205  CH2      -21.2900    0.6530   -9.4000 C.ar  499  TRP499      0.0015
@<TRIPOS>BOND
     1   128   127    2
     2   127   126    1
     3   104   103    2
     4   103   102    1
     5   126   125    1
     6   126   129    1
     7   112   113    2
     8   112   111    1
     9   109   107   ar
    10   105   102    1
    11   105   106    1
    12   125   119   am
    13   129   130    1
    14   117   118    1
    15   158   157    2
    16   102   101    1
    17   114   111    1
    18   114   116    1
    19   114   115    1
    20   157   156    1
    21   101    95   am
    22   110   111    1
    23   155   156    1
    24   119   118    1
    25   119   120    2
    26   107   106    1
    27   107   108   ar
    28    93    94    1
    29   118   121    1
    30    95    96    2
    31    95    94    1
    32   156   159    1
    33   130   132   ar
    34   130   131   ar
    35    94    97    1
    36   132   134   ar
    37   131   133   ar
    38   121   122    1
    39   144   145    1
    40   147   146    2
    41   159   160    1
    42   146   145    1
    43   145   148    1
    44    97    98    1
    45   122   124    1
    46   122   123    1
    47   162   160   ar
    48   162   164   ar
    49   134   135   ar
    50   160   161   ar
    51   133   135   ar
    52    92    91    1
    53    98   100    1
    54    98    99    1
    55    90    91   ar
    56    90    88   ar
    57   164   165   ar
    58   161   163   ar
    59   148   149    1
    60   149   150    1
    61    91    89   ar
    62    88    86   ar
    63   165   163   ar
    64    55    53    1
    65   187   186    2
    66   189   190    1
    67   189   188    1
    68   190   191    1
    69    53    52    1
    70   150   151    1
    71    89    87   ar
    72    86    87   ar
    73    86    85    1
    74   205   204   ar
    75   205   203   ar
    76   186   185    1
    77   139   138    2
    78    51    50    2
    79   204   202   ar
    80    19    17   ar
    81    19    18   ar
    82    85    82    1
    83   203   201   ar
    84   188   185    1
    85   142   141    1
    86   151   152    2
    87    17    15   ar
    88    52    54    1
    89    52    49    1
    90   185   184    1
    91    18    16   ar
    92    82    81    1
    93    82    83    1
    94   138   137    1
    95    50    49    1
    96    50    56   am
    97   202   199   ar
    98    49    48    1
    99   141   143    1
   100   141   140    1
   101   201   199   ar
   102   201   200   ar
   103    15    14   ar
   104    16    14   ar
   105   137   140    1
   106   137   136    1
   107   152   153    1
   108   152   154    1
   109   199   197   ar
   110   182   181    1
   111    83    84    2
   112    14    13    1
   113   172   170    1
   114    56    57    1
   115    57    58    1
   116   200   198   ar
   117   174   173    1
   118   174   175    1
   119   169   168    2
   120   170   171    1
   121   170   167    1
   122   176   175    2
   123   180   179    2
   124   197   198   ar
   125   197   196    1
   126    13    10    1
   127   179   178    1
   128   168   173   am
   129   168   167    1
   130   181   183    1
   131   181   178    1
   132    58    59    2
   133    58    60   am
   134   167   166    1
   135   196   193    1
   136   178   177    1
   137    60    61    1
   138    10    11    1
   139    10     9    1
   140     8     7    1
   141    12    11    2
   142   192   193    1
   143   193   194    1
   144    11    20   am
   145     4     3    2
   146     9     3   am
   147    61    62    1
   148     3     2    1
   149   194   195    2
   150     5     2    1
   151     5     6    1
   152    69    68    1
   153     7     6    1
   154    64    62   am
   155    64    65    1
   156     1     2    1
   157    20    21    1
   158    62    63    2
   159    79    80   ar
   160    79    77   ar
   161    80    78   ar
   162    68    65    1
   163    21    22    1
   164    21    24    1
   165    47    46    1
   166    65    66    1
   167    35    33   ar
   168    35    36   ar
   169    33    31   ar
   170    77    75   ar
   171    22    23    2
   172    22    26   am
   173    78    76   ar
   174    24    25    1
   175    46    43    1
   176    26    27    1
   177    37    36    1
   178    66    67    2
   179    36    34   ar
   180    31    30    1
   181    31    32   ar
   182    30    27    1
   183    75    76   ar
   184    75    74    1
   185    42    43    1
   186    42    40   am
   187    27    28    1
   188    41    40    2
   189    43    44    1
   190    34    32   ar
   191    40    39    1
   192    70    71    1
   193    74    71    1
   194    44    45    2
   195    28    29    2
   196    71    72    1
   197    39    38    1
   198    72    73    2
