@<TRIPOS>MOLECULE
tmp/2warA00.pdb
 215 210 0 0 0
SMALL
GASTEIGER

@<TRIPOS>ATOM
      1  N          3.8330   23.8320   13.6150 N.3    35  GLN35      -0.1245
      2  CA         4.5150   23.0040   14.6140 C.3    35  GLN35       0.1566
      3  C          5.1040   21.6970   14.0530 C.2    35  GLN35       0.2260
      4  O          6.2360   21.3410   14.3730 O.2    35  GLN35      -0.2867
      5  CB         3.5620   22.6830   15.7580 C.3    35  GLN35       0.0367
      6  CG         3.0700   23.9010   16.5320 C.3    35  GLN35       0.0905
      7  CD         4.0440   24.4400   17.5620 C.2    35  GLN35       0.2608
      8  OE1        3.6880   25.3470   18.3220 O.2    35  GLN35      -0.2717
      9  NE2        5.2770   23.9140   17.5900 N.am   35  GLN35      -0.0878
     10  N         11.1280   17.0620   18.1170 N.3    44  ASN44      -0.1225
     11  CA        12.0850   18.1780   18.1990 C.3    44  ASN44       0.1785
     12  C         12.6370   18.2460   19.5960 C.2    44  ASN44       0.2597
     13  O         11.9060   17.9620   20.5360 O.2    44  ASN44      -0.2718
     14  CB        11.3980   19.4920   17.8420 C.3    44  ASN44       0.1169
     15  CG        11.2950   19.6950   16.3570 C.2    44  ASN44       0.2627
     16  OD1       12.3190   19.8600   15.6800 O.2    44  ASN44      -0.2716
     17  ND2       10.0620   19.6550   15.8200 N.am   44  ASN44      -0.0877
     18  N         13.9150   18.6080   19.7290 N.am   45  ARG45      -0.1966
     19  CA        14.5540   18.7040   21.0390 C.3    45  ARG45       0.1729
     20  C         14.5700   20.1560   21.5070 C.2    45  ARG45       0.2616
     21  O         14.9700   21.0750   20.7720 O.2    45  ARG45      -0.2715
     22  CB        15.9890   18.1470   21.0010 C.3    45  ARG45       0.0348
     23  CG        16.5190   17.6420   22.3610 C.3    45  ARG45       0.0492
     24  CD        15.8330   16.3300   22.7170 C.3    45  ARG45       0.2205
     25  NE        16.1820   15.8200   24.0370 N.pl3  45  ARG45      -0.0865
     26  CZ        17.1530   14.9410   24.2890 C.cat  45  ARG45       0.5346
     27  NH1       17.9070   14.4470   23.3010 N.pl3  45  ARG45       0.1354
     28  NH2       17.3620   14.5390   25.5470 N.pl3  45  ARG45       0.1354
     29  N         14.1650   20.3540   22.7490 N.am   46  ASN46      -0.1958
     30  CA        14.2350   21.6660   23.3780 C.3    46  ASN46       0.1819
     31  C         15.5820   21.8300   24.0910 C.2    46  ASN46       0.2621
     32  O         16.2430   20.8360   24.4200 O.2    46  ASN46      -0.2715
     33  CB        13.0770   21.8200   24.3640 C.3    46  ASN46       0.1195
     34  CG        11.7190   21.5960   23.7050 C.2    46  ASN46       0.2630
     35  OD1       11.4940   22.0440   22.5870 O.2    46  ASN46      -0.2716
     36  ND2       10.8070   20.9160   24.4060 N.am   46  ASN46      -0.0877
     37  N         15.9730   23.0750   24.3400 N.am   47  THR47      -0.1951
     38  CA        17.2850   23.3660   24.9440 C.3    47  THR47       0.1897
     39  C         17.4550   22.6970   26.3060 C.2    47  THR47       0.2313
     40  O         18.5740   22.3750   26.7190 O.2    47  THR47      -0.2863
     41  CB        17.5340   24.9030   25.0870 C.3    47  THR47       0.1794
     42  OG1       16.5150   25.4780   25.9120 O.3    47  THR47      -0.2208
     43  CG2       17.5060   25.5940   23.7370 C.3    47  THR47       0.0378
     44  N          9.4860   17.4710   21.8750 N.3    52  ASP52      -0.1239
     45  CA         8.1060   17.7560   21.4640 C.3    52  ASP52       0.1674
     46  C          7.6820   16.6660   20.4980 C.2    52  ASP52       0.2266
     47  O          8.4830   16.2740   19.6500 O.2    52  ASP52      -0.2867
     48  CB         8.0600   19.1200   20.8130 C.3    52  ASP52       0.1410
     49  CG         8.8300   20.1560   21.6190 C.2    52  ASP52       0.3668
     50  OD1        8.3500   20.5270   22.7190 O.co2  52  ASP52      -0.2456
     51  OD2        9.9320   20.5310   21.1760 O.co2  52  ASP52      -0.2456
     52  N          0.7990   18.0740   17.0250 N.3    56  LEU56      -0.1231
     53  CA         0.6700   19.3100   17.7790 C.3    56  LEU56       0.1693
     54  C          1.8660   19.5960   18.6980 C.2    56  LEU56       0.2592
     55  O          1.8080   20.4890   19.5510 O.2    56  LEU56      -0.2718
     56  CB        -0.6640   19.3260   18.5220 C.3    56  LEU56       0.0284
     57  CG        -1.8640   19.6500   17.6160 C.3    56  LEU56       0.0019
     58  CD1       -3.1770   19.3870   18.3650 C.3    56  LEU56       0.0001
     59  CD2       -1.8140   21.0920   17.1100 C.3    56  LEU56       0.0001
     60  N          2.9680   18.8810   18.4620 N.am   57  GLN57      -0.1966
     61  CA         4.2600   19.1380   19.1060 C.3    57  GLN57       0.1733
     62  C          4.1290   19.3550   20.5940 C.2    57  GLN57       0.2616
     63  O          4.5680   20.3650   21.1420 O.2    57  GLN57      -0.2715
     64  CB         5.0010   20.3020   18.4400 C.3    57  GLN57       0.0408
     65  CG         5.6300   19.9070   17.1270 C.3    57  GLN57       0.0908
     66  CD         6.7650   18.9350   17.2840 C.2    57  GLN57       0.2608
     67  OE1        7.8880   19.3290   17.5990 O.2    57  GLN57      -0.2717
     68  NE2        6.4890   17.6510   17.0510 N.am   57  GLN57      -0.0878
     69  N          3.5580   18.3390   21.2200 N.am   58  ILE58      -0.1963
     70  CA         3.2660   18.3210   22.6460 C.3    58  ILE58       0.1727
     71  C          4.5780   18.0240   23.3760 C.2    58  ILE58       0.2616
     72  O          5.2790   17.0310   23.0850 O.2    58  ILE58      -0.2715
     73  CB         2.1130   17.3250   22.9430 C.3    58  ILE58       0.0290
     74  CG1        0.7780   17.8860   22.3970 C.3    58  ILE58       0.0022
     75  CG2        1.9910   17.0020   24.4250 C.3    58  ILE58       0.0023
     76  CD1       -0.3950   16.8920   22.3560 C.3    58  ILE58       0.0001
     77  N          4.9030   18.9220   24.3020 N.am   59  ASN59      -0.1972
     78  CA         6.2010   18.9780   24.9780 C.3    59  ASN59       0.1688
     79  C          6.2340   17.9730   26.1430 C.2    59  ASN59       0.2292
     80  O          5.3680   18.0010   27.0210 O.2    59  ASN59      -0.2864
     81  CB         6.3990   20.4270   25.4660 C.3    59  ASN59       0.1181
     82  CG         7.7780   20.7110   26.0040 C.2    59  ASN59       0.2629
     83  OD1        8.5480   19.8110   26.3380 O.2    59  ASN59      -0.2716
     84  ND2        8.0950   21.9980   26.1040 N.am   59  ASN59      -0.0877
     85  N          8.2250   18.0110   28.5080 N.3    61  ARG61      -0.1231
     86  CA         8.4290   18.8100   29.7270 C.3    61  ARG61       0.1694
     87  C          7.1860   18.8030   30.6410 C.2    61  ARG61       0.2592
     88  O          7.3260   18.8100   31.8770 O.2    61  ARG61      -0.2718
     89  CB         8.8100   20.2480   29.3400 C.3    61  ARG61       0.0321
     90  CG         9.1990   21.1810   30.4840 C.3    61  ARG61       0.0489
     91  CD        10.6860   21.1030   30.7690 C.3    61  ARG61       0.2205
     92  NE        11.0040   20.1290   31.7960 N.pl3  61  ARG61      -0.0865
     93  CZ        12.1570   19.4610   31.9040 C.cat  61  ARG61       0.5346
     94  NH1       13.1560   19.6120   31.0290 N.pl3  61  ARG61       0.1354
     95  NH2       12.3000   18.6090   32.9060 N.pl3  61  ARG61       0.1354
     96  N          5.9890   18.7690   30.0290 N.am   62  TRP62      -0.1962
     97  CA         4.7000   18.8690   30.7280 C.3    62  TRP62       0.1771
     98  C          3.6920   17.7290   30.5250 C.2    62  TRP62       0.2619
     99  O          2.9640   17.3860   31.4590 O.2    62  TRP62      -0.2715
    100  CB         3.9900   20.1760   30.3110 C.3    62  TRP62       0.0590
    101  CG         4.8460   21.3970   30.4770 C.ar   62  TRP62       0.0006
    102  CD1        5.6570   21.9830   29.5400 C.ar   62  TRP62       0.0946
    103  CD2        4.9940   22.1620   31.6680 C.ar   62  TRP62       0.0152
    104  NE1        6.2950   23.0710   30.0820 N.ar   62  TRP62      -0.2442
    105  CE2        5.9050   23.2020   31.3890 C.ar   62  TRP62       0.0810
    106  CE3        4.4390   22.0740   32.9470 C.ar   62  TRP62       0.0012
    107  CZ2        6.2690   24.1470   32.3420 C.ar   62  TRP62       0.0191
    108  CZ3        4.8080   23.0120   33.8970 C.ar   62  TRP62       0.0001
    109  CH2        5.7130   24.0370   33.5870 C.ar   62  TRP62       0.0015
    110  N          3.5970   17.1700   29.3160 N.am   63  TRP63      -0.1974
    111  CA         2.3420   16.5110   28.8890 C.3    63  TRP63       0.1640
    112  C          2.3620   14.9890   28.6550 C.2    63  TRP63       0.2290
    113  O          1.3090   14.3450   28.6840 O.2    63  TRP63      -0.2864
    114  CB         1.8260   17.2020   27.6240 C.3    63  TRP63       0.0576
    115  CG         1.6740   18.6850   27.7520 C.ar   63  TRP63       0.0006
    116  CD1        2.4390   19.6370   27.1620 C.ar   63  TRP63       0.0946
    117  CD2        0.7190   19.3820   28.5560 C.ar   63  TRP63       0.0152
    118  NE1        2.0120   20.8890   27.5180 N.ar   63  TRP63      -0.2442
    119  CE2        0.9510   20.7650   28.3720 C.ar   63  TRP63       0.0810
    120  CE3       -0.3270   18.9760   29.3880 C.ar   63  TRP63       0.0012
    121  CZ2        0.1970   21.7440   29.0200 C.ar   63  TRP63       0.0191
    122  CZ3       -1.0810   19.9480   30.0290 C.ar   63  TRP63       0.0001
    123  CH2       -0.8150   21.3180   29.8390 C.ar   63  TRP63       0.0015
    124  N          6.7060   16.5000   33.6950 N.3    73  ARG73      -0.1245
    125  CA         5.3750   15.9870   34.0310 C.3    73  ARG73       0.1563
    126  C          4.7910   15.1240   32.8910 C.2    73  ARG73       0.2260
    127  O          5.3470   15.0850   31.7900 O.2    73  ARG73      -0.2867
    128  CB         4.4410   17.1590   34.3520 C.3    73  ARG73       0.0307
    129  CG         4.9890   18.1140   35.4060 C.3    73  ARG73       0.0489
    130  CD         3.8710   18.7370   36.2240 C.3    73  ARG73       0.2205
    131  NE         3.2530   17.7400   37.1000 N.pl3  73  ARG73      -0.0865
    132  CZ         2.1550   17.9310   37.8280 C.cat  73  ARG73       0.5346
    133  NH1        1.5100   19.0950   37.8020 N.pl3  73  ARG73       0.1354
    134  NH2        1.6920   16.9380   38.5850 N.pl3  73  ARG73       0.1354
    135  N          1.0240   15.1550   32.1040 N.3    75  LEU75      -0.1245
    136  CA        -0.3330   15.6190   32.4450 C.3    75  LEU75       0.1561
    137  C         -1.4400   15.0120   31.5860 C.2    75  LEU75       0.2260
    138  O         -2.6110   15.0130   31.9750 O.2    75  LEU75      -0.2867
    139  CB        -0.3900   17.1570   32.4050 C.3    75  LEU75       0.0270
    140  CG        -0.1850   18.0140   33.6740 C.3    75  LEU75       0.0019
    141  CD1        0.2760   17.2500   34.9190 C.3    75  LEU75       0.0001
    142  CD2        0.7220   19.2180   33.3940 C.3    75  LEU75       0.0001
    143  N         -4.3860   20.9310   27.2070 N.3    98  ILE98      -0.1245
    144  CA        -3.3540   21.9920   27.0900 C.3    98  ILE98       0.1561
    145  C         -4.0100   23.3770   26.9420 C.2    98  ILE98       0.2260
    146  O         -3.6820   24.3220   27.6720 O.2    98  ILE98      -0.2867
    147  CB        -2.3770   21.6880   25.9000 C.3    98  ILE98       0.0252
    148  CG1       -1.6170   20.3930   26.1810 C.3    98  ILE98       0.0019
    149  CG2       -1.4240   22.8720   25.6180 C.3    98  ILE98       0.0019
    150  CD1       -0.6800   19.9530   25.0960 C.3    98  ILE98       0.0001
    151  N         -5.5290   25.0650   29.9280 N.3   101  ASP101     -0.1225
    152  CA        -4.6100   25.1850   31.0740 C.3   101  ASP101      0.1805
    153  C         -4.2290   26.6250   31.4370 C.2   101  ASP101      0.2598
    154  O         -3.3470   26.8220   32.2690 O.2   101  ASP101     -0.2718
    155  CB        -3.3180   24.3800   30.8300 C.3   101  ASP101      0.1424
    156  CG        -2.6280   23.9510   32.1250 C.2   101  ASP101      0.3668
    157  OD1       -3.3180   23.4730   33.0400 O.co2 101  ASP101     -0.2456
    158  OD2       -1.3940   24.0740   32.2340 O.co2 101  ASP101     -0.2456
    159  N         -4.8540   27.6210   30.8060 N.am  102  GLY102     -0.1942
    160  CA        -4.7060   29.0130   31.2470 C.3   102  GLY102      0.2014
    161  C         -4.3390   29.9850   30.1390 C.2   102  GLY102      0.2638
    162  O         -4.9160   31.0820   30.0430 O.2   102  GLY102     -0.2714
    163  N         -3.3880   29.5890   29.3010 N.am  103  ASN103     -0.1972
    164  CA        -2.8790   30.4840   28.2840 C.3   103  ASN103      0.1688
    165  C         -3.5890   30.3340   26.9560 C.2   103  ASN103      0.2292
    166  O         -3.1760   30.9450   25.9890 O.2   103  ASN103     -0.2864
    167  CB        -1.3730   30.2870   28.1020 C.3   103  ASN103      0.1181
    168  CG        -0.5830   30.7240   29.3140 C.2   103  ASN103      0.2629
    169  OD1       -0.8130   31.8080   29.8450 O.2   103  ASN103     -0.2716
    170  ND2        0.3650   29.8840   29.7560 N.am  103  ASN103     -0.0877
    171  N         -1.9320   30.2420   23.3030 N.3   106  ASN106     -0.1225
    172  CA        -0.5700   30.7690   23.4490 C.3   106  ASN106      0.1785
    173  C          0.4420   29.6680   23.8730 C.2   106  ASN106      0.2597
    174  O          1.6570   29.8570   23.7360 O.2   106  ASN106     -0.2718
    175  CB        -0.5300   31.9910   24.3790 C.3   106  ASN106      0.1169
    176  CG        -1.3860   33.1690   23.8640 C.2   106  ASN106      0.2627
    177  OD1       -1.0220   33.8590   22.8950 O.2   106  ASN106     -0.2716
    178  ND2       -2.5290   33.4020   24.5220 N.am  106  ASN106     -0.0877
    179  N         -0.0580   28.5260   24.3690 N.am  107  ALA107     -0.1966
    180  CA         0.7630   27.3260   24.6570 C.3   107  ALA107      0.1728
    181  C          1.5510   26.8280   23.4500 C.2   107  ALA107      0.2616
    182  O          2.6340   26.2340   23.5880 O.2   107  ALA107     -0.2715
    183  CB        -0.1250   26.1780   25.1990 C.3   107  ALA107      0.0334
    184  N          0.9850   27.0440   22.2690 N.am  108  TRP108     -0.1960
    185  CA         1.6660   26.7570   21.0170 C.3   108  TRP108      0.1771
    186  C          2.4360   28.0040   20.5530 C.2   108  TRP108      0.2619
    187  O          1.8480   29.0030   20.1060 O.2   108  TRP108     -0.2715
    188  CB         0.6480   26.2380   19.9760 C.3   108  TRP108      0.0590
    189  CG         0.1870   24.8130   20.2730 C.ar  108  TRP108      0.0006
    190  CD1        0.8030   23.6560   19.8920 C.ar  108  TRP108      0.0946
    191  CD2       -0.9630   24.4130   21.0450 C.ar  108  TRP108      0.0152
    192  NE1        0.1120   22.5720   20.3660 N.ar  108  TRP108     -0.2442
    193  CE2       -0.9780   23.0090   21.0750 C.ar  108  TRP108      0.0810
    194  CE3       -1.9750   25.1130   21.7180 C.ar  108  TRP108      0.0012
    195  CZ2       -1.9690   22.2810   21.7650 C.ar  108  TRP108      0.0191
    196  CZ3       -2.9700   24.3890   22.3890 C.ar  108  TRP108      0.0001
    197  CH2       -2.9590   22.9920   22.4010 C.ar  108  TRP108      0.0015
    198  N          3.7650   27.9430   20.6730 N.am  109  VAL109     -0.1977
    199  CA         4.6240   29.0700   20.3540 C.3   109  VAL109      0.1596
    200  C          4.4360   29.4850   18.9010 C.2   109  VAL109      0.2287
    201  O          4.3440   30.6740   18.5980 O.2   109  VAL109     -0.2864
    202  CB         6.1310   28.7610   20.6890 C.3   109  VAL109      0.0276
    203  CG1        6.2800   28.3950   22.1660 C.3   109  VAL109      0.0022
    204  CG2        6.6910   27.6520   19.7980 C.3   109  VAL109      0.0022
    205  N          1.0700   31.5290   18.5840 N.3   112  ARG112     -0.1245
    206  CA         1.1950   32.9230   19.0010 C.3   112  ARG112      0.1563
    207  C          1.9370   33.7640   17.9610 C.2   112  ARG112      0.2260
    208  O          1.5010   34.8810   17.6260 O.2   112  ARG112     -0.2867
    209  CB         1.9060   33.0130   20.3500 C.3   112  ARG112      0.0307
    210  CG         2.0500   34.4540   20.8890 C.3   112  ARG112      0.0489
    211  CD         2.9070   34.5310   22.1430 C.3   112  ARG112      0.2205
    212  NE         3.0730   33.2340   22.7890 N.pl3 112  ARG112     -0.0865
    213  CZ         4.1530   32.4520   22.7140 C.cat 112  ARG112      0.5346
    214  NH1        5.2360   32.8090   22.0130 N.pl3 112  ARG112      0.1354
    215  NH2        4.1450   31.2820   23.3500 N.pl3 112  ARG112      0.1354
@<TRIPOS>BOND
     1     1     2    1
     2     3     4    2
     3     3     2    1
     4     2     5    1
     5    16    15    2
     6     5     6    1
     7    17    15   am
     8    15    14    1
     9     6     7    1
    10    52    53    1
    11    68    66   am
    12    59    57    1
    13    65    66    1
    14    65    64    1
    15    66    67    2
    16     7     9   am
    17     7     8    2
    18    57    58    1
    19    57    56    1
    20   208   207    2
    21    53    56    1
    22    53    54    1
    23    14    11    1
    24   207   206    1
    25    10    11    1
    26    11    12    1
    27    64    61    1
    28    60    54   am
    29    60    61    1
    30   205   206    1
    31   201   200    2
    32    54    55    2
    33   200   199    1
    34   206   209    1
    35    61    62    1
    36    12    18   am
    37    12    13    2
    38    47    46    2
    39    18    19    1
    40   204   202    1
    41   190   189   ar
    42   190   192   ar
    43   188   189    1
    44   188   185    1
    45   187   186    2
    46   189   191   ar
    47   209   210    1
    48   199   198    1
    49   199   202    1
    50   192   193   ar
    51    46    45    1
    52   186   198   am
    53   186   185    1
    54    62    63    2
    55    62    69   am
    56   202   203    1
    57    21    20    2
    58    48    45    1
    59    48    49    1
    60   210   211    1
    61    22    19    1
    62    22    23    1
    63   185   184    1
    64    19    20    1
    65   191   193   ar
    66   191   194   ar
    67   193   195   ar
    68    51    49   ar
    69    69    70    1
    70    45    44    1
    71    20    29   am
    72    49    50   ar
    73   194   196   ar
    74   195   197   ar
    75   214   213    1
    76   211   212    1
    77   184   181   am
    78    76    74    1
    79    23    24    1
    80   196   197   ar
    81    74    73    1
    82    35    34    2
    83    70    73    1
    84    70    71    1
    85   213   212    2
    86   213   215    1
    87    24    25    1
    88    29    30    1
    89   177   176    2
    90    73    75    1
    91    72    71    2
    92    27    26    1
    93   171   172    1
    94    71    77   am
    95    30    31    1
    96    30    33    1
    97   172   173    1
    98   172   175    1
    99   181   182    2
   100   181   180    1
   101    34    33    1
   102    34    36   am
   103   174   173    2
   104    43    41    1
   105   176   175    1
   106   176   178   am
   107   173   179   am
   108    25    26    2
   109    31    37   am
   110    31    32    2
   111    26    28    1
   112    77    78    1
   113    37    38    1
   114   179   180    1
   115   180   183    1
   116    38    41    1
   117    38    39    1
   118    78    81    1
   119    78    79    1
   120    41    42    1
   121   150   148    1
   122    81    82    1
   123   149   147    1
   124   147   148    1
   125   147   144    1
   126   166   165    2
   127    82    84   am
   128    82    83    2
   129    79    80    2
   130    39    40    2
   131   145   144    1
   132   145   146    2
   133   165   164    1
   134   144   143    1
   135   116   118   ar
   136   116   115   ar
   137   118   119   ar
   138   114   115    1
   139   114   111    1
   140   115   117   ar
   141   167   164    1
   142   167   168    1
   143   164   163    1
   144   119   117   ar
   145   119   121   ar
   146    85    86    1
   147   117   120   ar
   148   112   113    2
   149   112   111    1
   150   111   110    1
   151   121   123   ar
   152   163   161   am
   153   168   170   am
   154   168   169    2
   155   110    98   am
   156    89    86    1
   157    89    90    1
   158   120   122   ar
   159   102   104   ar
   160   102   101   ar
   161    86    87    1
   162   123   122   ar
   163   151   152    1
   164    96    87   am
   165    96    97    1
   166   162   161    2
   167   104   105   ar
   168   161   160    1
   169   100   101    1
   170   100    97    1
   171   101   103   ar
   172    90    91    1
   173    98    97    1
   174    98    99    2
   175    87    88    2
   176    91    92    1
   177   159   160    1
   178   159   153   am
   179   155   152    1
   180   155   156    1
   181    94    93    1
   182   152   153    1
   183   105   103   ar
   184   105   107   ar
   185   153   154    2
   186   137   138    2
   187   137   136    1
   188   103   106   ar
   189   127   126    2
   190    92    93    2
   191    93    95    1
   192   135   136    1
   193   156   158   ar
   194   156   157   ar
   195   107   109   ar
   196   139   136    1
   197   139   140    1
   198   126   125    1
   199   106   108   ar
   200   142   140    1
   201   109   108   ar
   202   140   141    1
   203   124   125    1
   204   125   128    1
   205   128   129    1
   206   129   130    1
   207   130   131    1
   208   131   132    2
   209   133   132    1
   210   132   134    1
