@<TRIPOS>MOLECULE
tmp/2watA01.pdb
 101 97 0 0 0
SMALL
GASTEIGER

@<TRIPOS>ATOM
      1  N        -31.7610   25.8740  -48.7940 N.3    33  TYR33      -0.1241
      2  CA       -31.8340   24.5390  -48.2170 C.3    33  TYR33       0.1605
      3  C        -31.6250   24.5800  -46.7000 C.2    33  TYR33       0.2264
      4  O        -32.4730   24.1090  -45.9340 O.2    33  TYR33      -0.2867
      5  CB       -30.8020   23.6140  -48.8480 C.3    33  TYR33       0.0534
      6  CG       -30.8030   22.2430  -48.2210 C.ar   33  TYR33      -0.0201
      7  CD1      -31.6100   21.2370  -48.7270 C.ar   33  TYR33      -0.0009
      8  CD2      -30.0120   21.9560  -47.1080 C.ar   33  TYR33      -0.0009
      9  CE1      -31.6260   19.9850  -48.1640 C.ar   33  TYR33       0.0417
     10  CE2      -30.0230   20.6950  -46.5320 C.ar   33  TYR33       0.0417
     11  CZ       -30.8360   19.7160  -47.0680 C.ar   33  TYR33       0.1957
     12  OH       -30.8670   18.4570  -46.5220 O.3    33  TYR33      -0.2866
     13  N        -34.2330   23.6300  -42.9750 N.3    37  GLN37      -0.1245
     14  CA       -34.0280   22.4100  -42.1970 C.3    37  GLN37       0.1566
     15  C        -34.5140   22.5770  -40.7560 C.2    37  GLN37       0.2260
     16  O        -34.6660   23.6990  -40.2750 O.2    37  GLN37      -0.2867
     17  CB       -32.5560   21.9880  -42.2190 C.3    37  GLN37       0.0367
     18  CG       -32.0330   21.6850  -43.6090 C.3    37  GLN37       0.0905
     19  CD       -33.0120   20.8620  -44.4270 C.2    37  GLN37       0.2608
     20  OE1      -33.4890   21.3030  -45.4770 O.2    37  GLN37      -0.2717
     21  NE2      -33.3190   19.6670  -43.9500 N.am   37  GLN37      -0.0878
     22  N        -27.4130   22.7750  -39.9090 N.3    43  SER43      -0.1217
     23  CA       -27.3590   22.5500  -41.3450 C.3    43  SER43       0.1889
     24  C        -26.2970   23.4100  -42.0310 C.2    43  SER43       0.2288
     25  O        -25.5380   22.9120  -42.8530 O.2    43  SER43      -0.2866
     26  CB       -28.7360   22.7960  -41.9800 C.3    43  SER43       0.2089
     27  OG       -28.7990   22.2120  -43.2690 O.3    43  SER43      -0.2183
     28  N        -22.8990   22.0260  -41.1450 N.3    46  GLY46      -0.1225
     29  CA       -22.6000   20.8330  -41.9140 C.3    46  GLY46       0.1811
     30  C        -22.1820   21.1660  -43.3380 C.2    46  GLY46       0.2280
     31  O        -21.2580   20.5810  -43.8830 O.2    46  GLY46      -0.2866
     32  N        -28.2490   19.2330  -53.1300 N.3    76  ARG76      -0.1245
     33  CA       -29.0100   18.2710  -52.3590 C.3    76  ARG76       0.1563
     34  C        -30.1740   17.7770  -53.1950 C.2    76  ARG76       0.2260
     35  O        -30.8090   18.5590  -53.9010 O.2    76  ARG76      -0.2867
     36  CB       -29.5720   18.9210  -51.0870 C.3    76  ARG76       0.0307
     37  CG       -28.5920   19.7160  -50.2090 C.3    76  ARG76       0.0489
     38  CD       -27.6910   18.7850  -49.4780 C.3    76  ARG76       0.2205
     39  NE       -27.2320   19.2050  -48.1410 N.pl3  76  ARG76      -0.0865
     40  CZ       -26.8280   20.4220  -47.7640 C.cat  76  ARG76       0.5346
     41  NH1      -26.8260   21.4540  -48.5940 N.pl3  76  ARG76       0.1354
     42  NH2      -26.4150   20.6060  -46.5150 N.pl3  76  ARG76       0.1354
     43  N        -34.0490   13.1960  -49.7630 N.3    79  LYS79      -0.1231
     44  CA       -33.9870   11.7740  -49.4270 C.3    79  LYS79       0.1693
     45  C        -32.7270   11.0920  -49.9690 C.2    79  LYS79       0.2592
     46  O        -32.4840    9.9120  -49.6800 O.2    79  LYS79      -0.2718
     47  CB       -35.2400   11.0500  -49.9280 C.3    79  LYS79       0.0285
     48  CG       -36.5400   11.7630  -49.6240 C.3    79  LYS79       0.0035
     49  CD       -37.0170   11.4750  -48.2150 C.3    79  LYS79       0.0206
     50  CE       -37.9600   10.2820  -48.1940 C.3    79  LYS79       0.1093
     51  NZ       -39.2110   10.5540  -48.9650 N.3    79  LYS79      -0.1314
     52  N        -31.9350   11.8400  -50.7420 N.am   80  ASN80      -0.1960
     53  CA       -30.7040   11.3260  -51.3590 C.3    80  ASN80       0.1819
     54  C        -29.4010   11.9950  -50.8670 C.2    80  ASN80       0.2621
     55  O        -29.4220   12.9540  -50.0830 O.2    80  ASN80      -0.2715
     56  CB       -30.7970   11.4080  -52.8900 C.3    80  ASN80       0.1195
     57  CG       -31.6430   10.2950  -53.4910 C.2    80  ASN80       0.2630
     58  OD1      -31.1760    9.1670  -53.6770 O.2    80  ASN80      -0.2716
     59  ND2      -32.8850   10.6140  -53.8200 N.am   80  ASN80      -0.0877
     60  N        -28.2710   11.4810  -51.3460 N.am   81  ALA81      -0.1964
     61  CA       -26.9530   11.9400  -50.9150 C.3    81  ALA81       0.1713
     62  C        -26.6560   13.3780  -51.3640 C.2    81  ALA81       0.2458
     63  O        -27.1430   13.8130  -52.4070 O.2    81  ALA81      -0.2730
     64  CB       -25.8700   10.9750  -51.4340 C.3    81  ALA81       0.0333
     65  N        -25.8340   14.1120  -50.5870 N.am   82  PRO82      -0.2727
     66  CA       -25.4130   15.4380  -51.0420 C.3    82  PRO82       0.1402
     67  C        -24.4140   15.2560  -52.1680 C.2    82  PRO82       0.2269
     68  O        -23.7700   14.2090  -52.2270 O.2    82  PRO82      -0.2865
     69  CB       -24.6860   16.0270  -49.8240 C.3    82  PRO82       0.0296
     70  CG       -24.7050   14.9690  -48.7630 C.3    82  PRO82       0.0237
     71  CD       -25.0640   13.6750  -49.4140 C.3    82  PRO82       0.0939
     72  N        -19.8030   13.5690  -47.8540 N.3   105  SER105     -0.1202
     73  CA       -20.8120   13.1210  -46.9040 C.3   105  SER105      0.2020
     74  C        -20.8260   14.0270  -45.6770 C.2   105  SER105      0.2619
     75  O        -19.7920   14.5590  -45.2810 O.2   105  SER105     -0.2717
     76  CB       -20.5730   11.6710  -46.4940 C.3   105  SER105      0.2103
     77  OG       -21.5980   11.2320  -45.6190 O.3   105  SER105     -0.2182
     78  N        -22.0060   14.2030  -45.0890 N.am  106  ILE106     -0.1965
     79  CA       -22.1840   15.1020  -43.9560 C.3   106  ILE106      0.1727
     80  C        -22.8720   14.4030  -42.7870 C.2   106  ILE106      0.2617
     81  O        -23.7290   13.5370  -42.9840 O.2   106  ILE106     -0.2715
     82  CB       -23.0320   16.3190  -44.3500 C.3   106  ILE106      0.0290
     83  CG1      -22.3630   17.0980  -45.4890 C.3   106  ILE106      0.0022
     84  CG2      -23.2640   17.2200  -43.1420 C.3   106  ILE106      0.0023
     85  CD1      -23.2960   18.1130  -46.1720 C.3   106  ILE106      0.0001
     86  N        -22.4840   14.7790  -41.5730 N.am  107  SER107     -0.1936
     87  CA       -23.1310   14.2770  -40.3640 C.3   107  SER107      0.2055
     88  C        -23.0970   15.3360  -39.2670 C.2   107  SER107      0.2643
     89  O        -22.1710   16.1420  -39.2190 O.2   107  SER107     -0.2714
     90  CB       -22.4500   13.0000  -39.8690 C.3   107  SER107      0.2130
     91  OG       -23.1160   12.4760  -38.7340 O.3   107  SER107     -0.2179
     92  N        -24.1180   15.3400  -38.4040 N.am  108  HIS108     -0.1973
     93  CA       -24.1620   16.2300  -37.2430 C.3   108  HIS108      0.1656
     94  C        -24.5620   15.4340  -36.0080 C.2   108  HIS108      0.2291
     95  O        -25.2750   14.4390  -36.1020 O.2   108  HIS108     -0.2864
     96  CB       -25.2100   17.3480  -37.4000 C.3   108  HIS108      0.0771
     97  CG       -25.5090   17.7310  -38.8150 C.ar  108  HIS108      0.0820
     98  ND1      -26.2780   16.9500  -39.6490 N.ar  108  HIS108     -0.2267
     99  CD2      -25.1670   18.8270  -39.5350 C.ar  108  HIS108      0.1154
    100  CE1      -26.3760   17.5350  -40.8320 C.ar  108  HIS108      0.1986
    101  NE2      -25.7100   18.6730  -40.7900 N.ar  108  HIS108     -0.2212
@<TRIPOS>BOND
     1    35    34    2
     2    59    57   am
     3    58    57    2
     4    57    56    1
     5    34    33    1
     6    32    33    1
     7    56    53    1
     8    63    62    2
     9    33    36    1
    10    68    67    2
    11    67    66    1
    12    64    61    1
    13    62    61    1
    14    62    65   am
    15    53    54    1
    16    53    52    1
    17    60    61    1
    18    60    54   am
    19    36    37    1
    20    66    65    1
    21    66    69    1
    22    54    55    2
    23    52    45   am
    24    65    71    1
    25    37    38    1
    26    45    46    2
    27    45    44    1
    28    47    48    1
    29    47    44    1
    30    69    70    1
    31    43    44    1
    32    48    49    1
    33    38    39    1
    34    71    70    1
    35    51    50    1
    36     5     6    1
    37     5     2    1
    38     1     2    1
    39     7     6   ar
    40     7     9   ar
    41    41    40    1
    42     6     8   ar
    43     2     3    1
    44    49    50    1
    45     9    11   ar
    46    39    40    2
    47    72    73    1
    48    40    42    1
    49     8    10   ar
    50    11    10   ar
    51    11    12    1
    52    73    76    1
    53    73    74    1
    54     3     4    2
    55    76    77    1
    56    85    83    1
    57    74    75    2
    58    74    78   am
    59    83    82    1
    60    20    19    2
    61    78    79    1
    62    19    21   am
    63    19    18    1
    64    82    79    1
    65    82    84    1
    66    79    80    1
    67    31    30    2
    68    18    17    1
    69    30    29    1
    70    27    26    1
    71    81    80    2
    72    13    14    1
    73    25    24    2
    74    80    86   am
    75    17    14    1
    76    14    15    1
    77    24    23    1
    78    26    23    1
    79    29    28    1
    80    86    87    1
    81    23    22    1
    82   100   101   ar
    83   100    98   ar
    84   101    99   ar
    85    15    16    2
    86    87    90    1
    87    87    88    1
    88    90    91    1
    89    98    97   ar
    90    99    97   ar
    91    88    89    2
    92    88    92   am
    93    97    96    1
    94    92    93    1
    95    96    93    1
    96    93    94    1
    97    95    94    2
