@<TRIPOS>MOLECULE
tmp/2wawA00.pdb
 81 76 0 0 0
SMALL
GASTEIGER

@<TRIPOS>ATOM
      1  N         11.5780   -7.5710  -30.9390 N.3    27  LEU27      -0.1231
      2  CA        12.6620   -7.6010  -29.9860 C.3    27  LEU27       0.1693
      3  C         13.2920   -8.9790  -30.1470 C.2    27  LEU27       0.2593
      4  O         12.8780   -9.9560  -29.5110 O.2    27  LEU27      -0.2718
      5  CB        12.1500   -7.3340  -28.5620 C.3    27  LEU27       0.0284
      6  CG        13.1540   -6.8050  -27.5350 C.3    27  LEU27       0.0019
      7  CD1       13.5720   -5.3650  -27.8490 C.3    27  LEU27       0.0001
      8  CD2       12.5560   -6.9040  -26.1540 C.3    27  LEU27       0.0001
      9  N         14.2460   -9.0530  -31.0680 N.am   28  GLY28      -0.1942
     10  CA        14.8990  -10.3140  -31.4130 C.3    28  GLY28       0.2014
     11  C         13.9290  -11.2580  -32.0890 C.2    28  GLY28       0.2639
     12  O         13.2560  -10.8820  -33.0570 O.2    28  GLY28      -0.2714
     13  N         13.8340  -12.4750  -31.5550 N.am   29  ASP29      -0.1957
     14  CA        12.9750  -13.5180  -32.1250 C.3    29  ASP29       0.1840
     15  C         11.5310  -13.3930  -31.6590 C.2    29  ASP29       0.2622
     16  O         10.6770  -14.2150  -32.0170 O.2    29  ASP29      -0.2715
     17  CB        13.5150  -14.9170  -31.7780 C.3    29  ASP29       0.1450
     18  CG        13.6020  -15.1670  -30.2680 C.2    29  ASP29       0.3671
     19  OD1       13.5580  -14.1950  -29.4780 O.co2  29  ASP29      -0.2456
     20  OD2       13.7320  -16.3480  -29.8710 O.co2  29  ASP29      -0.2456
     21  N         11.2560  -12.3720  -30.8510 N.am   30  THR30      -0.1951
     22  CA         9.9190  -12.2120  -30.2960 C.3    30  THR30       0.1897
     23  C          9.4650  -10.7420  -30.4020 C.2    30  THR30       0.2313
     24  O         10.0700   -9.9720  -31.1470 O.2    30  THR30      -0.2863
     25  CB         9.8270  -12.7910  -28.8480 C.3    30  THR30       0.1794
     26  OG1        8.4580  -12.7990  -28.4270 O.3    30  THR30      -0.2208
     27  CG2       10.6960  -12.0100  -27.8610 C.3    30  THR30       0.0378
     28  N          8.4550  -10.8420  -25.0690 N.3    35  ALA35      -0.1245
     29  CA         9.6360  -10.9790  -24.2380 C.3    35  ALA35       0.1562
     30  C          9.3200  -10.8210  -22.7440 C.2    35  ALA35       0.2260
     31  O          9.7890  -11.6110  -21.8950 O.2    35  ALA35      -0.2867
     32  CB        10.7040   -9.9790  -24.6750 C.3    35  ALA35       0.0290
     33  N         10.9080   -5.9230  -20.2770 N.3   105  PRO105     -0.2102
     34  CA        11.3380   -7.3250  -20.3510 C.3   105  PRO105      0.1504
     35  C         12.6110   -7.6400  -19.5830 C.2   105  PRO105      0.2576
     36  O         12.9460   -8.8190  -19.4030 O.2   105  PRO105     -0.2718
     37  CB        11.5640   -7.5480  -21.8520 C.3   105  PRO105      0.0282
     38  CG        11.9070   -6.1820  -22.3940 C.3   105  PRO105      0.0208
     39  CD        11.0520   -5.2250  -21.5650 C.3   105  PRO105      0.0893
     40  N         13.3240   -6.5970  -19.1610 N.am  106  GLY106     -0.1957
     41  CA        14.5920   -6.7480  -18.4420 C.3   106  GLY106      0.1869
     42  C         14.4610   -7.1110  -16.9740 C.2   106  GLY106      0.2309
     43  O         15.4440   -7.3940  -16.3150 O.2   106  GLY106     -0.2863
     44  N         16.4770    0.0160  -25.9400 N.3   189  LEU189     -0.1245
     45  CA        16.2060   -1.3110  -25.4380 C.3   189  LEU189      0.1561
     46  C         16.6350   -2.3730  -26.4290 C.2   189  LEU189      0.2260
     47  O         17.1970   -3.3360  -26.0740 O.2   189  LEU189     -0.2867
     48  CB        14.7330   -1.4850  -25.0440 C.3   189  LEU189      0.0270
     49  CG        14.2910   -2.8550  -24.5870 C.3   189  LEU189      0.0019
     50  CD1       14.9690   -3.1780  -23.3040 C.3   189  LEU189      0.0001
     51  CD2       12.7720   -2.8630  -24.4530 C.3   189  LEU189      0.0001
     52  N         20.2750   -2.9570  -26.3150 N.3   192  SER192     -0.1202
     53  CA        20.7170   -3.7240  -25.1430 C.3   192  SER192      0.2020
     54  C         20.4880   -5.2190  -25.3580 C.2   192  SER192      0.2618
     55  O         21.3250   -6.0420  -24.9760 O.2   192  SER192     -0.2717
     56  CB        20.0520   -3.2360  -23.8530 C.3   192  SER192      0.2103
     57  OG        18.6710   -3.5540  -23.8190 O.3   192  SER192     -0.2182
     58  N         19.3620   -5.5600  -25.9820 N.am  193  VAL193     -0.1979
     59  CA        19.0420   -6.9430  -26.3250 C.3   193  VAL193      0.1595
     60  C         20.0390   -7.4780  -27.3600 C.2   193  VAL193      0.2287
     61  O         20.5570   -8.5920  -27.2150 O.2   193  VAL193     -0.2864
     62  CB        17.5730   -7.0910  -26.8120 C.3   193  VAL193      0.0276
     63  CG1       17.2930   -8.5060  -27.3070 C.3   193  VAL193      0.0022
     64  CG2       16.6070   -6.7470  -25.6830 C.3   193  VAL193      0.0022
     65  N         23.4250   -7.9310  -25.4150 N.3   196  LEU196     -0.1231
     66  CA        23.4730   -8.9910  -24.4320 C.3   196  LEU196      0.1693
     67  C         23.1890  -10.2560  -25.0900 C.2   196  LEU196      0.2591
     68  O         23.0680  -11.2440  -24.4380 O.2   196  LEU196     -0.2718
     69  CB        22.4560   -8.8710  -23.3370 C.3   196  LEU196      0.0284
     70  CG        22.4560   -7.8660  -22.2320 C.3   196  LEU196      0.0019
     71  CD1       22.9140   -6.5730  -22.7270 C.3   196  LEU196      0.0001
     72  CD2       21.0600   -7.7790  -21.7810 C.3   196  LEU196      0.0001
     73  N         22.9800  -10.2240  -26.3750 N.am  197  GLU197     -0.1979
     74  CA        22.7520  -11.4470  -27.0810 C.3   197  GLU197      0.1602
     75  C         24.0920  -11.9970  -27.4550 C.2   197  GLU197      0.2287
     76  O         24.4750  -13.0450  -26.9970 O.2   197  GLU197     -0.2864
     77  CB        21.9580  -11.2000  -28.3370 C.3   197  GLU197      0.0415
     78  CG        21.6590  -12.4340  -29.1310 C.3   197  GLU197      0.1163
     79  CD        20.7700  -12.2520  -30.3230 C.2   197  GLU197      0.3649
     80  OE1       20.4080  -11.1400  -30.6430 O.co2 197  GLU197     -0.2457
     81  OE2       20.5090  -13.1830  -31.1010 O.co2 197  GLU197     -0.2457
@<TRIPOS>BOND
     1    12    11    2
     2    14    17    1
     3    14    15    1
     4    14    13    1
     5    11    13   am
     6    11    10    1
     7    16    15    2
     8    17    18    1
     9    15    21   am
    10    10     9    1
    11    24    23    2
    12    81    79   ar
    13     9     3   am
    14     1     2    1
    15    21    22    1
    16    80    79   ar
    17    23    22    1
    18    79    78    1
    19    22    25    1
    20    18    20   ar
    21    18    19   ar
    22     3     2    1
    23     3     4    2
    24     2     5    1
    25    78    77    1
    26    25    26    1
    27    25    27    1
    28     5     6    1
    29    77    74    1
    30     7     6    1
    31     6     8    1
    32    75    74    1
    33    75    76    2
    34    60    61    2
    35    60    59    1
    36    63    62    1
    37    74    73    1
    38    62    59    1
    39    62    64    1
    40    46    47    2
    41    46    45    1
    42    73    67   am
    43    59    58    1
    44    52    53    1
    45    58    54   am
    46    44    45    1
    47    45    48    1
    48    65    66    1
    49    54    53    1
    50    54    55    2
    51    53    56    1
    52    67    68    2
    53    67    66    1
    54    28    29    1
    55    48    49    1
    56    32    29    1
    57    49    51    1
    58    49    50    1
    59    66    69    1
    60    29    30    1
    61    56    57    1
    62    69    70    1
    63    30    31    2
    64    71    70    1
    65    38    37    1
    66    38    39    1
    67    70    72    1
    68    37    34    1
    69    39    33    1
    70    34    33    1
    71    34    35    1
    72    35    36    2
    73    35    40   am
    74    40    41    1
    75    41    42    1
    76    42    43    2
