@<TRIPOS>MOLECULE
tmp/2waxC02.pdb
 90 89 0 0 0
SMALL
GASTEIGER

@<TRIPOS>ATOM
      1  N        -26.9050   -0.0210    0.6810 N.3    23  PHE23      -0.1227
      2  CA       -26.1940    0.6670    1.7530 C.3    23  PHE23       0.1736
      3  C        -25.5480   -0.2680    2.7670 C.2    23  PHE23       0.2596
      4  O        -24.3970   -0.1130    3.1030 O.2    23  PHE23      -0.2718
      5  CB       -27.1220    1.5960    2.5290 C.3    23  PHE23       0.0547
      6  CG       -27.3950    2.9000    1.8470 C.ar   23  PHE23      -0.0202
      7  CD1      -26.4170    3.5180    1.0730 C.ar   23  PHE23      -0.0042
      8  CD2      -28.6340    3.5190    1.9920 C.ar   23  PHE23      -0.0042
      9  CE1      -26.6740    4.7140    0.4520 C.ar   23  PHE23      -0.0003
     10  CE2      -28.8970    4.7200    1.3710 C.ar   23  PHE23      -0.0003
     11  CZ       -27.9110    5.3180    0.6090 C.ar   23  PHE23      -0.0000
     12  N        -26.2920   -1.2610    3.2260 N.am   24  SER24      -0.1938
     13  CA       -25.7710   -2.1590    4.2200 C.3    24  SER24       0.2055
     14  C        -24.8340   -3.2800    3.6940 C.2    24  SER24       0.2643
     15  O        -24.0520   -3.8690    4.4800 O.2    24  SER24      -0.2714
     16  CB       -26.9220   -2.7170    5.0770 C.3    24  SER24       0.2130
     17  OG       -27.5450   -3.7690    4.4160 O.3    24  SER24      -0.2179
     18  N        -24.8940   -3.5980    2.4010 N.am   25  ARG25      -0.1963
     19  CA       -24.0700   -4.6930    1.8890 C.3    25  ARG25       0.1729
     20  C        -22.9360   -4.2220    0.9550 C.2    25  ARG25       0.2616
     21  O        -22.0760   -5.0210    0.5600 O.2    25  ARG25      -0.2715
     22  CB       -24.9470   -5.7780    1.2440 C.3    25  ARG25       0.0348
     23  CG       -26.1160   -6.2630    2.1700 C.3    25  ARG25       0.0492
     24  CD       -25.7200   -7.3780    3.2160 C.3    25  ARG25       0.2205
     25  NE       -26.8180   -7.6830    4.1680 N.pl3  25  ARG25      -0.0865
     26  CZ       -26.7480   -7.6100    5.5090 C.cat  25  ARG25       0.5346
     27  NH1      -25.6340   -7.2430    6.1360 N.pl3  25  ARG25       0.1354
     28  NH2      -27.8090   -7.9050    6.2430 N.pl3  25  ARG25       0.1354
     29  N        -22.9040   -2.9330    0.6200 N.am   26  LEU26      -0.1963
     30  CA       -21.8500   -2.4330   -0.2690 C.3    26  LEU26       0.1728
     31  C        -20.7780   -1.6800    0.5280 C.2    26  LEU26       0.2616
     32  O        -21.0860   -0.8070    1.3590 O.2    26  LEU26      -0.2715
     33  CB       -22.4320   -1.5280   -1.3540 C.3    26  LEU26       0.0311
     34  CG       -23.3680   -2.1360   -2.4020 C.3    26  LEU26       0.0022
     35  CD1      -23.7580   -1.0750   -3.4150 C.3    26  LEU26       0.0001
     36  CD2      -22.7430   -3.3630   -3.1170 C.3    26  LEU26       0.0001
     37  N        -19.5190   -1.9740    0.2670 N.am   27  GLN27      -0.1963
     38  CA       -18.4480   -1.2040    0.9240 C.3    27  GLN27       0.1733
     39  C        -18.2350    0.1730    0.2590 C.2    27  GLN27       0.2616
     40  O        -17.1900    0.4410   -0.3660 O.2    27  GLN27      -0.2715
     41  CB       -17.1310   -1.9990    0.9440 C.3    27  GLN27       0.0408
     42  CG       -16.0070   -1.3650    1.8250 C.3    27  GLN27       0.0908
     43  CD       -14.8790   -2.3570    2.1720 C.2    27  GLN27       0.2608
     44  OE1      -15.1380   -3.5250    2.5000 O.2    27  GLN27      -0.2717
     45  NE2      -13.6310   -1.8820    2.1230 N.am   27  GLN27      -0.0878
     46  N        -19.2450    1.0200    0.3750 N.am   28  ILE28      -0.1977
     47  CA       -19.1920    2.3620   -0.1250 C.3    28  ILE28       0.1596
     48  C        -18.1770    3.1930    0.6510 C.2    28  ILE28       0.2287
     49  O        -18.1590    3.1750    1.8780 O.2    28  ILE28      -0.2864
     50  CB       -20.5860    3.0260   -0.0380 C.3    28  ILE28       0.0276
     51  CG1      -21.5280    2.3220   -1.0330 C.3    28  ILE28       0.0022
     52  CG2      -20.4970    4.5260   -0.2820 C.3    28  ILE28       0.0022
     53  CD1      -22.9290    2.5030   -0.7410 C.3    28  ILE28       0.0001
     54  N        -28.7790    6.7970    7.3870 N.3    53  TYR53      -0.1227
     55  CA       -27.5780    7.1550    6.6060 C.3    53  TYR53       0.1736
     56  C        -27.5110    8.6320    6.3060 C.2    53  TYR53       0.2596
     57  O        -28.5220    9.2670    5.9960 O.2    53  TYR53      -0.2718
     58  CB       -27.4400    6.3090    5.2980 C.3    53  TYR53       0.0548
     59  CG       -27.4660    4.8230    5.5960 C.ar   53  TYR53      -0.0200
     60  CD1      -26.3490    4.1850    6.1600 C.ar   53  TYR53      -0.0009
     61  CD2      -28.6090    4.0670    5.3530 C.ar   53  TYR53      -0.0009
     62  CE1      -26.3730    2.8360    6.4790 C.ar   53  TYR53       0.0417
     63  CE2      -28.6620    2.7160    5.6780 C.ar   53  TYR53       0.0417
     64  CZ       -27.5460    2.1080    6.2430 C.ar   53  TYR53       0.1957
     65  OH       -27.5940    0.7700    6.5160 O.3    53  TYR53      -0.2866
     66  N        -26.3070    9.1740    6.3670 N.am   54  SER54      -0.1952
     67  CA       -26.1470   10.5730    6.0780 C.3    54  SER54       0.1924
     68  C        -26.1220   10.8530    4.5500 C.2    54  SER54       0.2314
     69  O        -25.7020   10.0120    3.7390 O.2    54  SER54      -0.2863
     70  CB       -24.9340   11.1410    6.8080 C.3    54  SER54       0.2116
     71  OG       -23.7670   10.4350    6.4330 O.3    54  SER54      -0.2180
     72  N        -21.1630   11.1600    3.6190 N.3    80  ARG80      -0.1231
     73  CA       -20.7610   10.0290    2.7820 C.3    80  ARG80       0.1694
     74  C        -21.4600    9.8340    1.4100 C.2    80  ARG80       0.2592
     75  O        -20.8680    9.2670    0.4700 O.2    80  ARG80      -0.2718
     76  CB       -20.8670    8.7630    3.6100 C.3    80  ARG80       0.0321
     77  CG       -19.5260    8.2220    3.9820 C.3    80  ARG80       0.0489
     78  CD       -19.7370    6.7910    4.3320 C.3    80  ARG80       0.2205
     79  NE       -18.6430    5.9390    3.9430 N.pl3  80  ARG80      -0.0865
     80  CZ       -17.6610    5.5890    4.7490 C.cat  80  ARG80       0.5346
     81  NH1      -17.6250    6.0490    5.9900 N.pl3  80  ARG80       0.1354
     82  NH2      -16.7020    4.8000    4.2920 N.pl3  80  ARG80       0.1354
     83  N        -22.7010   10.3090    1.3350 N.am   81  ASN81      -0.1974
     84  CA       -23.6330   10.1460    0.2190 C.3    81  ASN81       0.1688
     85  C        -24.1960   11.4750   -0.2380 C.2    81  ASN81       0.2292
     86  O        -24.4750   12.3570    0.5950 O.2    81  ASN81      -0.2864
     87  CB       -24.8160    9.2260    0.6290 C.3    81  ASN81       0.1181
     88  CG       -24.3260    7.9800    1.2860 C.2    81  ASN81       0.2629
     89  OD1      -23.6040    7.1920    0.6500 O.2    81  ASN81      -0.2716
     90  ND2      -24.6210    7.8140    2.5900 N.am   81  ASN81      -0.0877
@<TRIPOS>BOND
     1    35    34    1
     2    36    34    1
     3    34    33    1
     4    33    30    1
     5    51    53    1
     6    51    50    1
     7    40    39    2
     8    52    50    1
     9    30    31    1
    10    30    29    1
    11    85    84    1
    12    85    86    2
    13    47    50    1
    14    47    46    1
    15    47    48    1
    16    84    87    1
    17    84    83    1
    18    39    46   am
    19    39    38    1
    20    37    31   am
    21    37    38    1
    22     9    11   ar
    23     9     7   ar
    24    75    74    2
    25    31    32    2
    26    21    20    2
    27    11    10   ar
    28    29    20   am
    29    87    88    1
    30    89    88    2
    31    48    49    2
    32     1     2    1
    33    38    41    1
    34    41    42    1
    35    20    19    1
    36     7     6   ar
    37    22    19    1
    38    22    23    1
    39    88    90   am
    40    83    74   am
    41    10     8   ar
    42    74    73    1
    43     2     5    1
    44     2     3    1
    45    42    43    1
    46     6     8   ar
    47     6     5    1
    48    19    18    1
    49    45    43   am
    50    23    24    1
    51    43    44    2
    52    18    14   am
    53     3     4    2
    54     3    12   am
    55    73    76    1
    56    73    72    1
    57    24    25    1
    58    12    13    1
    59    76    77    1
    60    14    13    1
    61    14    15    2
    62    69    68    2
    63    79    78    1
    64    79    80    2
    65    77    78    1
    66    25    26    2
    67    13    16    1
    68    82    80    1
    69    17    16    1
    70    68    67    1
    71    80    81    1
    72    58    59    1
    73    58    55    1
    74    61    59   ar
    75    61    63   ar
    76    26    27    1
    77    26    28    1
    78    59    60   ar
    79    63    64   ar
    80    57    56    2
    81    67    66    1
    82    67    70    1
    83    60    62   ar
    84    64    62   ar
    85    64    65    1
    86    56    66   am
    87    56    55    1
    88    71    70    1
    89    55    54    1
