@<TRIPOS>MOLECULE
tmp/2wb4A03.pdb
 113 108 0 0 0
SMALL
GASTEIGER

@<TRIPOS>ATOM
      1  N         19.0020   14.5600   42.4300 N.3    71  PRO71      -0.2116
      2  CA        18.9280   14.7650   40.9770 C.3    71  PRO71       0.1372
      3  C         20.2750   14.8930   40.2830 C.2    71  PRO71       0.2244
      4  O         20.3980   14.5180   39.1290 O.2    71  PRO71      -0.2868
      5  CB        18.1160   16.0600   40.8300 C.3    71  PRO71       0.0268
      6  CG        17.9850   16.6160   42.1980 C.3    71  PRO71       0.0207
      7  CD        18.1440   15.5070   43.1600 C.3    71  PRO71       0.0892
      8  N         21.7380   11.1220   40.2730 N.3    74  ARG74      -0.1245
      9  CA        20.7440   10.1120   39.8980 C.3    74  ARG74       0.1563
     10  C         21.1110    9.3120   38.6350 C.2    74  ARG74       0.2260
     11  O         20.9070    8.1100   38.5890 O.2    74  ARG74      -0.2867
     12  CB        19.3870   10.8220   39.6900 C.3    74  ARG74       0.0307
     13  CG        18.2020    9.9040   39.3990 C.3    74  ARG74       0.0489
     14  CD        16.8750   10.6770   39.2090 C.3    74  ARG74       0.2205
     15  NE        16.5070   11.4610   40.3830 N.pl3  74  ARG74      -0.0865
     16  CZ        15.5280   12.3610   40.3980 C.cat  74  ARG74       0.5346
     17  NH1       14.8190   12.5890   39.3000 N.pl3  74  ARG74       0.1354
     18  NH2       15.2560   13.0310   41.5090 N.pl3  74  ARG74       0.1354
     19  N         21.4990   14.6670   27.9130 N.3   129  ARG129     -0.1245
     20  CA        21.6040   15.4080   29.1730 C.3   129  ARG129      0.1563
     21  C         22.2450   16.7610   28.9400 C.2   129  ARG129      0.2260
     22  O         21.7830   17.7760   29.4440 O.2   129  ARG129     -0.2867
     23  CB        22.4420   14.6550   30.2130 C.3   129  ARG129      0.0307
     24  CG        21.6380   13.8570   31.2070 C.3   129  ARG129      0.0489
     25  CD        22.5130   13.0340   32.1470 C.3   129  ARG129      0.2205
     26  NE        23.7280   13.7240   32.6080 N.pl3 129  ARG129     -0.0865
     27  CZ        23.7830   14.6450   33.5810 C.cat 129  ARG129      0.5346
     28  NH1       22.6840   15.0420   34.2270 N.pl3 129  ARG129      0.1354
     29  NH2       24.9590   15.1820   33.9150 N.pl3 129  ARG129      0.1354
     30  N         20.0470   19.1910   27.3160 N.3   132  GLU132     -0.1231
     31  CA        18.9850   19.5510   28.2650 C.3   132  GLU132      0.1699
     32  C         19.4960   20.4770   29.3360 C.2   132  GLU132      0.2592
     33  O         18.8940   21.5040   29.6090 O.2   132  GLU132     -0.2718
     34  CB        18.4060   18.3300   28.9730 C.3   132  GLU132      0.0402
     35  CG        17.0720   18.6080   29.6960 C.3   132  GLU132      0.1161
     36  CD        17.0240   18.2030   31.1890 C.2   132  GLU132      0.3649
     37  OE1       18.0160   17.6490   31.7570 O.co2 132  GLU132     -0.2457
     38  OE2       15.9490   18.4640   31.7950 O.co2 132  GLU132     -0.2457
     39  N         20.6080   20.1060   29.9610 N.am  133  ALA133     -0.1980
     40  CA        21.1750   20.9290   31.0250 C.3   133  ALA133      0.1597
     41  C         21.5010   22.3380   30.4950 C.2   133  ALA133      0.2287
     42  O         21.3580   23.3200   31.2180 O.2   133  ALA133     -0.2864
     43  CB        22.3880   20.2590   31.6340 C.3   133  ALA133      0.0319
     44  N         18.1980   24.1780   30.4370 N.3   136  ARG136     -0.1245
     45  CA        17.7550   24.6390   31.7720 C.3   136  ARG136      0.1563
     46  C         18.5410   25.8690   32.2310 C.2   136  ARG136      0.2260
     47  O         17.9930   26.8330   32.7730 O.2   136  ARG136     -0.2867
     48  CB        17.8900   23.5460   32.8220 C.3   136  ARG136      0.0307
     49  CG        17.1480   22.2590   32.4400 C.3   136  ARG136      0.0489
     50  CD        17.4510   21.1370   33.3900 C.3   136  ARG136      0.2205
     51  NE        16.9090   21.4510   34.7060 N.pl3 136  ARG136     -0.0865
     52  CZ        15.6620   21.1820   35.0920 C.cat 136  ARG136      0.5346
     53  NH1       14.8170   20.5770   34.2630 N.pl3 136  ARG136      0.1354
     54  NH2       15.2620   21.5100   36.3170 N.pl3 136  ARG136      0.1354
     55  N         12.2050   23.6360   31.7940 N.3   142  ALA142     -0.1231
     56  CA        11.9750   23.3140   33.2060 C.3   142  ALA142      0.1694
     57  C         11.4640   21.8820   33.1940 C.2   142  ALA142      0.2593
     58  O         11.3480   21.2820   32.1120 O.2   142  ALA142     -0.2718
     59  CB        10.9800   24.2530   33.8720 C.3   142  ALA142      0.0304
     60  N         11.1990   21.3240   34.3800 N.am  143  GLY143     -0.1942
     61  CA        10.8940   19.8940   34.5030 C.3   143  GLY143      0.2014
     62  C         11.4720   19.2440   35.7490 C.2   143  GLY143      0.2639
     63  O         12.3850   19.7950   36.4040 O.2   143  GLY143     -0.2714
     64  N         10.9320   18.0730   36.0850 N.am  144  ALA144     -0.1963
     65  CA        11.4320   17.3170   37.2180 C.3   144  ALA144      0.1728
     66  C         11.3270   15.8220   36.9740 C.2   144  ALA144      0.2616
     67  O         10.3260   15.2180   37.3000 O.2   144  ALA144     -0.2715
     68  CB        10.7020   17.7230   38.5130 C.3   144  ALA144      0.0334
     69  N         12.4000   15.2480   36.4320 N.am  145  ALA145     -0.1963
     70  CA        12.5260   13.7980   36.1980 C.3   145  ALA145      0.1728
     71  C         12.2690   12.8910   37.4430 C.2   145  ALA145      0.2616
     72  O         11.9710   11.7070   37.3130 O.2   145  ALA145     -0.2715
     73  CB        13.9130   13.4930   35.6000 C.3   145  ALA145      0.0334
     74  N         12.3350   13.4500   38.6450 N.am  146  ALA146     -0.1963
     75  CA        11.8760   12.7220   39.8470 C.3   146  ALA146      0.1728
     76  C         10.5040   12.0040   39.6720 C.2   146  ALA146      0.2616
     77  O         10.1990   11.0840   40.4100 O.2   146  ALA146     -0.2715
     78  CB        11.8530   13.6660   41.1110 C.3   146  ALA146      0.0334
     79  N          9.6870   12.4170   38.7040 N.am  147  ARG147     -0.1977
     80  CA         8.3920   11.7620   38.4380 C.3   147  ARG147      0.1597
     81  C          8.5050   10.5080   37.6120 C.2   147  ARG147      0.2287
     82  O          7.4960   10.0010   37.1390 O.2   147  ARG147     -0.2864
     83  CB         7.4350   12.6680   37.6470 C.3   147  ARG147      0.0334
     84  CG         8.1200   13.6030   36.6470 C.3   147  ARG147      0.0492
     85  CD         7.5090   13.6370   35.2650 C.3   147  ARG147      0.2205
     86  NE         6.0730   13.9510   35.2520 N.pl3 147  ARG147     -0.0865
     87  CZ         5.5220   15.1350   35.5370 C.cat 147  ARG147      0.5346
     88  NH1        6.2560   16.1850   35.8960 N.pl3 147  ARG147      0.1354
     89  NH2        4.2020   15.2710   35.4840 N.pl3 147  ARG147      0.1354
     90  N         13.5340    7.6060   31.4110 N.3   273  TYR273     -0.1241
     91  CA        14.3920    8.7670   31.6170 C.3   273  TYR273      0.1605
     92  C         14.8700    9.3660   30.2960 C.2   273  TYR273      0.2264
     93  O         14.9270   10.5780   30.1360 O.2   273  TYR273     -0.2867
     94  CB        15.6000    8.3980   32.4950 C.3   273  TYR273      0.0534
     95  CG        16.5260    9.5590   32.7680 C.ar  273  TYR273     -0.0201
     96  CD1       16.0370   10.7660   33.2730 C.ar  273  TYR273     -0.0009
     97  CD2       17.8970    9.4710   32.5050 C.ar  273  TYR273     -0.0009
     98  CE1       16.8790   11.8420   33.5080 C.ar  273  TYR273      0.0417
     99  CE2       18.7500   10.5540   32.7450 C.ar  273  TYR273      0.0417
    100  CZ        18.2230   11.7260   33.2420 C.ar  273  TYR273      0.1957
    101  OH        19.0320   12.7860   33.4730 O.3   273  TYR273     -0.2866
    102  N         12.0440   11.0450   28.4380 N.3   276  TYR276     -0.1241
    103  CA        11.7530   12.3180   29.0800 C.3   276  TYR276      0.1605
    104  C         12.6640   13.4050   28.5740 C.2   276  TYR276      0.2264
    105  O         12.2400   14.5270   28.4170 O.2   276  TYR276     -0.2867
    106  CB        11.8900   12.1560   30.5860 C.3   276  TYR276      0.0534
    107  CG        12.0340   13.4090   31.3960 C.ar  276  TYR276     -0.0201
    108  CD1       10.9110   14.1560   31.7780 C.ar  276  TYR276     -0.0009
    109  CD2       13.2980   13.8190   31.8500 C.ar  276  TYR276     -0.0009
    110  CE1       11.0520   15.3190   32.5680 C.ar  276  TYR276      0.0417
    111  CE2       13.4520   14.9630   32.6420 C.ar  276  TYR276      0.0417
    112  CZ        12.3310   15.7100   32.9960 C.ar  276  TYR276      0.1957
    113  OH        12.5130   16.8400   33.7660 O.3   276  TYR276     -0.2866
@<TRIPOS>BOND
     1    30    31    1
     2    19    20    1
     3    31    34    1
     4    31    32    1
     5   105   104    2
     6   102   103    1
     7   104   103    1
     8    21    20    1
     9    21    22    2
    10    34    35    1
    11   103   106    1
    12    20    23    1
    13    32    33    2
    14    32    39   am
    15    35    36    1
    16    39    40    1
    17    93    92    2
    18    23    24    1
    19    92    91    1
    20    44    45    1
    21    41    40    1
    22    41    42    2
    23   106   107    1
    24    40    43    1
    25    36    37   ar
    26    36    38   ar
    27    24    25    1
    28   107   108   ar
    29   107   109   ar
    30    90    91    1
    31    91    94    1
    32    45    46    1
    33    45    48    1
    34   108   110   ar
    35    55    56    1
    36   109   111   ar
    37    58    57    2
    38    25    26    1
    39    46    47    2
    40    49    48    1
    41    49    50    1
    42    94    95    1
    43    97    99   ar
    44    97    95   ar
    45   110   112   ar
    46    26    27    2
    47   111   112   ar
    48    99   100   ar
    49    95    96   ar
    50   112   113    1
    51    57    56    1
    52    57    60   am
    53    56    59    1
    54   100   101    1
    55   100    98   ar
    56    96    98   ar
    57    50    51    1
    58    27    29    1
    59    27    28    1
    60    53    52    1
    61    60    61    1
    62    61    62    1
    63    51    52    2
    64    52    54    1
    65    86    85    1
    66    86    87    2
    67    85    84    1
    68    89    87    1
    69    87    88    1
    70    73    70    1
    71    62    64   am
    72    62    63    2
    73    64    65    1
    74    70    69    1
    75    70    71    1
    76    69    66   am
    77    84    83    1
    78    66    65    1
    79    66    67    2
    80    82    81    2
    81    65    68    1
    82    72    71    2
    83    71    74   am
    84    81    80    1
    85    83    80    1
    86    80    79    1
    87    11    10    2
    88    10     9    1
    89    74    75    1
    90    79    76   am
    91     4     3    2
    92    14    13    1
    93    14    15    1
    94    17    16    1
    95    13    12    1
    96    76    75    1
    97    76    77    2
    98    12     9    1
    99    75    78    1
   100     9     8    1
   101     3     2    1
   102    15    16    2
   103    16    18    1
   104     5     2    1
   105     5     6    1
   106     2     1    1
   107     6     7    1
   108     1     7    1
