@<TRIPOS>MOLECULE
tmp/2wb5B01.pdb
 163 158 0 0 0
SMALL
GASTEIGER

@<TRIPOS>ATOM
      1  N         -0.8350    0.2920    8.7910 N.3   148  GLY148     -0.1210
      2  CA        -0.9860    0.0060   10.2050 C.3   148  GLY148      0.1956
      3  C         -0.9690    1.2310   11.0650 C.2   148  GLY148      0.2612
      4  O         -0.5860    1.1510   12.2430 O.2   148  GLY148     -0.2717
      5  N         -1.3810    2.3670   10.4910 N.am  149  PHE149     -0.1962
      6  CA        -1.3120    3.6340   11.2050 C.3   149  PHE149      0.1771
      7  C         -2.6170    3.9350   11.9070 C.2   149  PHE149      0.2619
      8  O         -3.6280    3.2540   11.6650 O.2   149  PHE149     -0.2715
      9  CB        -0.9320    4.7870   10.2420 C.3   149  PHE149      0.0574
     10  CG        -1.7940    4.8660    9.0340 C.ar  149  PHE149     -0.0200
     11  CD1       -3.0730    5.3680    9.1280 C.ar  149  PHE149     -0.0042
     12  CD2       -1.3350    4.4000    7.8040 C.ar  149  PHE149     -0.0042
     13  CE1       -3.8780    5.4390    8.0170 C.ar  149  PHE149     -0.0003
     14  CE2       -2.1220    4.4480    6.6880 C.ar  149  PHE149     -0.0003
     15  CZ        -3.4060    4.9590    6.7890 C.ar  149  PHE149     -0.0000
     16  N         -2.5870    4.9150   12.8140 N.am  150  TYR150     -0.1974
     17  CA        -3.8000    5.5180   13.3720 C.3   150  TYR150      0.1639
     18  C         -4.2820    6.6470   12.4440 C.2   150  TYR150      0.2290
     19  O         -3.4840    7.2470   11.7280 O.2   150  TYR150     -0.2864
     20  CB        -3.5040    6.0900   14.7530 C.3   150  TYR150      0.0560
     21  CG        -3.1720    5.0630   15.8440 C.ar  150  TYR150     -0.0198
     22  CD1       -1.8590    4.6780   16.0860 C.ar  150  TYR150     -0.0009
     23  CD2       -4.1780    4.4950   16.6440 C.ar  150  TYR150     -0.0009
     24  CE1       -1.5430    3.7760   17.0940 C.ar  150  TYR150      0.0417
     25  CE2       -3.8720    3.5850   17.6580 C.ar  150  TYR150      0.0417
     26  CZ        -2.5430    3.2140   17.8620 C.ar  150  TYR150      0.1957
     27  OH        -2.2100    2.2930   18.8330 O.3   150  TYR150     -0.2866
     28  N         -5.1950    0.5090   12.4340 N.3   179  LYS179     -0.1245
     29  CA        -5.6030    0.6990   13.8310 C.3   179  LYS179      0.1561
     30  C         -7.0630    1.1350   13.9320 C.2   179  LYS179      0.2260
     31  O         -7.7920    0.6680   14.8170 O.2   179  LYS179     -0.2867
     32  CB        -4.6960    1.7260   14.5410 C.3   179  LYS179      0.0271
     33  CG        -3.2320    1.2490   14.7820 C.3   179  LYS179      0.0035
     34  CD        -3.1230    0.2720   15.9640 C.3   179  LYS179      0.0206
     35  CE        -1.6600   -0.0640   16.2640 C.3   179  LYS179      0.1093
     36  NZ        -1.0360   -0.8570   15.1390 N.3   179  LYS179     -0.1314
     37  N          0.9520   -4.9540   19.6090 N.3   258  ASP258     -0.1225
     38  CA         1.5960   -3.6690   19.8610 C.3   258  ASP258      0.1805
     39  C          0.6110   -2.7220   20.5270 C.2   258  ASP258      0.2597
     40  O         -0.6040   -2.8100   20.2870 O.2   258  ASP258     -0.2718
     41  CB         2.0580   -3.0560   18.5360 C.3   258  ASP258      0.1424
     42  CG         0.9140   -2.9410   17.5240 C.2   258  ASP258      0.3668
     43  OD1        0.2090   -3.9500   17.3030 O.co2 258  ASP258     -0.2456
     44  OD2        0.7110   -1.8660   16.9260 O.co2 258  ASP258     -0.2456
     45  N          1.1250   -1.8160   21.3600 N.am  259  ASP259     -0.1974
     46  CA         0.3080   -0.7140   21.8750 C.3   259  ASP259      0.1709
     47  C         -0.7330   -1.1500   22.9100 C.2   259  ASP259      0.2293
     48  O         -1.7760   -0.5420   23.0270 O.2   259  ASP259     -0.2864
     49  CB        -0.4140    0.0050   20.7130 C.3   259  ASP259      0.1436
     50  CG         0.4940    0.9890   19.9460 C.2   259  ASP259      0.3671
     51  OD1       -0.0660    1.8290   19.1980 O.co2 259  ASP259     -0.2456
     52  OD2        1.7500    0.9170   20.0810 O.co2 259  ASP259     -0.2456
     53  N          3.9920   -8.9840   15.8980 N.3   292  VAL292     -0.1245
     54  CA         4.8280   -7.9130   16.4290 C.3   292  VAL292      0.1561
     55  C          4.5220   -7.9930   17.8860 C.2   292  VAL292      0.2260
     56  O          3.3490   -7.9380   18.2450 O.2   292  VAL292     -0.2867
     57  CB         4.4580   -6.4890   15.8740 C.3   292  VAL292      0.0252
     58  CG1        3.0440   -6.1840   16.1480 C.3   292  VAL292      0.0019
     59  CG2        5.3050   -5.4080   16.5370 C.3   292  VAL292      0.0019
     60  N          8.5810   -4.0470   20.9100 N.3   296  TYR296     -0.1241
     61  CA         8.8870   -4.1650   19.4810 C.3   296  TYR296      0.1605
     62  C          9.9440   -3.1950   18.9700 C.2   296  TYR296      0.2264
     63  O         10.2630   -3.2470   17.7690 O.2   296  TYR296     -0.2867
     64  CB         7.6190   -4.0110   18.6340 C.3   296  TYR296      0.0534
     65  CG         6.8940   -2.7330   18.9470 C.ar  296  TYR296     -0.0201
     66  CD1        5.7470   -2.7220   19.7490 C.ar  296  TYR296     -0.0009
     67  CD2        7.3930   -1.5200   18.4820 C.ar  296  TYR296     -0.0009
     68  CE1        5.0970   -1.5120   20.0510 C.ar  296  TYR296      0.0417
     69  CE2        6.7580   -0.3240   18.7670 C.ar  296  TYR296      0.0417
     70  CZ         5.6230   -0.3120   19.5340 C.ar  296  TYR296      0.1957
     71  OH         5.0720    0.9240   19.8020 O.3   296  TYR296     -0.2866
     72  N         10.7940   -2.4950   15.0620 N.3   327  THR327     -0.1218
     73  CA        10.8230   -1.2180   14.3870 C.3   327  THR327      0.1862
     74  C         12.2090   -0.6140   14.3700 C.2   327  THR327      0.2287
     75  O         12.4040    0.4640   13.8140 O.2   327  THR327     -0.2866
     76  CB         9.9240   -0.1990   15.1230 C.3   327  THR327      0.1770
     77  OG1       10.3510   -0.1000   16.5010 O.3   327  THR327     -0.2211
     78  CG2        8.4440   -0.6410   15.0460 C.3   327  THR327      0.0375
     79  N         10.8720    3.3710   18.2920 N.3   331  VAL331     -0.1231
     80  CA         9.6170    3.2530   17.6140 C.3   331  VAL331      0.1692
     81  C          9.6440    4.0130   16.2890 C.2   331  VAL331      0.2591
     82  O          9.2420    3.4680   15.2260 O.2   331  VAL331     -0.2718
     83  CB         8.4760    3.8000   18.5040 C.3   331  VAL331      0.0266
     84  CG1        7.1280    3.7180   17.7670 C.3   331  VAL331      0.0020
     85  CG2        8.4360    3.0680   19.8370 C.3   331  VAL331      0.0020
     86  N         10.0290    5.2880   16.3630 N.am  332  VAL332     -0.1980
     87  CA        10.3580    6.0780   15.1760 C.3   332  VAL332      0.1595
     88  C         11.8020    6.5660   15.3730 C.2   332  VAL332      0.2287
     89  O         12.0900    7.2960   16.3190 O.2   332  VAL332     -0.2864
     90  CB         9.4090    7.2610   14.9810 C.3   332  VAL332      0.0276
     91  CG1        9.8150    8.0390   13.7510 C.3   332  VAL332      0.0022
     92  CG2        7.9620    6.7510   14.8210 C.3   332  VAL332      0.0022
     93  N          9.1460   -3.3970   10.7170 N.3   355  TRP355     -0.1241
     94  CA         8.0120   -2.5180   10.5850 C.3   355  TRP355      0.1605
     95  C          8.6320   -1.1270   10.6960 C.2   355  TRP355      0.2264
     96  O          8.9560   -0.7010   11.7800 O.2   355  TRP355     -0.2867
     97  CB         7.0510   -2.7710   11.7420 C.3   355  TRP355      0.0550
     98  CG         5.8620   -1.8080   11.8380 C.ar  355  TRP355      0.0003
     99  CD1        5.8950   -0.4440   11.7400 C.ar  355  TRP355      0.0946
    100  CD2        4.4760   -2.1600   12.0730 C.ar  355  TRP355      0.0152
    101  NE1        4.6300    0.0680   11.8850 N.ar  355  TRP355     -0.2442
    102  CE2        3.7390   -0.9530   12.0910 C.ar  355  TRP355      0.0810
    103  CE3        3.7950   -3.3800   12.2610 C.ar  355  TRP355      0.0012
    104  CZ2        2.3590   -0.9150   12.2950 C.ar  355  TRP355      0.0191
    105  CZ3        2.4170   -3.3460   12.4630 C.ar  355  TRP355      0.0001
    106  CH2        1.7130   -2.1060   12.4900 C.ar  355  TRP355      0.0015
    107  N          8.5930    2.7780   10.7190 N.3   357  ASN357     -0.1240
    108  CA         7.6480    3.8400   10.9070 C.3   357  ASN357      0.1653
    109  C          8.0820    5.1130   10.1960 C.2   357  ASN357      0.2266
    110  O          8.3830    6.1330   10.8190 O.2   357  ASN357     -0.2867
    111  CB         7.3660    4.0270   12.3850 C.3   357  ASN357      0.1155
    112  CG         6.3100    3.0440   12.8780 C.2   357  ASN357      0.2627
    113  OD1        5.2850    2.8600   12.2070 O.2   357  ASN357     -0.2716
    114  ND2        6.5630    2.3790   14.0030 N.am  357  ASN357     -0.0877
    115  N          5.0620    7.1840    7.8990 N.3   360  VAL360     -0.1245
    116  CA         3.8480    7.3960    8.7000 C.3   360  VAL360      0.1561
    117  C          3.9560    8.7100    9.4710 C.2   360  VAL360      0.2260
    118  O          5.0340    9.0150    9.9600 O.2   360  VAL360     -0.2867
    119  CB         3.6100    6.2310    9.7160 C.3   360  VAL360      0.0252
    120  CG1        4.8020    6.0750   10.6470 C.3   360  VAL360      0.0019
    121  CG2        2.3600    6.4910   10.5320 C.3   360  VAL360      0.0019
    122  N          1.2670    9.7750   11.7530 N.3   362  ASP362     -0.1225
    123  CA         0.0740    9.8200   12.5900 C.3   362  ASP362      0.1805
    124  C          0.3670   10.5000   13.9410 C.2   362  ASP362      0.2597
    125  O         -0.5310   10.9540   14.6160 O.2   362  ASP362     -0.2718
    126  CB        -0.5810    8.4390   12.6930 C.3   362  ASP362      0.1424
    127  CG         0.3340    7.3900   13.3120 C.2   362  ASP362      0.3668
    128  OD1        1.4250    7.7740   13.8030 O.co2 362  ASP362     -0.2456
    129  OD2       -0.0450    6.1790   13.3020 O.co2 362  ASP362     -0.2456
    130  N          1.6360   10.6420   14.2800 N.am  363  TYR363     -0.1976
    131  CA         2.0200   11.2060   15.5680 C.3   363  TYR363      0.1639
    132  C          2.3970   12.6830   15.4060 C.2   363  TYR363      0.2290
    133  O          2.7750   13.3320   16.3470 O.2   363  TYR363     -0.2864
    134  CB         3.2160   10.4340   16.1290 C.3   363  TYR363      0.0560
    135  CG         4.3980   10.4160   15.1610 C.ar  363  TYR363     -0.0198
    136  CD1        5.3780   11.3830   15.2290 C.ar  363  TYR363     -0.0009
    137  CD2        4.5320    9.4200   14.2000 C.ar  363  TYR363     -0.0009
    138  CE1        6.4320   11.3880   14.3470 C.ar  363  TYR363      0.0417
    139  CE2        5.5740    9.4220   13.3000 C.ar  363  TYR363      0.0417
    140  CZ         6.5150   10.4120   13.3750 C.ar  363  TYR363      0.1957
    141  OH         7.5880   10.4360   12.5260 O.3   363  TYR363     -0.2866
    142  N          5.4000    1.5610    7.3590 N.3   390  ASN390     -0.1240
    143  CA         4.1200    2.0970    7.7260 C.3   390  ASN390      0.1653
    144  C          4.0500    3.4570    7.0510 C.2   390  ASN390      0.2266
    145  O          4.8840    4.3090    7.3290 O.2   390  ASN390     -0.2867
    146  CB         4.0700    2.2470    9.2490 C.3   390  ASN390      0.1155
    147  CG         2.6500    2.4390    9.7780 C.2   390  ASN390      0.2627
    148  OD1        1.6880    2.2370    9.0420 O.2   390  ASN390     -0.2716
    149  ND2        2.5200    2.8310   11.0560 N.am  390  ASN390     -0.0877
    150  N         10.1500   11.7580   21.5050 N.3   451  TRP451     -0.1241
    151  CA        10.4930   10.3780   21.2070 C.3   451  TRP451      0.1605
    152  C         10.4700    9.9660   19.7400 C.2   451  TRP451      0.2264
    153  O         10.9340    8.8930   19.4050 O.2   451  TRP451     -0.2867
    154  CB         9.5260    9.4490   21.9540 C.3   451  TRP451      0.0550
    155  CG         8.0680    9.5720   21.5070 C.ar  451  TRP451      0.0003
    156  CD1        7.1110   10.4100   22.0300 C.ar  451  TRP451      0.0946
    157  CD2        7.4230    8.8380   20.4530 C.ar  451  TRP451      0.0152
    158  NE1        5.9190   10.2250   21.3880 N.ar  451  TRP451     -0.2442
    159  CE2        6.0740    9.2660   20.4150 C.ar  451  TRP451      0.0810
    160  CE3        7.8550    7.8460   19.5460 C.ar  451  TRP451      0.0012
    161  CZ2        5.1520    8.7640   19.4990 C.ar  451  TRP451      0.0191
    162  CZ3        6.9330    7.3250   18.6440 C.ar  451  TRP451      0.0001
    163  CH2        5.5860    7.8050   18.6160 C.ar  451  TRP451      0.0015
@<TRIPOS>BOND
     1    14    15   ar
     2    14    12   ar
     3    15    13   ar
     4   144   145    2
     5   144   143    1
     6   142   143    1
     7   143   146    1
     8    12    10   ar
     9   115   116    1
    10    13    11   ar
    11   116   117    1
    12   116   119    1
    13     1     2    1
    14    10    11   ar
    15    10     9    1
    16   148   147    2
    17   146   147    1
    18   117   118    2
    19   119   121    1
    20   119   120    1
    21   147   149   am
    22   109   110    2
    23   109   108    1
    24     2     3    1
    25     9     6    1
    26     5     3   am
    27     5     6    1
    28    94    95    1
    29    94    93    1
    30    94    97    1
    31    95    96    2
    32   107   108    1
    33   108   111    1
    34     3     4    2
    35     6     7    1
    36     8     7    2
    37    19    18    2
    38    99    98   ar
    39    99   101   ar
    40    97    98    1
    41   122   123    1
    42    98   100   ar
    43   101   102   ar
    44     7    16   am
    45   100   102   ar
    46   100   103   ar
    47   102   104   ar
    48   113   112    2
    49   103   105   ar
    50   104   106   ar
    51   111   112    1
    52    28    29    1
    53    18    17    1
    54   105   106   ar
    55   141   140    1
    56   123   126    1
    57   123   124    1
    58   126   127    1
    59    16    17    1
    60   112   114   am
    61   139   140   ar
    62   139   137   ar
    63   129   127   ar
    64   127   128   ar
    65    17    20    1
    66   140   138   ar
    67    91    90    1
    68    75    74    2
    69    29    30    1
    70    29    32    1
    71    30    31    2
    72   124   130   am
    73   124   125    2
    74   137   135   ar
    75   130   131    1
    76   138   136   ar
    77    74    73    1
    78    73    72    1
    79    73    76    1
    80    32    33    1
    81    20    21    1
    82    33    34    1
    83    92    90    1
    84    90    87    1
    85    78    76    1
    86    76    77    1
    87    36    35    1
    88   135   136   ar
    89   135   134    1
    90    87    88    1
    91    87    86    1
    92    82    81    2
    93    88    89    2
    94   132   131    1
    95   132   133    2
    96   131   134    1
    97    21    22   ar
    98    21    23   ar
    99    57    58    1
   100    57    54    1
   101    57    59    1
   102    53    54    1
   103    34    35    1
   104    22    24   ar
   105    81    86   am
   106    81    80    1
   107    54    55    1
   108    23    25   ar
   109    44    42   ar
   110    24    26   ar
   111    43    42   ar
   112    42    41    1
   113    80    79    1
   114    80    83    1
   115    25    26   ar
   116    84    83    1
   117    63    62    2
   118    26    27    1
   119    55    56    2
   120    67    69   ar
   121    67    65   ar
   122    83    85    1
   123    41    38    1
   124   163   162   ar
   125   163   161   ar
   126    64    65    1
   127    64    61    1
   128   162   160   ar
   129    69    70   ar
   130    65    66   ar
   131    62    61    1
   132    51    50   ar
   133   153   152    2
   134    61    60    1
   135   161   159   ar
   136    70    71    1
   137    70    68   ar
   138   160   157   ar
   139    37    38    1
   140   152   151    1
   141    66    68   ar
   142    38    39    1
   143    50    52   ar
   144    50    49    1
   145    40    39    2
   146   159   157   ar
   147   159   158   ar
   148   157   155   ar
   149    39    45   am
   150    49    46    1
   151   151   150    1
   152   151   154    1
   153    45    46    1
   154   158   156   ar
   155   155   154    1
   156   155   156   ar
   157    46    47    1
   158    47    48    2
