@<TRIPOS>MOLECULE
tmp/2wbaB01.pdb
 121 117 0 0 0
SMALL
GASTEIGER

@<TRIPOS>ATOM
      1  N         20.1660   29.7880   18.5160 N.3   164  GLN164     -0.1245
      2  CA        21.2790   30.5700   19.0350 C.3   164  GLN164      0.1566
      3  C         22.4200   30.6080   18.0180 C.2   164  GLN164      0.2260
      4  O         22.7820   29.5820   17.4410 O.2   164  GLN164     -0.2867
      5  CB        21.7560   29.9480   20.3480 C.3   164  GLN164      0.0367
      6  CG        22.7830   30.7530   21.1120 C.3   164  GLN164      0.0905
      7  CD        23.2270   30.0510   22.3790 C.2   164  GLN164      0.2608
      8  OE1       22.5620   29.1310   22.8590 O.2   164  GLN164     -0.2717
      9  NE2       24.3650   30.4730   22.9220 N.am  164  GLN164     -0.0878
     10  N         26.4470   32.0110   17.6680 N.3   166  PRO166     -0.2116
     11  CA        27.5810   32.5720   18.4040 C.3   166  PRO166      0.1372
     12  C         28.0590   33.8860   17.7970 C.2   166  PRO166      0.2244
     13  O         27.9290   34.1010   16.5850 O.2   166  PRO166     -0.2868
     14  CB        28.6650   31.5030   18.2520 C.3   166  PRO166      0.0268
     15  CG        28.3160   30.7980   16.9850 C.3   166  PRO166      0.0207
     16  CD        26.8180   30.7970   16.9220 C.3   166  PRO166      0.0892
     17  N         27.5430   22.3870   13.6400 N.3   193  VAL193     -0.1231
     18  CA        28.2290   22.8260   14.8510 C.3   193  VAL193      0.1692
     19  C         27.3480   22.5290   16.0640 C.2   193  VAL193      0.2593
     20  O         26.2500   23.0740   16.1910 O.2   193  VAL193     -0.2718
     21  CB        28.5340   24.3420   14.7940 C.3   193  VAL193      0.0266
     22  CG1       29.3710   24.7760   16.0000 C.3   193  VAL193      0.0020
     23  CG2       29.2320   24.7050   13.4800 C.3   193  VAL193      0.0020
     24  N         27.8280   21.6510   16.9390 N.am  194  GLY194     -0.1942
     25  CA        27.0770   21.2480   18.1250 C.3   194  GLY194      0.2014
     26  C         26.9980   19.7400   18.2730 C.2   194  GLY194      0.2639
     27  O         27.0810   19.0060   17.2870 O.2   194  GLY194     -0.2714
     28  N         26.8560   19.2740   19.5100 N.am  195  GLY195     -0.1939
     29  CA        26.7490   17.8460   19.7840 C.3   195  GLY195      0.2014
     30  C         25.3810   17.3990   20.2680 C.2   195  GLY195      0.2639
     31  O         25.2300   16.2750   20.7420 O.2   195  GLY195     -0.2714
     32  N         24.3860   18.2730   20.1450 N.am  196  GLY196     -0.1939
     33  CA        23.0250   17.9680   20.5790 C.3   196  GLY196      0.2014
     34  C         22.1910   17.3120   19.4930 C.2   196  GLY196      0.2638
     35  O         22.7090   16.9430   18.4360 O.2   196  GLY196     -0.2714
     36  N         20.8910   17.1790   19.7380 N.am  197  PHE197     -0.1973
     37  CA        20.0590   16.3520   18.8700 C.3   197  PHE197      0.1639
     38  C         19.8760   16.9150   17.4600 C.2   197  PHE197      0.2290
     39  O         19.8960   16.1620   16.4890 O.2   197  PHE197     -0.2864
     40  CB        18.7230   15.9810   19.5340 C.3   197  PHE197      0.0560
     41  CG        17.6860   17.0700   19.4940 C.ar  197  PHE197     -0.0200
     42  CD1       17.6610   18.0600   20.4680 C.ar  197  PHE197     -0.0042
     43  CD2       16.7120   17.0790   18.5040 C.ar  197  PHE197     -0.0042
     44  CE1       16.6990   19.0630   20.4380 C.ar  197  PHE197     -0.0003
     45  CE2       15.7420   18.0750   18.4630 C.ar  197  PHE197     -0.0003
     46  CZ        15.7360   19.0680   19.4310 C.ar  197  PHE197     -0.0000
     47  N         32.0930   19.3590   17.8910 N.3   220  TYR220     -0.1227
     48  CA        31.5970   19.5520   19.2460 C.3   220  TYR220      0.1736
     49  C         32.7320   20.0410   20.1410 C.2   220  TYR220      0.2595
     50  O         33.8540   19.5280   20.0760 O.2   220  TYR220     -0.2718
     51  CB        30.9700   18.2610   19.7860 C.3   220  TYR220      0.0548
     52  CG        30.5510   18.3520   21.2380 C.ar  220  TYR220     -0.0200
     53  CD1       29.7060   19.3670   21.6750 C.ar  220  TYR220     -0.0009
     54  CD2       31.0130   17.4340   22.1730 C.ar  220  TYR220     -0.0009
     55  CE1       29.3320   19.4680   23.0030 C.ar  220  TYR220      0.0417
     56  CE2       30.6370   17.5230   23.5080 C.ar  220  TYR220      0.0417
     57  CZ        29.7980   18.5420   23.9140 C.ar  220  TYR220      0.1957
     58  OH        29.4290   18.6470   25.2360 O.3   220  TYR220     -0.2866
     59  N         32.4260   21.0410   20.9610 N.am  221  ARG221     -0.1966
     60  CA        33.4290   21.7730   21.7280 C.3   221  ARG221      0.1729
     61  C         34.0630   20.9390   22.8350 C.2   221  ARG221      0.2616
     62  O         35.1690   21.2400   23.2800 O.2   221  ARG221     -0.2715
     63  CB        32.8290   23.0550   22.3200 C.3   221  ARG221      0.0348
     64  CG        31.6260   22.8320   23.2300 C.3   221  ARG221      0.0492
     65  CD        31.1390   24.1340   23.8500 C.3   221  ARG221      0.2205
     66  NE        30.0060   23.9060   24.7440 N.pl3 221  ARG221     -0.0865
     67  CZ        29.4020   24.8500   25.4620 C.cat 221  ARG221      0.5346
     68  NH1       29.8090   26.1120   25.4000 N.pl3 221  ARG221      0.1354
     69  NH2       28.3800   24.5320   26.2450 N.pl3 221  ARG221      0.1354
     70  N         33.3480   19.9140   23.2900 N.am  222  ASN222     -0.1972
     71  CA        33.8380   19.0480   24.3570 C.3   222  ASN222      0.1688
     72  C         34.1930   17.6510   23.8390 C.2   222  ASN222      0.2292
     73  O         34.3040   17.4570   22.6270 O.2   222  ASN222     -0.2864
     74  CB        32.8580   19.0320   25.5380 C.3   222  ASN222      0.1181
     75  CG        32.8140   20.3670   26.2770 C.2   222  ASN222      0.2629
     76  OD1       31.7430   20.9350   26.5120 O.2   222  ASN222     -0.2716
     77  ND2       33.9860   20.8810   26.6380 N.am  222  ASN222     -0.0877
     78  N         26.2450   14.5920   22.6500 N.3   226  LEU226     -0.1231
     79  CA        24.9650   14.1860   23.2340 C.3   226  LEU226      0.1693
     80  C         24.9760   14.1250   24.7640 C.2   226  LEU226      0.2591
     81  O         24.4600   13.1870   25.3750 O.2   226  LEU226     -0.2718
     82  CB        24.4570   12.8830   22.6000 C.3   226  LEU226      0.0284
     83  CG        23.9410   12.9960   21.1610 C.3   226  LEU226      0.0019
     84  CD1       23.8140   11.6270   20.5060 C.3   226  LEU226      0.0001
     85  CD2       22.6110   13.7400   21.1070 C.3   226  LEU226      0.0001
     86  N         25.5530   15.1550   25.3740 N.am  227  ARG227     -0.1980
     87  CA        25.5090   15.3270   26.8180 C.3   227  ARG227      0.1597
     88  C         24.0580   15.3340   27.2880 C.2   227  ARG227      0.2287
     89  O         23.2020   15.9500   26.6510 O.2   227  ARG227     -0.2864
     90  CB        26.1980   16.6350   27.2070 C.3   227  ARG227      0.0334
     91  CG        26.5450   16.7550   28.6850 C.3   227  ARG227      0.0492
     92  CD        27.0010   18.1730   29.0250 C.3   227  ARG227      0.2205
     93  NE        26.0220   19.1660   28.5940 N.pl3 227  ARG227     -0.0865
     94  CZ        24.9910   19.5810   29.3260 C.cat 227  ARG227      0.5346
     95  NH1       24.7980   19.1040   30.5510 N.pl3 227  ARG227      0.1354
     96  NH2       24.1520   20.4840   28.8330 N.pl3 227  ARG227      0.1354
     97  N         35.9240   23.9820   18.0900 N.3   253  ASN253     -0.1240
     98  CA        34.8910   25.0050   17.9860 C.3   253  ASN253      0.1653
     99  C         35.3050   26.1090   17.0160 C.2   253  ASN253      0.2266
    100  O         36.4350   26.5960   17.0810 O.2   253  ASN253     -0.2867
    101  CB        34.5870   25.6020   19.3620 C.3   253  ASN253      0.1155
    102  CG        33.2580   26.3350   19.4020 C.2   253  ASN253      0.2627
    103  OD1       32.2360   25.8160   18.9550 O.2   253  ASN253     -0.2716
    104  ND2       33.2640   27.5440   19.9520 N.am  253  ASN253     -0.0877
    105  N         24.0810   24.6580   15.3460 N.3   283  ALA283     -0.1231
    106  CA        23.0730   23.9980   16.1590 C.3   283  ALA283      0.1694
    107  C         23.5810   23.9340   17.5960 C.2   283  ALA283      0.2592
    108  O         23.7740   22.8520   18.1540 O.2   283  ALA283     -0.2718
    109  CB        22.7710   22.6080   15.6150 C.3   283  ALA283      0.0304
    110  N         23.8100   25.1080   18.1780 N.am  284  ILE284     -0.1966
    111  CA        24.4140   25.2020   19.5040 C.3   284  ILE284      0.1727
    112  C         23.3990   25.5110   20.6000 C.2   284  ILE284      0.2616
    113  O         23.7590   25.6400   21.7680 O.2   284  ILE284     -0.2715
    114  CB        25.5670   26.2210   19.5480 C.3   284  ILE284      0.0290
    115  CG1       25.0660   27.6190   19.1660 C.3   284  ILE284      0.0022
    116  CG2       26.7020   25.7590   18.6360 C.3   284  ILE284      0.0023
    117  CD1       25.8530   28.7470   19.8090 C.3   284  ILE284      0.0001
    118  N         22.1300   25.6090   20.2270 N.am  285  GLY285     -0.1955
    119  CA        21.0840   25.8110   21.2180 C.3   285  GLY285      0.1869
    120  C         19.8810   26.5490   20.6780 C.2   285  GLY285      0.2309
    121  O         19.8820   27.0260   19.5430 O.2   285  GLY285     -0.2863
@<TRIPOS>BOND
     1    23    21    1
     2    17    18    1
     3    21    18    1
     4    21    22    1
     5    18    19    1
     6   105   106    1
     7   109   106    1
     8    19    20    2
     9    19    24   am
    10   106   107    1
    11    39    38    2
    12    13    12    2
    13    16    15    1
    14    16    10    1
    15    24    25    1
    16    15    14    1
    17    99   100    2
    18    99    98    1
    19    27    26    2
    20     4     3    2
    21    38    37    1
    22   107   108    2
    23   107   110   am
    24    10    11    1
    25    12    11    1
    26    47    48    1
    27    98    97    1
    28    98   101    1
    29     3     2    1
    30    25    26    1
    31   110   111    1
    32    14    11    1
    33    26    28   am
    34    35    34    2
    35    45    43   ar
    36    45    46   ar
    37    43    41   ar
    38     1     2    1
    39   116   114    1
    40    37    40    1
    41    37    36    1
    42   103   102    2
    43     2     5    1
    44   115   114    1
    45   115   117    1
    46    48    51    1
    47    48    49    1
    48   101   102    1
    49   102   104   am
    50    46    44   ar
    51    34    36   am
    52    34    33    1
    53    41    40    1
    54    41    42   ar
    55   111   114    1
    56   111   112    1
    57    28    29    1
    58   121   120    2
    59    29    30    1
    60    51    52    1
    61    50    49    2
    62    49    59   am
    63    32    30   am
    64    32    33    1
    65   118   112   am
    66   118   119    1
    67    30    31    2
    68     5     6    1
    69    44    42   ar
    70    84    83    1
    71   112   113    2
    72   120   119    1
    73    59    60    1
    74    85    83    1
    75     6     7    1
    76    83    82    1
    77    52    53   ar
    78    52    54   ar
    79    53    55   ar
    80    60    63    1
    81    60    61    1
    82    54    56   ar
    83    63    64    1
    84     7     8    2
    85     7     9   am
    86    82    79    1
    87    73    72    2
    88    78    79    1
    89    61    62    2
    90    61    70   am
    91    55    57   ar
    92    64    65    1
    93    79    80    1
    94    70    71    1
    95    56    57   ar
    96    72    71    1
    97    65    66    1
    98    57    58    1
    99    71    74    1
   100    66    67    2
   101    80    86   am
   102    80    81    2
   103    86    87    1
   104    68    67    1
   105    67    69    1
   106    74    75    1
   107    75    76    2
   108    75    77   am
   109    89    88    2
   110    87    90    1
   111    87    88    1
   112    90    91    1
   113    93    92    1
   114    93    94    2
   115    91    92    1
   116    96    94    1
   117    94    95    1
