@<TRIPOS>MOLECULE
tmp/2wbaA01.pdb
 140 136 0 0 0
SMALL
GASTEIGER

@<TRIPOS>ATOM
      1  N          0.1500  -29.8560    9.8440 N.3   164  GLN164     -0.1245
      2  CA        -1.0090  -30.6500    9.4590 C.3   164  GLN164      0.1566
      3  C         -1.1720  -30.6100    7.9380 C.2   164  GLN164      0.2260
      4  O         -1.0600  -29.5470    7.3230 O.2   164  GLN164     -0.2867
      5  CB        -2.2610  -30.0840   10.1340 C.3   164  GLN164      0.0367
      6  CG        -3.5260  -30.9050    9.9570 C.3   164  GLN164      0.0905
      7  CD        -4.7560  -30.2380   10.5560 C.2   164  GLN164      0.2608
      8  OE1       -4.6520  -29.2700   11.3100 O.2   164  GLN164     -0.2717
      9  NE2       -5.9310  -30.7570   10.2190 N.am  164  GLN164     -0.0878
     10  N         -3.9270  -31.8720    4.8200 N.3   166  PRO166     -0.2116
     11  CA        -5.2540  -32.4400    4.5860 C.3   166  PRO166      0.1372
     12  C         -5.2100  -33.6960    3.7190 C.2   166  PRO166      0.2244
     13  O         -4.3650  -33.8100    2.8280 O.2   166  PRO166     -0.2868
     14  CB        -5.9980  -31.3160    3.8600 C.3   166  PRO166      0.0268
     15  CG        -4.9280  -30.5400    3.1780 C.3   166  PRO166      0.0207
     16  CD        -3.7170  -30.6200    4.0710 C.3   166  PRO166      0.0892
     17  N         -2.2560  -22.0570    1.5180 N.3   193  VAL193     -0.1231
     18  CA        -3.5530  -22.5360    1.9780 C.3   193  VAL193      0.1692
     19  C         -3.7110  -22.3070    3.4740 C.2   193  VAL193      0.2593
     20  O         -2.9840  -22.8940    4.2780 O.2   193  VAL193     -0.2718
     21  CB        -3.7370  -24.0390    1.6730 C.3   193  VAL193      0.0266
     22  CG1       -5.1120  -24.5140    2.1270 C.3   193  VAL193      0.0020
     23  CG2       -3.5280  -24.3020    0.1890 C.3   193  VAL193      0.0020
     24  N         -4.6710  -21.4640    3.8400 N.am  194  GLY194     -0.1942
     25  CA        -4.9380  -21.1570    5.2410 C.3   194  GLY194      0.2014
     26  C         -5.0290  -19.6620    5.4660 C.2   194  GLY194      0.2639
     27  O         -4.5230  -18.8740    4.6650 O.2   194  GLY194     -0.2714
     28  N         -5.6880  -19.2680    6.5520 N.am  195  GLY195     -0.1939
     29  CA        -5.8590  -17.8530    6.8610 C.3   195  GLY195      0.2014
     30  C         -5.1540  -17.4310    8.1360 C.2   195  GLY195      0.2639
     31  O         -5.3670  -16.3250    8.6270 O.2   195  GLY195     -0.2714
     32  N         -4.3260  -18.3190    8.6760 N.am  196  GLY196     -0.1939
     33  CA        -3.5780  -18.0450    9.8990 C.3   196  GLY196      0.2014
     34  C         -2.2970  -17.2940    9.6020 C.2   196  GLY196      0.2639
     35  O         -2.0540  -16.9090    8.4570 O.2   196  GLY196     -0.2714
     36  N         -1.4660  -17.1130   10.6270 N.am  197  PHE197     -0.1959
     37  CA        -0.2810  -16.2640   10.5180 C.3   197  PHE197      0.1771
     38  C          0.8130  -16.8230    9.6060 C.2   197  PHE197      0.2619
     39  O          1.4880  -16.0640    8.9130 O.2   197  PHE197     -0.2715
     40  CB         0.2710  -15.8870   11.9050 C.3   197  PHE197      0.0574
     41  CG         1.0660  -16.9770   12.5780 C.ar  197  PHE197     -0.0200
     42  CD1        0.4350  -17.9490   13.3410 C.ar  197  PHE197     -0.0042
     43  CD2        2.4510  -17.0070   12.4790 C.ar  197  PHE197     -0.0042
     44  CE1        1.1690  -18.9520   13.9700 C.ar  197  PHE197     -0.0003
     45  CE2        3.1950  -18.0000   13.1100 C.ar  197  PHE197     -0.0003
     46  CZ         2.5520  -18.9760   13.8540 C.ar  197  PHE197     -0.0000
     47  N          0.9950  -18.1400    9.5950 N.am  198  ILE198     -0.1977
     48  CA         2.0380  -18.7430    8.7610 C.3   198  ILE198      0.1596
     49  C          1.7590  -18.5090    7.2760 C.2   198  ILE198      0.2287
     50  O          2.6550  -18.1230    6.5210 O.2   198  ILE198     -0.2864
     51  CB         2.2460  -20.2450    9.0750 C.3   198  ILE198      0.0276
     52  CG1        2.8710  -20.4070   10.4640 C.3   198  ILE198      0.0022
     53  CG2        3.1580  -20.8960    8.0400 C.3   198  ILE198      0.0022
     54  CD1        2.6330  -21.7680   11.1100 C.3   198  ILE198      0.0001
     55  N         -8.5760  -19.2910    1.9120 N.3   220  TYR220     -0.1227
     56  CA        -9.0450  -19.5350    3.2660 C.3   220  TYR220      0.1736
     57  C        -10.4940  -20.0090    3.2240 C.2   220  TYR220      0.2595
     58  O        -11.3210  -19.4250    2.5220 O.2   220  TYR220     -0.2718
     59  CB        -8.9080  -18.2610    4.1060 C.3   220  TYR220      0.0548
     60  CG        -9.5480  -18.3430    5.4710 C.ar  220  TYR220     -0.0200
     61  CD1       -9.1470  -19.3040    6.3920 C.ar  220  TYR220     -0.0009
     62  CD2      -10.5500  -17.4550    5.8400 C.ar  220  TYR220     -0.0009
     63  CE1       -9.7350  -19.3870    7.6430 C.ar  220  TYR220      0.0417
     64  CE2      -11.1390  -17.5230    7.0950 C.ar  220  TYR220      0.0417
     65  CZ       -10.7270  -18.4920    7.9860 C.ar  220  TYR220      0.1957
     66  OH       -11.3060  -18.5680    9.2280 O.3   220  TYR220     -0.2866
     67  N        -10.7850  -21.0670    3.9780 N.am  221  ARG221     -0.1966
     68  CA       -12.0510  -21.7880    3.8650 C.3   221  ARG221      0.1729
     69  C        -13.2500  -21.0240    4.4120 C.2   221  ARG221      0.2616
     70  O        -14.3910  -21.3790    4.1140 O.2   221  ARG221     -0.2715
     71  CB       -11.9620  -23.1530    4.5500 C.3   221  ARG221      0.0348
     72  CG       -11.7860  -23.0730    6.0570 C.3   221  ARG221      0.0492
     73  CD       -11.8540  -24.4410    6.7100 C.3   221  ARG221      0.2205
     74  NE       -11.5070  -24.3530    8.1270 N.pl3 221  ARG221     -0.0865
     75  CZ       -11.5400  -25.3700    8.9820 C.cat 221  ARG221      0.5346
     76  NH1      -11.9100  -26.5800    8.5780 N.pl3 221  ARG221      0.1354
     77  NH2      -11.1970  -25.1730   10.2500 N.pl3 221  ARG221      0.1354
     78  N        -12.9970  -20.0020    5.2270 N.am  222  ASN222     -0.1972
     79  CA       -14.0720  -19.1760    5.7710 C.3   222  ASN222      0.1688
     80  C        -14.0400  -17.7350    5.2620 C.2   222  ASN222      0.2292
     81  O        -13.3230  -17.4200    4.3080 O.2   222  ASN222     -0.2864
     82  CB       -14.1100  -19.2500    7.3030 C.3   222  ASN222      0.1181
     83  CG       -14.3960  -20.6590    7.8110 C.2   222  ASN222      0.2629
     84  OD1      -13.7350  -21.1500    8.7300 O.2   222  ASN222     -0.2716
     85  ND2      -15.3740  -21.3240    7.1990 N.am  222  ASN222     -0.0877
     86  N         -7.4250  -14.6190    9.4520 N.3   226  LEU226     -0.1231
     87  CA        -6.8410  -14.2570   10.7460 C.3   226  LEU226      0.1693
     88  C         -7.8430  -14.2100   11.8940 C.2   226  LEU226      0.2591
     89  O         -7.8680  -13.2580   12.6790 O.2   226  LEU226     -0.2718
     90  CB        -6.0410  -12.9510   10.6490 C.3   226  LEU226      0.0284
     91  CG        -4.7370  -13.0130    9.8460 C.3   226  LEU226      0.0019
     92  CD1       -4.2950  -11.6180    9.4210 C.3   226  LEU226      0.0001
     93  CD2       -3.6300  -13.7280   10.6230 C.3   226  LEU226      0.0001
     94  N         -8.6450  -15.2650   11.9950 N.am  227  ARG227     -0.1980
     95  CA        -9.5590  -15.4620   13.1160 C.3   227  ARG227      0.1597
     96  C         -8.8090  -15.3720   14.4430 C.2   227  ARG227      0.2287
     97  O         -7.6740  -15.8420   14.5600 O.2   227  ARG227     -0.2864
     98  CB       -10.2510  -16.8200   12.9890 C.3   227  ARG227      0.0334
     99  CG       -11.6310  -16.8710   13.6360 C.3   227  ARG227      0.0492
    100  CD       -12.4060  -18.1180   13.2220 C.3   227  ARG227      0.2205
    101  NE       -11.9250  -19.3290   13.8850 N.pl3 227  ARG227     -0.0865
    102  CZ       -12.3870  -19.7880   15.0470 C.cat 227  ARG227      0.5346
    103  NH1      -13.3500  -19.1400   15.6940 N.pl3 227  ARG227      0.1354
    104  NH2      -11.8850  -20.9010   15.5670 N.pl3 227  ARG227      0.1354
    105  N        -11.4960  -23.6340   -0.5530 N.3   253  ASN253     -0.1240
    106  CA       -10.6920  -24.7110    0.0110 C.3   253  ASN253      0.1653
    107  C        -10.4080  -25.7640   -1.0530 C.2   253  ASN253      0.2266
    108  O        -11.3320  -26.2240   -1.7290 O.2   253  ASN253     -0.2867
    109  CB       -11.4080  -25.3450    1.2090 C.3   253  ASN253      0.1155
    110  CG       -10.5140  -26.2850    2.0010 C.2   253  ASN253      0.2627
    111  OD1       -9.3990  -25.9320    2.3890 O.2   253  ASN253     -0.2716
    112  ND2      -11.0110  -27.4850    2.2620 N.am  253  ASN253     -0.0877
    113  N         -0.7790  -24.4300    5.0470 N.3   283  ALA283     -0.1231
    114  CA        -0.5940  -23.8530    6.3730 C.3   283  ALA283      0.1694
    115  C         -1.9260  -23.8610    7.1150 C.2   283  ALA283      0.2592
    116  O         -2.4380  -22.8150    7.5170 O.2   283  ALA283     -0.2718
    117  CB        -0.0320  -22.4420    6.2660 C.3   283  ALA283      0.0304
    118  N         -2.4940  -25.0520    7.2680 N.am  284  ILE284     -0.1966
    119  CA        -3.8330  -25.1990    7.8310 C.3   284  ILE284      0.1727
    120  C         -3.8120  -25.5970    9.3030 C.2   284  ILE284      0.2617
    121  O         -4.8590  -25.7340    9.9300 O.2   284  ILE284     -0.2715
    122  CB        -4.6900  -26.2030    7.0350 C.3   284  ILE284      0.0290
    123  CG1       -4.0770  -27.6080    7.0820 C.3   284  ILE284      0.0022
    124  CG2       -4.8730  -25.7290    5.6030 C.3   284  ILE284      0.0023
    125  CD1       -5.0650  -28.7120    6.7430 C.3   284  ILE284      0.0001
    126  N         -2.6240  -25.7720    9.8650 N.am  285  GLY285     -0.1940
    127  CA        -2.5250  -26.0610   11.2860 C.3   285  GLY285      0.2014
    128  C         -1.2550  -26.7820   11.6760 C.2   285  GLY285      0.2638
    129  O         -0.5200  -27.3000   10.8310 O.2   285  GLY285     -0.2714
    130  N         -0.9930  -26.7890   12.9740 N.am  286  ARG286     -0.1977
    131  CA         0.1100  -27.5520   13.5250 C.3   286  ARG286      0.1597
    132  C         -0.4140  -28.4340   14.6470 C.2   286  ARG286      0.2287
    133  O         -1.1980  -27.9880   15.4880 O.2   286  ARG286     -0.2864
    134  CB         1.2210  -26.6160   14.0030 C.3   286  ARG286      0.0334
    135  CG         1.9880  -25.9870   12.8430 C.3   286  ARG286      0.0492
    136  CD         3.0780  -25.0390   13.3010 C.3   286  ARG286      0.2205
    137  NE         4.1090  -25.7010   14.0990 N.pl3 286  ARG286     -0.0865
    138  CZ         5.1300  -26.4000   13.6080 C.cat 286  ARG286      0.5346
    139  NH1        5.2750  -26.5740   12.2970 N.pl3 286  ARG286      0.1354
    140  NH2        6.0100  -26.9300   14.4450 N.pl3 286  ARG286      0.1354
@<TRIPOS>BOND
     1   108   107    2
     2   107   106    1
     3   105   106    1
     4   106   109    1
     5    23    21    1
     6   109   110    1
     7    17    18    1
     8    21    18    1
     9    21    22    1
    10    55    56    1
    11    18    19    1
    12   110   112   am
    13   110   111    2
    14    58    57    2
    15    13    12    2
    16    15    14    1
    17    15    16    1
    18    57    56    1
    19    57    67   am
    20    56    59    1
    21    19    24   am
    22    19    20    2
    23    12    11    1
    24    24    25    1
    25    14    11    1
    26    68    67    1
    27    68    69    1
    28    68    71    1
    29    16    10    1
    30    59    60    1
    31    70    69    2
    32    81    80    2
    33    69    78   am
    34    71    72    1
    35    11    10    1
    36    27    26    2
    37   113   114    1
    38    78    79    1
    39    25    26    1
    40    80    79    1
    41    26    28   am
    42    60    62   ar
    43    60    61   ar
    44   124   122    1
    45    79    82    1
    46    62    64   ar
    47    72    73    1
    48   117   114    1
    49   114   115    1
    50    61    63   ar
    51    50    49    2
    52    28    29    1
    53    73    74    1
    54   125   123    1
    55    29    30    1
    56   122   123    1
    57   122   119    1
    58    64    65   ar
    59   115   118   am
    60   115   116    2
    61    85    83   am
    62   118   119    1
    63    49    48    1
    64    82    83    1
    65     4     3    2
    66    63    65   ar
    67    83    84    2
    68   119   120    1
    69     3     2    1
    70    65    66    1
    71    53    51    1
    72    74    75    2
    73    30    31    2
    74    30    32   am
    75    35    34    2
    76    76    75    1
    77    32    33    1
    78    48    51    1
    79    48    47    1
    80    39    38    2
    81    75    77    1
    82    51    52    1
    83   120   126   am
    84   120   121    2
    85    92    91    1
    86    86    87    1
    87     2     1    1
    88     2     5    1
    89    47    38   am
    90    34    33    1
    91    34    36   am
    92    38    37    1
    93    91    93    1
    94    91    90    1
    95   126   127    1
    96     6     5    1
    97     6     7    1
    98     9     7   am
    99    52    54    1
   100    37    36    1
   101    37    40    1
   102     7     8    2
   103    90    87    1
   104    87    88    1
   105   129   128    2
   106   127   128    1
   107   128   130   am
   108    88    94   am
   109    88    89    2
   110    40    41    1
   111    94    95    1
   112   139   138    1
   113    43    41   ar
   114    43    45   ar
   115    41    42   ar
   116   135   136    1
   117   135   134    1
   118   130   131    1
   119    98    95    1
   120    98    99    1
   121    45    46   ar
   122    95    96    1
   123   100    99    1
   124   100   101    1
   125   136   137    1
   126    42    44   ar
   127   131   134    1
   128   131   132    1
   129   138   137    2
   130   138   140    1
   131    46    44   ar
   132   101   102    2
   133    96    97    2
   134   132   133    2
   135   102   104    1
   136   102   103    1
