@<TRIPOS>MOLECULE
tmp/2wbeC00.pdb
 146 141 0 0 0
SMALL
GASTEIGER

@<TRIPOS>ATOM
      1  N         -1.4970   41.5530  -10.2940 N.3    13  ARG13      -0.1231
      2  CA        -0.2750   42.1420  -10.7530 C.3    13  ARG13       0.1694
      3  C          0.3410   41.2040  -11.7420 C.2    13  ARG13       0.2592
      4  O          0.5230   40.0190  -11.4670 O.2    13  ARG13      -0.2718
      5  CB         0.7490   42.3870   -9.6330 C.3    13  ARG13       0.0321
      6  CG         2.0300   43.0640  -10.1250 C.3    13  ARG13       0.0489
      7  CD         3.0560   43.3350   -9.0250 C.3    13  ARG13       0.2205
      8  NE         4.1970   44.0710   -9.6440 N.pl3  13  ARG13      -0.0865
      9  CZ         5.2140   44.5330   -8.8610 C.cat  13  ARG13       0.5346
     10  NH1        5.2010   44.2840   -7.5190 N.pl3  13  ARG13       0.1354
     11  NH2        6.2330   45.2520   -9.4130 N.pl3  13  ARG13       0.1354
     12  N          0.6840   41.7280  -12.9350 N.am   14  VAL14      -0.1966
     13  CA         1.2870   40.9090  -13.9420 C.3    14  VAL14       0.1727
     14  C          2.7410   41.2570  -13.9480 C.2    14  VAL14       0.2616
     15  O          3.1170   42.4270  -13.9350 O.2    14  VAL14      -0.2715
     16  CB         0.7500   41.1800  -15.3180 C.3    14  VAL14       0.0290
     17  CG1        1.4600   40.2580  -16.3210 C.3    14  VAL14       0.0023
     18  CG2       -0.7780   41.0150  -15.2870 C.3    14  VAL14       0.0023
     19  N          3.6100   40.2320  -13.9290 N.am   15  ARG15      -0.1964
     20  CA         5.0180   40.4820  -13.9420 C.3    15  ARG15       0.1714
     21  C          5.4480   40.5810  -15.3700 C.2    15  ARG15       0.2458
     22  O          4.7480   40.1430  -16.2780 O.2    15  ARG15      -0.2730
     23  CB         5.8340   39.3710  -13.2630 C.3    15  ARG15       0.0347
     24  CG         5.6260   37.9920  -13.8920 C.3    15  ARG15       0.0492
     25  CD         6.2210   36.8570  -13.0560 C.3    15  ARG15       0.2205
     26  NE         5.9090   35.5710  -13.7430 N.pl3  15  ARG15      -0.0865
     27  CZ         6.7620   35.0760  -14.6850 C.cat  15  ARG15       0.5346
     28  NH1        7.8940   35.7670  -15.0000 N.pl3  15  ARG15       0.1354
     29  NH2        6.4970   33.8890  -15.3040 N.pl3  15  ARG15       0.1354
     30  N          6.5740   41.1840  -15.5940 N.am   16  PRO16      -0.2727
     31  CA         7.0900   41.2930  -16.9320 C.3    16  PRO16       0.1402
     32  C          7.6050   39.9550  -17.3500 C.2    16  PRO16       0.2269
     33  O          7.8210   39.1140  -16.4790 O.2    16  PRO16      -0.2865
     34  CB         8.1370   42.4130  -16.8920 C.3    16  PRO16       0.0296
     35  CG         8.3490   42.7060  -15.3920 C.3    16  PRO16       0.0237
     36  CD         7.0300   42.2670  -14.7440 C.3    16  PRO16       0.0939
     37  N         10.1010   37.1830  -18.2000 N.3    18  ASN18      -0.1240
     38  CA        11.4720   37.0710  -17.8370 C.3    18  ASN18       0.1653
     39  C         12.1320   36.6400  -19.0880 C.2    18  ASN18       0.2266
     40  O         11.4830   36.3230  -20.0830 O.2    18  ASN18      -0.2867
     41  CB        11.8070   35.9870  -16.8020 C.3    18  ASN18       0.1155
     42  CG        10.7630   36.0450  -15.7100 C.2    18  ASN18       0.2627
     43  OD1       10.1510   37.0870  -15.4880 O.2    18  ASN18      -0.2716
     44  ND2       10.5400   34.8930  -15.0210 N.am   18  ASN18      -0.0877
     45  N          3.0310   45.1200  -15.9520 N.3    60  PRO60      -0.2116
     46  CA         4.4110   44.7920  -15.7170 C.3    60  PRO60       0.1372
     47  C          5.2490   46.0090  -15.4330 C.2    60  PRO60       0.2244
     48  O          6.2770   45.8800  -14.7680 O.2    60  PRO60      -0.2868
     49  CB         4.8670   44.0720  -16.9850 C.3    60  PRO60       0.0268
     50  CG         3.9700   44.6780  -18.0820 C.3    60  PRO60       0.0207
     51  CD         2.6550   44.9910  -17.3500 C.3    60  PRO60       0.0892
     52  N          3.8560   29.3540   -8.8700 N.3    93  THR93      -0.1203
     53  CA         5.2310   29.5590   -8.5230 C.3    93  THR93       0.1994
     54  C          5.8980   30.3020   -9.6520 C.2    93  THR93       0.2618
     55  O          5.6910   29.9930  -10.8260 O.2    93  THR93      -0.2717
     56  CB         5.9410   28.2530   -8.2920 C.3    93  THR93       0.1784
     57  OG1        7.1760   28.4590   -7.6270 O.3    93  THR93      -0.2211
     58  CG2        6.1830   27.5660   -9.6450 C.3    93  THR93       0.0376
     59  N          6.6960   31.3400   -9.3090 N.am   94  GLY94      -0.1942
     60  CA         7.4490   32.1020  -10.2740 C.3    94  GLY94       0.2014
     61  C          6.6430   33.2520  -10.8010 C.2    94  GLY94       0.2640
     62  O          7.1080   34.0090  -11.6540 O.2    94  GLY94      -0.2714
     63  N          5.3980   33.4030  -10.3240 N.am   95  THR95      -0.1936
     64  CA         4.5310   34.4510  -10.7760 C.3    95  THR95       0.2028
     65  C          4.9250   35.7800  -10.1840 C.2    95  THR95       0.2643
     66  O          4.5870   36.8250  -10.7440 O.2    95  THR95      -0.2714
     67  CB         3.0950   34.1270  -10.5450 C.3    95  THR95       0.1808
     68  OG1        2.2880   35.0070  -11.3040 O.3    95  THR95      -0.2208
     69  CG2        2.7870   34.2190   -9.0490 C.3    95  THR95       0.0379
     70  N          5.6480   35.7910   -9.0360 N.am   96  GLY96      -0.1939
     71  CA         6.0630   37.0600   -8.4900 C.3    96  GLY96       0.2014
     72  C          5.5560   37.3270   -7.0960 C.2    96  GLY96       0.2639
     73  O          5.5840   38.4730   -6.6480 O.2    96  GLY96      -0.2714
     74  N          5.0800   36.3030   -6.3590 N.am   97  LYS97      -0.1963
     75  CA         4.5720   36.5420   -5.0320 C.3    97  LYS97       0.1728
     76  C          5.6400   37.0550   -4.0990 C.2    97  LYS97       0.2617
     77  O          5.4190   38.0230   -3.3730 O.2    97  LYS97      -0.2715
     78  CB         3.9720   35.2830   -4.3860 C.3    97  LYS97       0.0311
     79  CG         2.7620   34.7270   -5.1420 C.3    97  LYS97       0.0038
     80  CD         2.2520   33.4000   -4.5740 C.3    97  LYS97       0.0206
     81  CE         3.3130   32.3000   -4.5180 C.3    97  LYS97       0.1093
     82  NZ         3.6180   31.8200   -5.8820 N.3    97  LYS97      -0.1314
     83  N          6.8290   36.4230   -4.0870 N.am   98  THR98      -0.1937
     84  CA         7.8820   36.8120   -3.1850 C.3    98  THR98       0.2028
     85  C          8.3720   38.1790   -3.5600 C.2    98  THR98       0.2642
     86  O          8.6350   39.0250   -2.7050 O.2    98  THR98      -0.2714
     87  CB         9.0320   35.8460   -3.2250 C.3    98  THR98       0.1808
     88  OG1        8.5780   34.5460   -2.8840 O.3    98  THR98      -0.2208
     89  CG2       10.1090   36.3030   -2.2260 C.3    98  THR98       0.0379
     90  N          8.4750   38.4400   -4.8710 N.am   99  HIS99      -0.1959
     91  CA         8.9620   39.6970   -5.3540 C.3    99  HIS99       0.1787
     92  C          8.0750   40.7760   -4.8140 C.2    99  HIS99       0.2620
     93  O          8.5610   41.8070   -4.3460 O.2    99  HIS99      -0.2715
     94  CB         8.9070   39.7320   -6.8930 C.3    99  HIS99       0.0785
     95  CG         9.3580   41.0100   -7.5280 C.ar   99  HIS99       0.0821
     96  ND1        8.5220   42.0810   -7.7550 N.ar   99  HIS99      -0.2267
     97  CD2       10.5730   41.3800   -8.0170 C.ar   99  HIS99       0.1154
     98  CE1        9.2650   43.0380   -8.3640 C.ar   99  HIS99       0.1986
     99  NE2       10.5180   42.6560   -8.5450 N.ar   99  HIS99      -0.2212
    100  N          6.7440   40.5740   -4.8800 N.am  100  THR100     -0.1951
    101  CA         5.8330   41.5730   -4.4010 C.3   100  THR100      0.1897
    102  C          5.9140   41.7360   -2.9110 C.2   100  THR100      0.2313
    103  O          6.0050   42.8600   -2.4210 O.2   100  THR100     -0.2863
    104  CB         4.3970   41.2950   -4.7440 C.3   100  THR100      0.1794
    105  OG1        4.2270   41.2450   -6.1550 O.3   100  THR100     -0.2208
    106  CG2        3.5300   42.4150   -4.1500 C.3   100  THR100      0.0378
    107  N         14.5170   25.7770   -3.0320 N.3   213  ASN213     -0.1240
    108  CA        13.6770   26.1720   -4.1260 C.3   213  ASN213      0.1653
    109  C         12.3640   25.4780   -3.9850 C.2   213  ASN213      0.2266
    110  O         11.3100   26.1100   -4.0490 O.2   213  ASN213     -0.2867
    111  CB        14.2600   25.7790   -5.4940 C.3   213  ASN213      0.1155
    112  CG        15.4870   26.6380   -5.7730 C.2   213  ASN213      0.2627
    113  OD1       16.4720   26.6130   -5.0370 O.2   213  ASN213     -0.2716
    114  ND2       15.4290   27.4250   -6.8800 N.am  213  ASN213     -0.0877
    115  N         10.3210   26.4960   -0.5400 N.3   216  SER216     -0.1202
    116  CA         9.6340   27.7500   -0.4900 C.3   216  SER216      0.2020
    117  C          8.4010   27.7140   -1.3450 C.2   216  SER216      0.2619
    118  O          7.3840   28.3110   -0.9930 O.2   216  SER216     -0.2717
    119  CB        10.5310   28.9270   -0.9250 C.3   216  SER216      0.2103
    120  OG        11.0120   28.7310   -2.2470 O.3   216  SER216     -0.2182
    121  N          8.4390   27.0070   -2.4890 N.am  217  SER217     -0.1951
    122  CA         7.2920   27.0000   -3.3600 C.3   217  SER217      0.1924
    123  C          6.1490   26.2750   -2.7080 C.2   217  SER217      0.2314
    124  O          4.9850   26.5600   -2.9800 O.2   217  SER217     -0.2863
    125  CB         7.5560   26.3360   -4.7250 C.3   217  SER217      0.2116
    126  OG         7.8010   24.9470   -4.5690 O.3   217  SER217     -0.2180
    127  N          2.8440   35.1510    2.3310 N.3   249  ASP249     -0.1225
    128  CA         3.3770   34.7270    1.0660 C.3   249  ASP249      0.1805
    129  C          3.0290   33.2690    0.9520 C.2   249  ASP249      0.2597
    130  O          3.7200   32.4060    1.4900 O.2   249  ASP249     -0.2718
    131  CB         4.9110   34.8580    0.9950 C.3   249  ASP249      0.1424
    132  CG         5.3670   34.7530   -0.4560 C.2   249  ASP249      0.3668
    133  OD1        4.5620   34.2730   -1.2970 O.co2 249  ASP249     -0.2456
    134  OD2        6.5260   35.1540   -0.7420 O.co2 249  ASP249     -0.2456
    135  N          1.9410   32.9660    0.2150 N.am  250  LEU250     -0.1979
    136  CA         1.3910   31.6330    0.0830 C.3   250  LEU250      0.1596
    137  C          2.2310   30.7480   -0.7890 C.2   250  LEU250      0.2287
    138  O          3.1070   31.1930   -1.5290 O.2   250  LEU250     -0.2864
    139  CB        -0.0080   31.6180   -0.5630 C.3   250  LEU250      0.0297
    140  CG        -1.1170   32.2710    0.2800 C.3   250  LEU250      0.0022
    141  CD1       -2.4730   32.2050   -0.4450 C.3   250  LEU250      0.0001
    142  CD2       -1.1740   31.6600    1.6880 C.3   250  LEU250      0.0001
    143  N          2.7800   27.9330   -3.8670 N.3   252  GLY252     -0.1225
    144  CA         2.3620   28.0970   -5.2320 C.3   252  GLY252      0.1811
    145  C          1.0100   27.4980   -5.3940 C.2   252  GLY252      0.2280
    146  O          0.6860   26.5370   -4.7150 O.2   252  GLY252     -0.2866
@<TRIPOS>BOND
     1    40    39    2
     2    39    38    1
     3    37    38    1
     4    50    51    1
     5    50    49    1
     6    38    41    1
     7    51    45    1
     8    32    31    1
     9    32    33    2
    10    49    46    1
    11    31    34    1
    12    31    30    1
    13    34    35    1
    14    41    42    1
    15    17    16    1
    16    22    21    2
    17    45    46    1
    18    46    47    1
    19    42    43    2
    20    42    44   am
    21    30    21   am
    22    30    36    1
    23    47    48    2
    24    35    36    1
    25    21    20    1
    26    16    18    1
    27    16    13    1
    28    29    27    1
    29    28    27    1
    30    27    26    2
    31    14    13    1
    32    14    15    2
    33    14    19   am
    34    20    19    1
    35    20    23    1
    36    13    12    1
    37    24    23    1
    38    24    25    1
    39    26    25    1
    40    12     3   am
    41     3     4    2
    42     3     2    1
    43    62    61    2
    44    68    67    1
    45    55    54    2
    46    61    63   am
    47    61    60    1
    48    64    67    1
    49    64    63    1
    50    64    65    1
    51     2     1    1
    52     2     5    1
    53    66    65    2
    54    67    69    1
    55    60    59    1
    56    65    70   am
    57     6     5    1
    58     6     7    1
    59    54    59   am
    60    54    53    1
    61    58    56    1
    62     8     7    1
    63     8     9    2
    64    11     9    1
    65    70    71    1
    66    52    53    1
    67     9    10    1
    68    99    98   ar
    69    99    97   ar
    70    53    56    1
    71    71    72    1
    72    98    96   ar
    73    56    57    1
    74    97    95   ar
    75    96    95   ar
    76    95    94    1
    77    72    73    2
    78    72    74   am
    79    94    91    1
    80   114   112   am
    81    74    75    1
    82   105   104    1
    83    82    81    1
    84   112   111    1
    85   112   113    2
    86   111   108    1
    87   145   144    1
    88   145   146    2
    89    91    90    1
    90    91    92    1
    91   144   143    1
    92    79    80    1
    93    79    78    1
    94    75    78    1
    95    75    76    1
    96   100    92   am
    97   100   101    1
    98    90    85   am
    99    92    93    2
   100   104   101    1
   101   104   106    1
   102   125   126    1
   103   125   122    1
   104    80    81    1
   105   101   102    1
   106   108   109    1
   107   108   107    1
   108    76    83   am
   109    76    77    2
   110    83    84    1
   111   110   109    2
   112    85    84    1
   113    85    86    2
   114   122   123    1
   115   122   121    1
   116    87    84    1
   117    87    88    1
   118    87    89    1
   119   124   123    2
   120   102   103    2
   121   121   117   am
   122   120   119    1
   123   138   137    2
   124   117   118    2
   125   117   116    1
   126   133   132   ar
   127   119   116    1
   128   137   136    1
   129   134   132   ar
   130   139   136    1
   131   139   140    1
   132   115   116    1
   133   132   131    1
   134   141   140    1
   135   136   135    1
   136   135   129   am
   137   140   142    1
   138   129   128    1
   139   129   130    2
   140   131   128    1
   141   128   127    1
