@<TRIPOS>MOLECULE
tmp/2wbgA00.pdb
 175 175 0 0 0
SMALL
GASTEIGER

@<TRIPOS>ATOM
      1  N          1.9560    9.1890   22.0600 N.3    18  GLN18      -0.1245
      2  CA         1.1380   10.0170   21.1760 C.3    18  GLN18       0.1566
      3  C         -0.1120   10.5690   21.8490 C.2    18  GLN18       0.2260
      4  O         -0.6580   11.5890   21.4030 O.2    18  GLN18      -0.2867
      5  CB         0.7640    9.2150   19.9090 C.3    18  GLN18       0.0367
      6  CG         2.0280    8.7200   19.1870 C.3    18  GLN18       0.0905
      7  CD         1.7090    8.1280   17.8570 C.2    18  GLN18       0.2608
      8  OE1        1.6970    6.9090   17.7340 O.2    18  GLN18      -0.2717
      9  NE2        1.4070    8.9730   16.8550 N.am   18  GLN18      -0.0878
     10  N          6.2470    0.8720   21.6070 N.3   119  HIS119     -0.1226
     11  CA         5.8400    1.7280   20.5130 C.3   119  HIS119      0.1752
     12  C          6.6930    3.0150   20.5500 C.2   119  HIS119      0.2596
     13  O          6.1590    4.1300   20.4800 O.2   119  HIS119     -0.2718
     14  CB         4.3250    2.0290   20.5940 C.3   119  HIS119      0.0759
     15  CG         3.7090    2.4590   19.2940 C.ar  119  HIS119      0.0818
     16  ND1        2.6710    1.7690   18.6990 N.ar  119  HIS119     -0.2268
     17  CD2        3.9810    3.5050   18.4710 C.ar  119  HIS119      0.1154
     18  CE1        2.3010    2.3910   17.5950 C.ar  119  HIS119      0.1986
     19  NE2        3.0800    3.4500   17.4310 N.ar  119  HIS119     -0.2212
     20  N          8.0160    2.8210   20.6830 N.am  120  TRP120     -0.1976
     21  CA         9.0740    3.8090   20.3050 C.3   120  TRP120      0.1640
     22  C          9.5850    4.6850   21.4440 C.2   120  TRP120      0.2290
     23  O         10.5990    5.3810   21.2820 O.2   120  TRP120     -0.2864
     24  CB         8.6080    4.7100   19.1660 C.3   120  TRP120      0.0576
     25  CG         8.1270    4.0150   17.9220 C.ar  120  TRP120      0.0006
     26  CD1        8.0750    2.6520   17.6650 C.ar  120  TRP120      0.0946
     27  CD2        7.6420    4.6570   16.7640 C.ar  120  TRP120      0.0152
     28  NE1        7.5740    2.4270   16.4050 N.ar  120  TRP120     -0.2442
     29  CE2        7.2970    3.6460   15.8280 C.ar  120  TRP120      0.0810
     30  CE3        7.4480    6.0110   16.4180 C.ar  120  TRP120      0.0012
     31  CZ2        6.7860    3.9450   14.5610 C.ar  120  TRP120      0.0191
     32  CZ3        6.9300    6.3040   15.1680 C.ar  120  TRP120      0.0001
     33  CH2        6.6070    5.2790   14.2450 C.ar  120  TRP120      0.0015
     34  N          6.2730   -2.3840   17.6350 N.3   163  ASN163     -0.1225
     35  CA         5.6180   -1.6770   16.5600 C.3   163  ASN163      0.1785
     36  C          6.6570   -1.2030   15.5390 C.2   163  ASN163      0.2597
     37  O          7.4670   -0.3660   15.8630 O.2   163  ASN163     -0.2718
     38  CB         4.8950   -0.4240   17.0840 C.3   163  ASN163      0.1169
     39  CG         4.1610    0.3070   15.9470 C.2   163  ASN163      0.2627
     40  OD1        3.1700   -0.2210   15.4100 O.2   163  ASN163     -0.2716
     41  ND2        4.6680    1.4970   15.5410 N.am  163  ASN163     -0.0877
     42  N          6.5890   -1.7500   14.3230 N.am  164  GLU164     -0.1979
     43  CA         7.3480   -1.2900   13.1560 C.3   164  GLU164      0.1602
     44  C          8.8490   -1.1730   13.4130 C.2   164  GLU164      0.2287
     45  O          9.4170   -0.0750   13.3060 O.2   164  GLU164     -0.2864
     46  CB         6.7880    0.0740   12.7020 C.3   164  GLU164      0.0415
     47  CG         5.2940   -0.0240   12.3320 C.3   164  GLU164      0.1163
     48  CD         4.7200    1.2700   11.7290 C.2   164  GLU164      0.3649
     49  OE1        5.2810    2.3690   11.9680 O.co2 164  GLU164     -0.2457
     50  OE2        3.6910    1.1780   11.0170 O.co2 164  GLU164     -0.2457
     51  N         10.8500    1.0610   11.1150 N.3   167  VAL167     -0.1245
     52  CA        10.7930    2.5000   11.3480 C.3   167  VAL167      0.1561
     53  C         11.7200    2.8350   12.5230 C.2   167  VAL167      0.2260
     54  O         12.5360    3.7750   12.4530 O.2   167  VAL167     -0.2867
     55  CB         9.3070    3.0060   11.6090 C.3   167  VAL167      0.0252
     56  CG1        9.3190    4.4960   11.9360 C.3   167  VAL167      0.0019
     57  CG2        8.4320    2.8300   10.3420 C.3   167  VAL167      0.0019
     58  N          5.3160   -2.1310    9.4980 N.3   220  ASN220     -0.1240
     59  CA         4.8540   -1.2290    8.4290 C.3   220  ASN220      0.1653
     60  C          4.9800   -1.8650    7.0430 C.2   220  ASN220      0.2266
     61  O          5.8560   -2.7000    6.8140 O.2   220  ASN220     -0.2867
     62  CB         5.6690    0.0980    8.4430 C.3   220  ASN220      0.1155
     63  CG         7.1660   -0.1620    8.3720 C.2   220  ASN220      0.2627
     64  OD1        7.7750   -0.5690    9.3510 O.2   220  ASN220     -0.2716
     65  ND2        7.7530    0.0540    7.2110 N.am  220  ASN220     -0.0877
     66  N         -0.8930    1.9090    4.9580 N.3   293  TYR293     -0.1227
     67  CA        -1.4440    3.2530    4.6850 C.3   293  TYR293      0.1736
     68  C         -1.3790    3.6810    3.2430 C.2   293  TYR293      0.2596
     69  O         -2.2610    4.4030    2.7700 O.2   293  TYR293     -0.2718
     70  CB        -0.6870    4.2930    5.5010 C.3   293  TYR293      0.0548
     71  CG        -0.8770    4.2010    7.0070 C.ar  293  TYR293     -0.0200
     72  CD1       -0.1340    3.3110    7.7850 C.ar  293  TYR293     -0.0009
     73  CD2       -1.7500    5.0780    7.6680 C.ar  293  TYR293     -0.0009
     74  CE1       -0.2840    3.2780    9.1780 C.ar  293  TYR293      0.0417
     75  CE2       -1.9210    5.0440    9.0280 C.ar  293  TYR293      0.0417
     76  CZ        -1.1940    4.1490    9.7810 C.ar  293  TYR293      0.1957
     77  OH        -1.3470    4.1640   11.1380 O.3   293  TYR293     -0.2866
     78  N         -0.3490    3.2680    2.5150 N.am  294  SER294     -0.1952
     79  CA        -0.1240    3.8650    1.2090 C.3   294  SER294      0.1924
     80  C          0.5580    2.9680    0.1900 C.2   294  SER294      0.2314
     81  O          1.2240    1.9750    0.5290 O.2   294  SER294     -0.2863
     82  CB         0.7160    5.1400    1.3640 C.3   294  SER294      0.2116
     83  OG         0.7680    5.8520    0.1480 O.3   294  SER294     -0.2180
     84  N          3.1150    3.0850   -3.4450 N.3   296  HIS296     -0.1241
     85  CA         4.2270    3.8400   -4.0170 C.3   296  HIS296      0.1621
     86  C          4.6930    3.3010   -5.3670 C.2   296  HIS296      0.2264
     87  O          4.9450    2.0910   -5.5210 O.2   296  HIS296     -0.2867
     88  CB         5.4260    3.8140   -3.0590 C.3   296  HIS296      0.0745
     89  CG         5.0620    4.1540   -1.6580 C.ar  296  HIS296      0.0817
     90  ND1        4.9260    5.4590   -1.2280 N.ar  296  HIS296     -0.2268
     91  CD2        4.7530    3.3630   -0.5980 C.ar  296  HIS296      0.1154
     92  CE1        4.5840    5.4540    0.0490 C.ar  296  HIS296      0.1986
     93  NE2        4.4540    4.1980    0.4450 N.ar  296  HIS296     -0.2212
     94  N         11.2500    6.8710   -5.4060 N.3   310  PHE310     -0.1241
     95  CA         9.8000    6.9110   -5.5300 C.3   310  PHE310      0.1605
     96  C          9.4660    7.8450   -6.6760 C.2   310  PHE310      0.2264
     97  O         10.1720    8.8280   -6.8970 O.2   310  PHE310     -0.2867
     98  CB         9.1540    7.4450   -4.2370 C.3   310  PHE310      0.0534
     99  CG         9.4290    6.5990   -3.0110 C.ar  310  PHE310     -0.0203
    100  CD1       10.5120    6.8740   -2.1870 C.ar  310  PHE310     -0.0042
    101  CD2        8.6050    5.5550   -2.6730 C.ar  310  PHE310     -0.0042
    102  CE1       10.7670    6.0950   -1.0420 C.ar  310  PHE310     -0.0003
    103  CE2        8.8400    4.7670   -1.5360 C.ar  310  PHE310     -0.0003
    104  CZ         9.9160    5.0320   -0.7190 C.ar  310  PHE310     -0.0000
    105  N          0.2550   11.2160    1.0560 N.3   322  TRP322     -0.1241
    106  CA         0.3720    9.7760    0.7830 C.3   322  TRP322      0.1605
    107  C         -0.7060    9.2870   -0.1500 C.2   322  TRP322      0.2264
    108  O         -1.8870    9.5440    0.0810 O.2   322  TRP322     -0.2867
    109  CB         0.2830    8.9720    2.0550 C.3   322  TRP322      0.0550
    110  CG         1.2860    9.3520    3.0940 C.ar  322  TRP322      0.0003
    111  CD1        2.4590   10.0490    2.9100 C.ar  322  TRP322      0.0946
    112  CD2        1.2060    9.0510    4.4910 C.ar  322  TRP322      0.0152
    113  NE1        3.1280   10.1730    4.1290 N.ar  322  TRP322     -0.2442
    114  CE2        2.3650    9.5840    5.1070 C.ar  322  TRP322      0.0810
    115  CE3        0.2550    8.3910    5.2880 C.ar  322  TRP322      0.0012
    116  CZ2        2.6060    9.4620    6.4760 C.ar  322  TRP322      0.0191
    117  CZ3        0.5050    8.2670    6.6560 C.ar  322  TRP322      0.0001
    118  CH2        1.6560    8.8220    7.2340 C.ar  322  TRP322      0.0015
    119  N         -2.8510   -1.3920   11.9980 N.3   349  GLU349     -0.1245
    120  CA        -3.1740    0.0210   11.7050 C.3   349  GLU349      0.1567
    121  C         -3.6430    0.2060   10.2860 C.2   349  GLU349      0.2260
    122  O         -3.0160   -0.2910    9.3430 O.2   349  GLU349     -0.2867
    123  CB        -1.9480    0.9500   11.8910 C.3   349  GLU349      0.0388
    124  CG        -1.3610    0.9340   13.2860 C.3   349  GLU349      0.1160
    125  CD        -0.1720    1.9060   13.5030 C.2   349  GLU349      0.3649
    126  OE1        0.0130    2.8510   12.6880 O.co2 349  GLU349     -0.2457
    127  OE2        0.5550    1.7230   14.5250 O.co2 349  GLU349     -0.2457
    128  N         -6.2180    3.2200   12.8090 N.3   396  TRP396     -0.1241
    129  CA        -5.3400    4.2330   13.4110 C.3   396  TRP396      0.1605
    130  C         -6.0010    5.5700   13.0780 C.2   396  TRP396      0.2264
    131  O         -6.0940    5.9060   11.9100 O.2   396  TRP396     -0.2867
    132  CB        -3.9070    4.2130   12.8280 C.3   396  TRP396      0.0550
    133  CG        -3.0840    5.2390   13.5970 C.ar  396  TRP396      0.0003
    134  CD1       -2.9420    6.5740   13.3090 C.ar  396  TRP396      0.0946
    135  CD2       -2.4150    5.0150   14.8160 C.ar  396  TRP396      0.0152
    136  NE1       -2.1990    7.1980   14.2980 N.ar  396  TRP396     -0.2442
    137  CE2       -1.8520    6.2550   15.2270 C.ar  396  TRP396      0.0810
    138  CE3       -2.2180    3.8750   15.6120 C.ar  396  TRP396      0.0012
    139  CZ2       -1.1310    6.3960   16.4080 C.ar  396  TRP396      0.0191
    140  CZ3       -1.4740    3.9980   16.7840 C.ar  396  TRP396      0.0001
    141  CH2       -0.9230    5.2670   17.1650 C.ar  396  TRP396      0.0015
    142  N          1.5480   13.2740   16.1010 N.3   403  GLU403     -0.1231
    143  CA         2.0230   12.4800   14.9400 C.3   403  GLU403      0.1699
    144  C          3.5520   12.6410   14.8000 C.2   403  GLU403      0.2592
    145  O          4.0670   13.1540   13.7980 O.2   403  GLU403     -0.2718
    146  CB         1.3000   12.9400   13.6590 C.3   403  GLU403      0.0402
    147  CG         1.5740   12.0980   12.3780 C.3   403  GLU403      0.1161
    148  CD         1.6450   10.5800   12.6650 C.2   403  GLU403      0.3649
    149  OE1        0.7680   10.0540   13.3900 O.co2 403  GLU403     -0.2457
    150  OE2        2.5770    9.9220   12.1510 O.co2 403  GLU403     -0.2457
    151  N          4.2530   12.2490   15.8540 N.am  404  TRP404     -0.1976
    152  CA         5.7220   12.1950   15.8140 C.3   404  TRP404      0.1640
    153  C          6.3410   13.4920   15.2580 C.2   404  TRP404      0.2290
    154  O          6.0240   14.5600   15.7910 O.2   404  TRP404     -0.2864
    155  CB         6.1540   10.9400   15.0610 C.3   404  TRP404      0.0576
    156  CG         5.5060    9.6760   15.6620 C.ar  404  TRP404      0.0006
    157  CD1        4.5920    8.8510   15.0540 C.ar  404  TRP404      0.0946
    158  CD2        5.6740    9.1790   16.9950 C.ar  404  TRP404      0.0152
    159  NE1        4.2470    7.8190   15.9170 N.ar  404  TRP404     -0.2442
    160  CE2        4.8890    8.0070   17.1140 C.ar  404  TRP404      0.0810
    161  CE3        6.4630    9.5740   18.0810 C.ar  404  TRP404      0.0012
    162  CZ2        4.8760    7.2200   18.2760 C.ar  404  TRP404      0.0191
    163  CZ3        6.4370    8.7910   19.2670 C.ar  404  TRP404      0.0001
    164  CH2        5.6470    7.6460   19.3540 C.ar  404  TRP404      0.0015
    165  N         -5.3030   11.9710   12.6830 N.3   412  PHE412     -0.1241
    166  CA        -5.6810   10.6190   12.1860 C.3   412  PHE412      0.1605
    167  C         -6.8970   10.0350   12.9060 C.2   412  PHE412      0.2264
    168  O         -7.3390    8.9180   12.5870 O.2   412  PHE412     -0.2867
    169  CB        -4.5180    9.6280   12.3690 C.3   412  PHE412      0.0534
    170  CG        -3.4320    9.7490   11.3310 C.ar  412  PHE412     -0.0203
    171  CD1       -2.4220   10.7060   11.4490 C.ar  412  PHE412     -0.0042
    172  CD2       -3.4050    8.8780   10.2530 C.ar  412  PHE412     -0.0042
    173  CE1       -1.3880   10.7890   10.4870 C.ar  412  PHE412     -0.0003
    174  CE2       -2.3910    8.9510    9.2890 C.ar  412  PHE412     -0.0003
    175  CZ        -1.3800    9.8870    9.3980 C.ar  412  PHE412     -0.0000
@<TRIPOS>BOND
     1    97    96    2
     2    96    95    1
     3    95    94    1
     4    95    98    1
     5    87    86    2
     6    86    85    1
     7    98    99    1
     8    85    84    1
     9    85    88    1
    10    88    89    1
    11    99   101   ar
    12    99   100   ar
    13   101   103   ar
    14   100   102   ar
    15    89    90   ar
    16    89    91   ar
    17   103   104   ar
    18    90    92   ar
    19   102   104   ar
    20    91    93   ar
    21   107   108    2
    22   107   106    1
    23    92    93   ar
    24    83    82    1
    25    80    81    2
    26    80    79    1
    27   106   105    1
    28   106   109    1
    29    79    82    1
    30    79    78    1
    31   109   110    1
    32    78    68   am
    33    69    68    2
    34   111   110   ar
    35   111   113   ar
    36   110   112   ar
    37    68    67    1
    38   113   114   ar
    39   112   114   ar
    40   112   115   ar
    41    67    66    1
    42    67    70    1
    43   114   116   ar
    44   115   117   ar
    45    70    71    1
    46   116   118   ar
    47   117   118   ar
    48    61    60    2
    49    71    73   ar
    50    71    72   ar
    51    60    59    1
    52    65    63   am
    53    73    75   ar
    54    72    74   ar
    55    63    62    1
    56    63    64    2
    57    59    62    1
    58    59    58    1
    59    75    76   ar
    60    74    76   ar
    61   174   175   ar
    62   174   172   ar
    63   122   121    2
    64   175   173   ar
    65    76    77    1
    66   172   170   ar
    67   121   120    1
    68    57    55    1
    69   173   171   ar
    70    50    48   ar
    71    51    52    1
    72   170   171   ar
    73   170   169    1
    74    52    55    1
    75    52    53    1
    76    55    56    1
    77   120   123    1
    78   120   119    1
    79    48    49   ar
    80    48    47    1
    81   123   124    1
    82   131   130    2
    83   150   148   ar
    84   166   169    1
    85   166   165    1
    86   166   167    1
    87    47    46    1
    88   147   148    1
    89   147   146    1
    90    54    53    2
    91   168   167    2
    92   148   149   ar
    93   126   125   ar
    94    46    43    1
    95   128   129    1
    96   132   129    1
    97   132   133    1
    98   130   129    1
    99    43    44    1
   100    43    42    1
   101   124   125    1
   102    45    44    2
   103   134   133   ar
   104   134   136   ar
   105   125   127   ar
   106   133   135   ar
   107   146   143    1
   108   145   144    2
   109    33    31   ar
   110    33    32   ar
   111   136   137   ar
   112    42    36   am
   113    31    29   ar
   114   144   143    1
   115   144   151   am
   116   135   137   ar
   117   135   138   ar
   118   143   142    1
   119   157   156   ar
   120   157   159   ar
   121   155   156    1
   122   155   152    1
   123    32    30   ar
   124   137   139   ar
   125   153   154    2
   126   153   152    1
   127    40    39    2
   128    36    37    2
   129    36    35    1
   130    41    39   am
   131   138   140   ar
   132   156   158   ar
   133   152   151    1
   134    29    28   ar
   135    29    27   ar
   136   159   160   ar
   137    39    38    1
   138    28    26   ar
   139   139   141   ar
   140    30    27   ar
   141    35    38    1
   142    35    34    1
   143    27    25   ar
   144   140   141   ar
   145     9     7   am
   146   158   160   ar
   147   158   161   ar
   148   160   162   ar
   149    19    18   ar
   150    19    17   ar
   151    18    16   ar
   152    26    25   ar
   153     8     7    2
   154     7     6    1
   155    25    24    1
   156   161   163   ar
   157   162   164   ar
   158    17    15   ar
   159    16    15   ar
   160    24    21    1
   161     6     5    1
   162   163   164   ar
   163    15    14    1
   164     5     2    1
   165    21    20    1
   166    21    22    1
   167    13    12    2
   168    11    12    1
   169    11    14    1
   170    11    10    1
   171    12    20   am
   172     2     3    1
   173     2     1    1
   174    23    22    2
   175     4     3    2
