@<TRIPOS>MOLECULE
tmp/2wbiB01.pdb
 201 198 0 0 0
SMALL
GASTEIGER

@<TRIPOS>ATOM
      1  N         27.0750  -24.5220   -7.7020 N.3    98  PRO98      -0.2116
      2  CA        25.8030  -23.7970   -7.6790 C.3    98  PRO98       0.1372
      3  C         25.1590  -23.6380   -9.0700 C.2    98  PRO98       0.2244
      4  O         24.1840  -22.8810   -9.2230 O.2    98  PRO98      -0.2868
      5  CB        26.2170  -22.4260   -7.1520 C.3    98  PRO98       0.0268
      6  CG        27.5470  -22.2150   -7.7270 C.3    98  PRO98       0.0207
      7  CD        28.2070  -23.5840   -7.8210 C.3    98  PRO98       0.0892
      8  N         25.8300  -17.9700   -7.0550 N.3   131  PHE131     -0.1227
      9  CA        24.6120  -17.4520   -6.4870 C.3   131  PHE131      0.1736
     10  C         25.0370  -16.5650   -5.3470 C.2   131  PHE131      0.2596
     11  O         25.8780  -16.9720   -4.5520 O.2   131  PHE131     -0.2718
     12  CB        23.7520  -18.6150   -5.9980 C.3   131  PHE131      0.0547
     13  CG        22.4340  -18.2020   -5.4250 C.ar  131  PHE131     -0.0202
     14  CD1       21.6470  -17.2460   -6.0560 C.ar  131  PHE131     -0.0042
     15  CD2       21.9650  -18.7950   -4.2580 C.ar  131  PHE131     -0.0042
     16  CE1       20.4250  -16.8660   -5.5210 C.ar  131  PHE131     -0.0003
     17  CE2       20.7440  -18.4270   -3.7040 C.ar  131  PHE131     -0.0003
     18  CZ        19.9650  -17.4590   -4.3350 C.ar  131  PHE131     -0.0000
     19  N         24.4900  -15.3490   -5.2810 N.am  132  CYS132     -0.1956
     20  CA        24.8830  -14.3850   -4.2410 C.3   132  CYS132      0.1843
     21  C         23.7160  -13.9010   -3.3940 C.2   132  CYS132      0.2625
     22  O         22.9510  -13.0130   -3.8000 O.2   132  CYS132     -0.2714
     23  CB        25.6170  -13.1980   -4.8420 C.3   132  CYS132      0.0997
     24  SG        27.1550  -13.6700   -5.6230 S.3   132  CYS132     -0.0797
     25  N         23.5920  -14.4840   -2.2060 N.am  133  MET133     -0.1963
     26  CA        22.4870  -14.1840   -1.3110 C.3   133  MET133      0.1736
     27  C         23.0010  -13.7560    0.0820 C.2   133  MET133      0.2617
     28  O         22.6280  -12.6690    0.5670 O.2   133  MET133     -0.2715
     29  CB        21.5550  -15.3950   -1.2540 C.3   133  MET133      0.0427
     30  CG        20.3240  -15.2520   -0.3860 C.3   133  MET133      0.0599
     31  SD        19.1300  -16.5840   -0.7810 S.3   133  MET133     -0.1393
     32  CE        17.8300  -16.2400    0.4120 C.3   133  MET133      0.0692
     33  N         23.8820  -14.5780    0.6770 N.am  134  THR134     -0.1937
     34  CA        24.4090  -14.3800    2.0360 C.3   134  THR134      0.2028
     35  C         25.3020  -13.1420    2.2030 C.2   134  THR134      0.2642
     36  O         26.2030  -12.8940    1.3920 O.2   134  THR134     -0.2714
     37  CB        25.2040  -15.6240    2.4930 C.3   134  THR134      0.1808
     38  OG1       24.4130  -16.7940    2.2790 O.3   134  THR134     -0.2208
     39  CG2       25.5620  -15.5580    3.9740 C.3   134  THR134      0.0379
     40  N         25.0510  -12.3900    3.2760 N.am  135  GLU135     -0.1976
     41  CA        25.7680  -11.1530    3.5820 C.3   135  GLU135      0.1602
     42  C         26.4290  -11.2350    4.9510 C.2   135  GLU135      0.2287
     43  O         25.7910  -11.6240    5.9260 O.2   135  GLU135     -0.2864
     44  CB        24.8150   -9.9530    3.5920 C.3   135  GLU135      0.0415
     45  CG        24.0740   -9.6710    2.3000 C.3   135  GLU135      0.1163
     46  CD        23.1630   -8.4410    2.4100 C.2   135  GLU135      0.3649
     47  OE1       23.1910   -7.7290    3.4570 O.co2 135  GLU135     -0.2457
     48  OE2       22.4220   -8.1760    1.4370 O.co2 135  GLU135     -0.2457
     49  N         24.7200   -9.1750    8.3510 N.3   138  VAL138     -0.1231
     50  CA        23.3840   -9.5090    8.8590 C.3   138  VAL138      0.1692
     51  C         23.1720  -11.0170    8.8590 C.2   138  VAL138      0.2592
     52  O         23.7520  -11.7320    8.0300 O.2   138  VAL138     -0.2718
     53  CB        22.2270   -8.8530    8.0380 C.3   138  VAL138      0.0266
     54  CG1       22.1680   -7.3660    8.2870 C.3   138  VAL138      0.0020
     55  CG2       22.3440   -9.1510    6.5360 C.3   138  VAL138      0.0020
     56  N         22.3220  -11.4870    9.7780 N.am  139  ALA139     -0.1966
     57  CA        21.9680  -12.9010    9.8920 C.3   139  ALA139      0.1728
     58  C         21.1210  -13.2810    8.6930 C.2   139  ALA139      0.2617
     59  O         19.9190  -12.9900    8.6420 O.2   139  ALA139     -0.2715
     60  CB        21.2300  -13.1560   11.1700 C.3   139  ALA139      0.0334
     61  N         21.7660  -13.9230    7.7190 N.am  140  SER140     -0.1936
     62  CA        21.1680  -14.1320    6.4010 C.3   140  SER140      0.2055
     63  C         20.2230  -15.3160    6.3110 C.2   140  SER140      0.2643
     64  O         19.6260  -15.5580    5.2590 O.2   140  SER140     -0.2714
     65  CB        22.2590  -14.2420    5.3420 C.3   140  SER140      0.2130
     66  OG        23.0520  -13.0750    5.3510 O.3   140  SER140     -0.2179
     67  N         20.1050  -16.0600    7.4090 N.am  141  SER141     -0.1949
     68  CA        19.1830  -17.1890    7.4780 C.3   141  SER141      0.1924
     69  C         17.7340  -16.6740    7.4810 C.2   141  SER141      0.2314
     70  O         16.8100  -17.3870    7.0750 O.2   141  SER141     -0.2863
     71  CB        19.4810  -18.0570    8.6970 C.3   141  SER141      0.2116
     72  OG        19.5490  -17.2610    9.8630 O.3   141  SER141     -0.2180
     73  N         28.9730  -12.6520    0.7270 N.3   164  TRP164     -0.1227
     74  CA        29.9920  -13.6680    0.9760 C.3   164  TRP164      0.1737
     75  C         29.4840  -15.1000    0.9220 C.2   164  TRP164      0.2595
     76  O         28.2730  -15.3480    0.8830 O.2   164  TRP164     -0.2718
     77  CB        30.7890  -13.3800    2.2530 C.3   164  TRP164      0.0564
     78  CG        30.1870  -13.8030    3.5660 C.ar  164  TRP164      0.0003
     79  CD1       28.8580  -13.9110    3.8850 C.ar  164  TRP164      0.0946
     80  CD2       30.9120  -14.1120    4.7600 C.ar  164  TRP164      0.0152
     81  NE1       28.7150  -14.2870    5.1970 N.ar  164  TRP164     -0.2442
     82  CE2       29.9590  -14.4170    5.7600 C.ar  164  TRP164      0.0810
     83  CE3       32.2840  -14.1750    5.0820 C.ar  164  TRP164      0.0012
     84  CZ2       30.3340  -14.7800    7.0640 C.ar  164  TRP164      0.0191
     85  CZ3       32.6530  -14.5310    6.3700 C.ar  164  TRP164      0.0001
     86  CH2       31.6820  -14.8370    7.3430 C.ar  164  TRP164      0.0015
     87  N         30.4450  -16.0270    0.8980 N.am  165  TRP165     -0.1962
     88  CA        30.2000  -17.4530    0.6630 C.3   165  TRP165      0.1771
     89  C         29.7140  -17.7390   -0.7480 C.2   165  TRP165      0.2620
     90  O         28.9470  -18.6740   -0.9790 O.2   165  TRP165     -0.2715
     91  CB        29.2490  -18.0310    1.7090 C.3   165  TRP165      0.0590
     92  CG        29.8930  -18.0900    3.0230 C.ar  165  TRP165      0.0006
     93  CD1       29.6430  -17.2890    4.0930 C.ar  165  TRP165      0.0946
     94  CD2       30.9550  -18.9550    3.4040 C.ar  165  TRP165      0.0152
     95  NE1       30.4860  -17.6080    5.1280 N.ar  165  TRP165     -0.2442
     96  CE2       31.2950  -18.6380    4.7300 C.ar  165  TRP165      0.0810
     97  CE3       31.6460  -19.9760    2.7570 C.ar  165  TRP165      0.0012
     98  CZ2       32.2940  -19.3000    5.4170 C.ar  165  TRP165      0.0191
     99  CZ3       32.6380  -20.6350    3.4400 C.ar  165  TRP165      0.0001
    100  CH2       32.9550  -20.2930    4.7570 C.ar  165  TRP165      0.0015
    101  N         30.1690  -16.9440   -1.7050 N.am  166  SER166     -0.1936
    102  CA        29.6910  -17.1420   -3.0590 C.3   166  SER166      0.2055
    103  C         30.5170  -18.2410   -3.6770 C.2   166  SER166      0.2643
    104  O         31.7000  -18.0420   -3.9620 O.2   166  SER166     -0.2714
    105  CB        29.7500  -15.8430   -3.8540 C.3   166  SER166      0.2130
    106  OG        28.8840  -14.8860   -3.2610 O.3   166  SER166     -0.2179
    107  N         29.9020  -19.4050   -3.8480 N.am  167  SER167     -0.1949
    108  CA        30.6510  -20.5950   -4.2420 C.3   167  SER167      0.1924
    109  C         30.9830  -20.6120   -5.7210 C.2   167  SER167      0.2314
    110  O         30.1050  -20.4510   -6.5520 O.2   167  SER167     -0.2863
    111  CB        29.8880  -21.8540   -3.8510 C.3   167  SER167      0.2116
    112  OG        29.7000  -21.8760   -2.4510 O.3   167  SER167     -0.2180
    113  N         36.9550  -23.6020    4.9300 N.3   209  VAL209     -0.1245
    114  CA        36.1200  -24.4960    5.7240 C.3   209  VAL209      0.1561
    115  C         37.0800  -25.4780    6.4330 C.2   209  VAL209      0.2260
    116  O         37.7170  -26.3270    5.7860 O.2   209  VAL209     -0.2867
    117  CB        35.1380  -25.2580    4.8240 C.3   209  VAL209      0.0252
    118  CG1       34.3410  -26.2730    5.6300 C.3   209  VAL209      0.0019
    119  CG2       34.2170  -24.3000    4.1240 C.3   209  VAL209      0.0019
    120  N         35.0810  -20.3350   -2.3210 N.3   220  HIS220     -0.1241
    121  CA        33.9730  -19.5950   -1.7020 C.3   220  HIS220      0.1621
    122  C         34.4110  -18.1820   -1.3290 C.2   220  HIS220      0.2264
    123  O         35.2650  -18.0130   -0.4550 O.2   220  HIS220     -0.2867
    124  CB        33.4690  -20.3210   -0.4640 C.3   220  HIS220      0.0745
    125  CG        33.2340  -21.7770   -0.6810 C.ar  220  HIS220      0.0817
    126  ND1       32.0500  -22.2740   -1.1910 N.ar  220  HIS220     -0.2268
    127  CD2       34.0410  -22.8480   -0.4850 C.ar  220  HIS220      0.1154
    128  CE1       32.1350  -23.5900   -1.2870 C.ar  220  HIS220      0.1986
    129  NE2       33.3340  -23.9620   -0.8680 N.ar  220  HIS220     -0.2212
    130  N         14.5540  -21.8930   -6.6000 N.3   249  ARG249     -0.1245
    131  CA        15.8350  -22.5490   -6.8640 C.3   249  ARG249      0.1563
    132  C         16.3240  -23.4540   -5.7270 C.2   249  ARG249      0.2260
    133  O         16.8330  -24.5540   -5.9900 O.2   249  ARG249     -0.2867
    134  CB        16.9170  -21.5440   -7.3090 C.3   249  ARG249      0.0307
    135  CG        17.8980  -21.0810   -6.2690 C.3   249  ARG249      0.0489
    136  CD        19.2970  -20.8660   -6.8730 C.3   249  ARG249      0.2205
    137  NE        20.3230  -21.4960   -6.0330 N.pl3 249  ARG249     -0.0865
    138  CZ        21.5490  -21.7930   -6.4380 C.cat 249  ARG249      0.5346
    139  NH1       21.9200  -21.5160   -7.6710 N.pl3 249  ARG249      0.1354
    140  NH2       22.4020  -22.3780   -5.6140 N.pl3 249  ARG249      0.1354
    141  N         29.0260  -28.6090    6.5330 N.3   371  VAL371     -0.1245
    142  CA        28.6300  -27.3730    5.8980 C.3   371  VAL371      0.1561
    143  C         27.1810  -27.4110    5.3990 C.2   371  VAL371      0.2260
    144  O         26.5100  -26.3800    5.3150 O.2   371  VAL371     -0.2867
    145  CB        29.6120  -27.0220    4.7880 C.3   371  VAL371      0.0252
    146  CG1       28.9230  -26.2760    3.6820 C.3   371  VAL371      0.0019
    147  CG2       30.7650  -26.2020    5.3640 C.3   371  VAL371      0.0019
    148  N         24.4090  -26.0080    7.3960 N.3   374  LEU374     -0.1231
    149  CA        24.3270  -24.5400    7.2840 C.3   374  LEU374      0.1693
    150  C         23.8520  -24.0630    5.9010 C.2   374  LEU374      0.2592
    151  O         22.8970  -23.2920    5.7890 O.2   374  LEU374     -0.2718
    152  CB        25.6800  -23.8860    7.6130 C.3   374  LEU374      0.0284
    153  CG        26.1630  -23.9340    9.0660 C.3   374  LEU374      0.0019
    154  CD1       27.6640  -23.7140    9.1410 C.3   374  LEU374      0.0001
    155  CD2       25.4320  -22.9200    9.9150 C.3   374  LEU374      0.0001
    156  N         24.5280  -24.5260    4.8530 N.am  375  ALA375     -0.1966
    157  CA        24.2150  -24.1010    3.5010 C.3   375  ALA375      0.1728
    158  C         22.7570  -24.4160    3.1440 C.2   375  ALA375      0.2616
    159  O         22.1470  -25.3210    3.7200 O.2   375  ALA375     -0.2715
    160  CB        25.1560  -24.7390    2.5280 C.3   375  ALA375      0.0334
    161  N         22.2050  -23.6460    2.2070 N.am  376  ASP376     -0.1957
    162  CA        20.8290  -23.8010    1.7480 C.3   376  ASP376      0.1840
    163  C         19.8330  -23.8030    2.9130 C.2   376  ASP376      0.2623
    164  O         18.7120  -24.2790    2.7820 O.2   376  ASP376     -0.2715
    165  CB        20.6790  -25.0400    0.8480 C.3   376  ASP376      0.1450
    166  CG        21.1970  -24.8120   -0.6040 C.2   376  ASP376      0.3671
    167  OD1       21.3610  -23.6460   -1.0650 O.co2 376  ASP376     -0.2456
    168  OD2       21.4330  -25.8370   -1.2980 O.co2 376  ASP376     -0.2456
    169  N         20.2510  -23.2380    4.0440 N.am  377  GLY377     -0.1940
    170  CA        19.3890  -23.0930    5.2130 C.3   377  GLY377      0.1998
    171  C         19.7800  -24.0030    6.3690 C.2   377  GLY377      0.2480
    172  O         19.8730  -25.2370    6.2000 O.2   377  GLY377     -0.2729
    173  N         20.0120  -23.4100    7.5560 N.am  378  PRO378     -0.2726
    174  CA        20.4790  -24.1550    8.7160 C.3   378  PRO378      0.1402
    175  C         19.3830  -25.0430    9.2990 C.2   378  PRO378      0.2269
    176  O         18.2080  -24.7110    9.1750 O.2   378  PRO378     -0.2865
    177  CB        20.8560  -23.0460    9.7130 C.3   378  PRO378      0.0296
    178  CG        20.9570  -21.8040    8.9050 C.3   378  PRO378      0.0237
    179  CD        19.9170  -21.9740    7.8610 C.3   378  PRO378      0.0939
    180  N         18.1000  -25.7220   12.1790 N.3   380  GLU380     -0.1231
    181  CA        17.1710  -25.0780   13.0760 C.3   380  GLU380      0.1699
    182  C         16.0130  -24.3520   12.3450 C.2   380  GLU380      0.2592
    183  O         14.8580  -24.4010   12.7990 O.2   380  GLU380     -0.2718
    184  CB        17.9440  -24.1330   13.9970 C.3   380  GLU380      0.0402
    185  CG        18.9190  -24.8400   14.9210 C.3   380  GLU380      0.1161
    186  CD        20.1130  -25.4710   14.2070 C.2   380  GLU380      0.3649
    187  OE1       20.6870  -24.8630   13.2840 O.co2 380  GLU380     -0.2457
    188  OE2       20.5060  -26.5840   14.5850 O.co2 380  GLU380     -0.2457
    189  N         16.3250  -23.7080   11.2180 N.am  381  VAL381     -0.1980
    190  CA        15.3370  -22.9700   10.4400 C.3   381  VAL381      0.1595
    191  C         14.3420  -23.9160    9.7530 C.2   381  VAL381      0.2287
    192  O         13.1320  -23.6510    9.6940 O.2   381  VAL381     -0.2864
    193  CB        16.0090  -22.0410    9.4000 C.3   381  VAL381      0.0276
    194  CG1       14.9560  -21.3520    8.5430 C.3   381  VAL381      0.0022
    195  CG2       16.8640  -20.9890   10.0880 C.3   381  VAL381      0.0022
    196  N         11.9140  -25.4430   12.4310 N.3   384  SER384     -0.1217
    197  CA        10.8170  -24.5150   12.7030 C.3   384  SER384      0.1889
    198  C          9.7150  -24.5420   11.6570 C.2   384  SER384      0.2288
    199  O          8.5330  -24.5140   12.0050 O.2   384  SER384     -0.2866
    200  CB        11.3420  -23.0990   12.8480 C.3   384  SER384      0.2089
    201  OG        11.8460  -22.9110   14.1460 O.3   384  SER384     -0.2183
@<TRIPOS>BOND
     1     4     3    2
     2     3     2    1
     3     7     6    1
     4     7     1    1
     5     6     5    1
     6     1     2    1
     7     2     5    1
     8   139   138    1
     9   134   131    1
    10   134   135    1
    11     8     9    1
    12   136   135    1
    13   136   137    1
    14   131   130    1
    15   131   132    1
    16   110   109    2
    17     9    12    1
    18     9    10    1
    19   138   137    2
    20   138   140    1
    21    14    16   ar
    22    14    13   ar
    23    12    13    1
    24   133   132    2
    25   109   108    1
    26    24    23    1
    27    16    18   ar
    28    13    15   ar
    29    10    19   am
    30    10    11    2
    31    19    20    1
    32    23    20    1
    33    18    17   ar
    34    15    17   ar
    35   108   111    1
    36   108   107    1
    37    20    21    1
    38   104   103    2
    39   105   106    1
    40   105   102    1
    41   111   112    1
    42   107   103   am
    43    22    21    2
    44   103   102    1
    45    21    25   am
    46   102   101    1
    47   120   121    1
    48    25    26    1
    49   101    89   am
    50   121   122    1
    51   121   124    1
    52   122   123    2
    53    26    29    1
    54    26    27    1
    55   168   166   ar
    56   128   126   ar
    57   128   129   ar
    58    29    30    1
    59   126   125   ar
    60   167   166   ar
    61    90    89    2
    62   129   127   ar
    63    31    30    1
    64    31    32    1
    65    89    88    1
    66   125   127   ar
    67   125   124    1
    68   166   165    1
    69    27    28    2
    70    27    33   am
    71    88    87    1
    72    88    91    1
    73    33    34    1
    74    73    74    1
    75   165   162    1
    76    76    75    2
    77    87    75   am
    78    75    74    1
    79    74    77    1
    80    36    35    2
    81    48    46   ar
    82    91    92    1
    83   162   161    1
    84   162   163    1
    85    34    35    1
    86    34    37    1
    87    35    40   am
    88   161   158   am
    89    77    78    1
    90    38    37    1
    91    45    46    1
    92    45    44    1
    93    46    47   ar
    94    37    39    1
    95   160   157    1
    96    97    94   ar
    97    97    99   ar
    98   164   163    2
    99   163   169   am
   100    92    94   ar
   101    92    93   ar
   102   158   157    1
   103   158   159    2
   104    40    41    1
   105    94    96   ar
   106    99   100   ar
   107   157   156    1
   108    78    79   ar
   109    78    80   ar
   110    41    44    1
   111    41    42    1
   112   146   145    1
   113    79    81   ar
   114   169   170    1
   115    93    95   ar
   116   119   117    1
   117    96    95   ar
   118    96    98   ar
   119   100    98   ar
   120    80    83   ar
   121    80    82   ar
   122   145   147    1
   123   145   142    1
   124   117   118    1
   125   117   114    1
   126   156   150   am
   127   113   114    1
   128    42    43    2
   129    83    85   ar
   130    81    82   ar
   131   170   171    1
   132    64    63    2
   133   144   143    2
   134    65    66    1
   135    65    62    1
   136   143   142    1
   137   114   115    1
   138    82    84   ar
   139   116   115    2
   140   151   150    2
   141   142   141    1
   142   150   149    1
   143   172   171    2
   144    63    62    1
   145    63    67   am
   146   171   173   am
   147    85    86   ar
   148    62    61    1
   149    55    53    1
   150    84    86   ar
   151    70    69    2
   152   149   148    1
   153   149   152    1
   154    67    68    1
   155    68    69    1
   156    68    71    1
   157   173   179    1
   158   173   174    1
   159   152   153    1
   160    61    58   am
   161   179   178    1
   162    52    51    2
   163    53    54    1
   164    53    50    1
   165    49    50    1
   166   194   193    1
   167    59    58    2
   168    58    57    1
   169    71    72    1
   170   174   175    1
   171   174   177    1
   172    51    50    1
   173    51    56   am
   174   178   177    1
   175   153   154    1
   176   153   155    1
   177   176   175    2
   178   193   195    1
   179   193   190    1
   180   192   191    2
   181   191   190    1
   182    56    57    1
   183    57    60    1
   184   190   189    1
   185   189   182   am
   186   198   199    2
   187   198   197    1
   188   180   181    1
   189   182   183    2
   190   182   181    1
   191   196   197    1
   192   197   200    1
   193   200   201    1
   194   181   184    1
   195   187   186   ar
   196   184   185    1
   197   186   188   ar
   198   186   185    1
