@<TRIPOS>MOLECULE
tmp/2wbiB00.pdb
 126 121 0 0 0
SMALL
GASTEIGER

@<TRIPOS>ATOM
      1  N         38.5560  -51.0200    6.1680 N.3   275  ARG275     -0.1245
      2  CA        39.4940  -50.7240    7.2330 C.3   275  ARG275      0.1563
      3  C         39.3270  -51.6550    8.4480 C.2   275  ARG275      0.2260
      4  O         40.3210  -52.2160    8.9470 O.2   275  ARG275     -0.2867
      5  CB        39.3580  -49.2690    7.6530 C.3   275  ARG275      0.0307
      6  CG        40.3670  -48.8260    8.6590 C.3   275  ARG275      0.0489
      7  CD        41.6590  -48.4730    8.0050 C.3   275  ARG275      0.2205
      8  NE        42.6260  -48.0530    9.0070 N.pl3 275  ARG275     -0.0865
      9  CZ        43.8290  -47.5600    8.7420 C.cat 275  ARG275      0.5346
     10  NH1       44.2780  -47.4270    7.5680 N.pl3 275  ARG275      0.1354
     11  NH2       44.6270  -47.1790    9.6530 N.pl3 275  ARG275      0.1354
     12  N         42.7270  -54.3010    9.9730 N.3   279  ARG279     -0.1245
     13  CA        43.5090  -53.9880   11.1610 C.3   279  ARG279      0.1563
     14  C         43.2270  -54.9310   12.3150 C.2   279  ARG279      0.2260
     15  O         42.0690  -55.1010   12.7010 O.2   279  ARG279     -0.2867
     16  CB        43.2240  -52.5680   11.5950 C.3   279  ARG279      0.0307
     17  CG        43.4340  -51.5730   10.5150 C.3   279  ARG279      0.0489
     18  CD        44.8880  -51.2730   10.3530 C.3   279  ARG279      0.2205
     19  NE        45.2750  -50.2120   11.2580 N.pl3 279  ARG279     -0.0865
     20  CZ        46.3630  -49.4620   11.1330 C.cat 279  ARG279      0.5346
     21  NH1       47.1960  -49.6570   10.1270 N.pl3 279  ARG279      0.1354
     22  NH2       46.6080  -48.5080   12.0270 N.pl3 279  ARG279      0.1354
     23  N         43.7190  -55.3320   16.2800 N.3   281  ALA281     -0.1231
     24  CA        44.0200  -54.7160   17.5800 C.3   281  ALA281      0.1694
     25  C         43.4470  -55.5940   18.6920 C.2   281  ALA281      0.2592
     26  O         42.2940  -56.0600   18.6020 O.2   281  ALA281     -0.2718
     27  CB        43.4640  -53.3120   17.6550 C.3   281  ALA281      0.0304
     28  N         44.2730  -55.8150   19.7150 N.am  282  PHE282     -0.1976
     29  CA        43.9820  -56.6840   20.8380 C.3   282  PHE282      0.1639
     30  C         43.5750  -58.0870   20.4120 C.2   282  PHE282      0.2290
     31  O         42.6330  -58.6680   20.9590 O.2   282  PHE282     -0.2864
     32  CB        42.9710  -56.0270   21.7710 C.3   282  PHE282      0.0560
     33  CG        43.3890  -54.6700   22.2210 C.ar  282  PHE282     -0.0200
     34  CD1       44.3490  -54.5110   23.2210 C.ar  282  PHE282     -0.0042
     35  CD2       42.8530  -53.5330   21.6290 C.ar  282  PHE282     -0.0042
     36  CE1       44.7570  -53.2390   23.6370 C.ar  282  PHE282     -0.0003
     37  CE2       43.2550  -52.2510   22.0280 C.ar  282  PHE282     -0.0003
     38  CZ        44.2070  -52.1030   23.0380 C.ar  282  PHE282     -0.0000
     39  N         39.2100  -55.4250   13.8030 N.3   286  LEU286     -0.1245
     40  CA        38.4030  -54.3720   14.4420 C.3   286  LEU286      0.1561
     41  C         36.8940  -54.5730   14.3600 C.2   286  LEU286      0.2260
     42  O         36.1810  -54.1810   15.2790 O.2   286  LEU286     -0.2867
     43  CB        38.7530  -52.9770   13.9180 C.3   286  LEU286      0.0270
     44  CG        40.1630  -52.4030   14.0950 C.3   286  LEU286      0.0019
     45  CD1       40.2870  -51.2030   13.2300 C.3   286  LEU286      0.0001
     46  CD2       40.4950  -52.0300   15.5260 C.3   286  LEU286      0.0001
     47  N         35.4090  -56.2440   17.3900 N.3   289  HIS289     -0.1241
     48  CA        35.1500  -55.4310   18.5590 C.3   289  HIS289      0.1621
     49  C         33.7220  -54.8770   18.4390 C.2   289  HIS289      0.2264
     50  O         33.4580  -54.0160   17.6040 O.2   289  HIS289     -0.2867
     51  CB        36.1930  -54.3040   18.6790 C.3   289  HIS289      0.0745
     52  CG        37.5510  -54.7660   19.1350 C.ar  289  HIS289      0.0817
     53  ND1       37.8070  -55.1830   20.4240 N.ar  289  HIS289     -0.2268
     54  CD2       38.7300  -54.8770   18.4690 C.ar  289  HIS289      0.1154
     55  CE1       39.0770  -55.5440   20.5290 C.ar  289  HIS289      0.1986
     56  NE2       39.6590  -55.3670   19.3570 N.ar  289  HIS289     -0.2212
     57  N         31.7010  -52.8570   19.4560 N.3   291  VAL291     -0.1231
     58  CA        31.3710  -51.4310   19.3840 C.3   291  VAL291      0.1692
     59  C         31.5380  -50.9310   17.9480 C.2   291  VAL291      0.2591
     60  O         30.7050  -50.1640   17.4370 O.2   291  VAL291     -0.2718
     61  CB        32.2070  -50.6330   20.3950 C.3   291  VAL291      0.0266
     62  CG1       32.2420  -49.1870   20.0620 C.3   291  VAL291      0.0020
     63  CG2       31.6480  -50.8280   21.7710 C.3   291  VAL291      0.0020
     64  N         32.5970  -51.3960   17.2930 N.am  292  VAL292     -0.1980
     65  CA        32.8310  -51.0560   15.9030 C.3   292  VAL292      0.1595
     66  C         31.7570  -51.6910   15.0290 C.2   292  VAL292      0.2287
     67  O         31.1930  -51.0240   14.1700 O.2   292  VAL292     -0.2864
     68  CB        34.2430  -51.4730   15.4380 C.3   292  VAL292      0.0276
     69  CG1       34.4180  -51.2240   13.9570 C.3   292  VAL292      0.0022
     70  CG2       35.2770  -50.6850   16.1690 C.3   292  VAL292      0.0022
     71  N         28.6670  -49.7400   14.9550 N.3   295  TRP295     -0.1241
     72  CA        28.7180  -48.5090   14.1420 C.3   295  TRP295      0.1605
     73  C         28.4660  -48.8020   12.6740 C.2   295  TRP295      0.2264
     74  O         27.8210  -48.0130   11.9750 O.2   295  TRP295     -0.2867
     75  CB        30.0470  -47.7690   14.2270 C.3   295  TRP295      0.0550
     76  CG        30.4660  -47.2800   15.5710 C.ar  295  TRP295      0.0003
     77  CD1       29.6680  -46.9640   16.6270 C.ar  295  TRP295      0.0946
     78  CD2       31.8150  -47.0200   15.9950 C.ar  295  TRP295      0.0152
     79  NE1       30.4340  -46.5670   17.7000 N.ar  295  TRP295     -0.2442
     80  CE2       31.7540  -46.5820   17.3380 C.ar  295  TRP295      0.0810
     81  CE3       33.0750  -47.1260   15.3680 C.ar  295  TRP295      0.0012
     82  CZ2       32.9030  -46.2410   18.0710 C.ar  295  TRP295      0.0191
     83  CZ3       34.2070  -46.7930   16.0920 C.ar  295  TRP295      0.0001
     84  CH2       34.1140  -46.3560   17.4390 C.ar  295  TRP295      0.0015
     85  N         37.0180  -42.3200   13.0450 N.3   349  GLN349     -0.1231
     86  CA        37.4050  -42.9570   14.2860 C.3   349  GLN349      0.1698
     87  C         37.9460  -44.3530   14.0480 C.2   349  GLN349      0.2592
     88  O         38.9010  -44.7630   14.7200 O.2   349  GLN349     -0.2718
     89  CB        36.2030  -43.0300   15.2210 C.3   349  GLN349      0.0381
     90  CG        36.5240  -43.3340   16.6730 C.3   349  GLN349      0.0905
     91  CD        37.4110  -42.2670   17.3350 C.2   349  GLN349      0.2608
     92  OE1       37.4780  -41.1090   16.9130 O.2   349  GLN349     -0.2717
     93  NE2       38.1010  -42.6750   18.3730 N.am  349  GLN349     -0.0878
     94  N         37.3430  -45.0820   13.1040 N.am  350  VAL350     -0.1966
     95  CA        37.7560  -46.4480   12.7940 C.3   350  VAL350      0.1727
     96  C         39.1320  -46.4170   12.1340 C.2   350  VAL350      0.2616
     97  O         39.9670  -47.3200   12.3350 O.2   350  VAL350     -0.2715
     98  CB        36.7140  -47.1650   11.9160 C.3   350  VAL350      0.0290
     99  CG1       37.2640  -48.4340   11.3270 C.3   350  VAL350      0.0023
    100  CG2       35.4840  -47.4620   12.7170 C.3   350  VAL350      0.0023
    101  N         39.3860  -45.3510   11.3830 N.am  351  CYS351     -0.1954
    102  CA        40.6550  -45.2140   10.6640 C.3   351  CYS351      0.1843
    103  C         41.8250  -44.7290   11.5180 C.2   351  CYS351      0.2626
    104  O         42.9420  -44.6440   11.0290 O.2   351  CYS351     -0.2714
    105  CB        40.4990  -44.3150    9.4360 C.3   351  CYS351      0.0997
    106  SG        39.6890  -45.1140    8.0600 S.3   351  CYS351     -0.0797
    107  N         41.5800  -44.4090   12.7800 N.am  352  GLY352     -0.1940
    108  CA        42.6420  -43.9130   13.6260 C.3   352  GLY352      0.2014
    109  C         43.0920  -42.5360   13.1960 C.2   352  GLY352      0.2639
    110  O         42.3230  -41.7650   12.6490 O.2   352  GLY352     -0.2714
    111  N         44.3570  -42.2240   13.4360 N.am  353  GLY353     -0.1939
    112  CA        44.9130  -40.9550   12.9930 C.3   353  GLY353      0.2014
    113  C         44.7730  -40.7250   11.4880 C.2   353  GLY353      0.2638
    114  O         44.6830  -39.5850   11.0220 O.2   353  GLY353     -0.2714
    115  N         44.7580  -41.8110   10.7220 N.am  354  ALA354     -0.1977
    116  CA        44.6730  -41.7190    9.2820 C.3   354  ALA354      0.1597
    117  C         43.3640  -41.0430    8.8660 C.2   354  ALA354      0.2287
    118  O         43.2970  -40.4060    7.8170 O.2   354  ALA354     -0.2864
    119  CB        44.8010  -43.1010    8.6690 C.3   354  ALA354      0.0319
    120  N         41.7950  -38.4170    9.9360 N.3   356  VAL356     -0.1245
    121  CA        41.8350  -36.9620    9.7700 C.3   356  VAL356      0.1561
    122  C         42.8700  -36.5240    8.7570 C.2   356  VAL356      0.2260
    123  O         42.9930  -35.3300    8.5020 O.2   356  VAL356     -0.2867
    124  CB        42.1030  -36.1980   11.0960 C.3   356  VAL356      0.0252
    125  CG1       40.9890  -36.4270   12.0470 C.3   356  VAL356      0.0019
    126  CG2       43.4610  -36.5960   11.7190 C.3   356  VAL356      0.0019
@<TRIPOS>BOND
     1     1     2    1
     2     2     5    1
     3     2     3    1
     4    10     9    1
     5     5     6    1
     6   118   117    2
     7     7     6    1
     8     7     8    1
     9   106   105    1
    10     3     4    2
    11   123   122    2
    12   119   116    1
    13     9     8    2
    14     9    11    1
    15   122   121    1
    16   117   116    1
    17   116   115    1
    18   105   102    1
    19   121   120    1
    20   121   124    1
    21    12    13    1
    22    21    20    1
    23    18    17    1
    24    18    19    1
    25    17    16    1
    26   102   101    1
    27   102   103    1
    28   115   113   am
    29   114   113    2
    30   104   103    2
    31   124   126    1
    32   124   125    1
    33    20    19    2
    34    20    22    1
    35    13    16    1
    36    13    14    1
    37    99    98    1
    38   101    96   am
    39   113   112    1
    40   103   107   am
    41    98   100    1
    42    98    95    1
    43    74    73    2
    44    96    97    2
    45    96    95    1
    46    14    15    2
    47   110   109    2
    48    73    72    1
    49   107   108    1
    50    95    94    1
    51   112   111    1
    52    85    86    1
    53    94    87   am
    54   109   111   am
    55   109   108    1
    56    45    44    1
    57    39    40    1
    58    43    44    1
    59    43    40    1
    60    69    68    1
    61    87    86    1
    62    87    88    2
    63    44    46    1
    64    72    75    1
    65    72    71    1
    66    67    66    2
    67    75    76    1
    68    86    89    1
    69    41    40    1
    70    41    42    2
    71    66    65    1
    72    89    90    1
    73    81    78   ar
    74    81    83   ar
    75    68    65    1
    76    68    70    1
    77    76    78   ar
    78    76    77   ar
    79    65    64    1
    80    78    80   ar
    81    83    84   ar
    82    23    24    1
    83    77    79   ar
    84    90    91    1
    85    92    91    2
    86    64    59   am
    87    91    93   am
    88    80    79   ar
    89    80    82   ar
    90    47    48    1
    91    60    59    2
    92    84    82   ar
    93    24    27    1
    94    24    25    1
    95    50    49    2
    96    59    58    1
    97    49    48    1
    98    54    52   ar
    99    54    56   ar
   100    48    51    1
   101    26    25    2
   102    51    52    1
   103    25    28   am
   104    52    53   ar
   105    56    55   ar
   106    58    57    1
   107    58    61    1
   108    28    29    1
   109    62    61    1
   110    61    63    1
   111    30    29    1
   112    30    31    2
   113    53    55   ar
   114    29    32    1
   115    35    37   ar
   116    35    33   ar
   117    32    33    1
   118    37    38   ar
   119    33    34   ar
   120    38    36   ar
   121    34    36   ar
