@<TRIPOS>MOLECULE
tmp/2wbkA00.pdb
 181 185 0 0 0
SMALL
GASTEIGER

@<TRIPOS>ATOM
      1  N        -36.0040   -6.2420    2.6220 N.3   151  ASN151     -0.1240
      2  CA       -35.0250   -5.5210    1.8160 C.3   151  ASN151      0.1653
      3  C        -35.6490   -4.6960    0.6940 C.2   151  ASN151      0.2266
      4  O        -34.9740   -3.8640    0.0850 O.2   151  ASN151     -0.2867
      5  CB       -33.9570   -6.4780    1.2560 C.3   151  ASN151      0.1155
      6  CG       -32.9820   -6.9490    2.3290 C.2   151  ASN151      0.2627
      7  OD1      -32.1710   -6.1480    2.8360 O.2   151  ASN151     -0.2716
      8  ND2      -33.1000   -8.2440    2.7380 N.am  151  ASN151     -0.0877
      9  N        -31.5630   -2.8040   -0.6910 N.3   171  TRP171     -0.1227
     10  CA       -31.0380   -3.9680    0.0530 C.3   171  TRP171      0.1737
     11  C        -30.3110   -3.4150    1.2810 C.2   171  TRP171      0.2595
     12  O        -30.1720   -2.1750    1.4220 O.2   171  TRP171     -0.2718
     13  CB       -30.1120   -4.8670   -0.8050 C.3   171  TRP171      0.0564
     14  CG       -30.2540   -6.2990   -0.3960 C.ar  171  TRP171      0.0003
     15  CD1      -29.4680   -6.9790    0.4860 C.ar  171  TRP171      0.0946
     16  CD2      -31.2630   -7.2380   -0.8340 C.ar  171  TRP171      0.0152
     17  NE1      -29.9480   -8.2400    0.6770 N.ar  171  TRP171     -0.2442
     18  CE2      -31.0320   -8.4400   -0.1480 C.ar  171  TRP171      0.0810
     19  CE3      -32.3400   -7.1660   -1.7250 C.ar  171  TRP171      0.0012
     20  CZ2      -31.8560   -9.5830   -0.3130 C.ar  171  TRP171      0.0191
     21  CZ3      -33.1680   -8.3140   -1.8940 C.ar  171  TRP171      0.0001
     22  CH2      -32.9100   -9.4890   -1.2040 C.ar  171  TRP171      0.0015
     23  N        -29.8360   -4.2960    2.1730 N.am  172  ASP172     -0.1960
     24  CA       -29.2000   -3.7830    3.4120 C.3   172  ASP172      0.1840
     25  C        -27.7700   -3.2970    3.2290 C.2   172  ASP172      0.2622
     26  O        -27.0640   -3.0900    4.2150 O.2   172  ASP172     -0.2715
     27  CB       -29.2660   -4.8300    4.5720 C.3   172  ASP172      0.1450
     28  CG       -28.5180   -6.1570    4.2430 C.2   172  ASP172      0.3671
     29  OD1      -27.8400   -6.2760    3.1780 O.co2 172  ASP172     -0.2456
     30  OD2      -28.5800   -7.0820    5.1070 O.co2 172  ASP172     -0.2456
     31  N        -27.2970   -3.2350    2.0030 N.am  173  TRP173     -0.1974
     32  CA       -26.0470   -2.5320    1.6750 C.3   173  TRP173      0.1640
     33  C        -26.3840   -1.7360    0.4240 C.2   173  TRP173      0.2290
     34  O        -25.4830   -1.2470   -0.2960 O.2   173  TRP173     -0.2864
     35  CB       -24.9080   -3.5390    1.3490 C.3   173  TRP173      0.0576
     36  CG       -25.4170   -4.7940    0.6570 C.ar  173  TRP173      0.0006
     37  CD1      -25.5320   -6.0390    1.2110 C.ar  173  TRP173      0.0946
     38  CD2      -25.9000   -4.9120   -0.7070 C.ar  173  TRP173      0.0152
     39  NE1      -26.0650   -6.9070    0.2960 N.ar  173  TRP173     -0.2442
     40  CE2      -26.3040   -6.2510   -0.8840 C.ar  173  TRP173      0.0810
     41  CE3      -26.0510   -4.0010   -1.7790 C.ar  173  TRP173      0.0012
     42  CZ2      -26.8520   -6.7440   -2.1170 C.ar  173  TRP173      0.0191
     43  CZ3      -26.5930   -4.4780   -3.0100 C.ar  173  TRP173      0.0001
     44  CH2      -26.9890   -5.8550   -3.1460 C.ar  173  TRP173      0.0015
     45  N        -25.0410  -14.3420   -6.2530 N.3   368  TRP368     -0.1241
     46  CA       -26.1370  -14.3760   -5.2770 C.3   368  TRP368      0.1605
     47  C        -27.4550  -13.9140   -5.9080 C.2   368  TRP368      0.2264
     48  O        -27.4610  -12.9800   -6.7630 O.2   368  TRP368     -0.2867
     49  CB       -25.7240  -13.5130   -4.0480 C.3   368  TRP368      0.0550
     50  CG       -26.7880  -12.9900   -3.1680 C.ar  368  TRP368      0.0003
     51  CD1      -27.3330  -13.6170   -2.0880 C.ar  368  TRP368      0.0946
     52  CD2      -27.3720  -11.6510   -3.1970 C.ar  368  TRP368      0.0152
     53  NE1      -28.2560  -12.7850   -1.4740 N.ar  368  TRP368     -0.2442
     54  CE2      -28.2990  -11.5840   -2.1370 C.ar  368  TRP368      0.0810
     55  CE3      -27.2590  -10.5590   -4.0680 C.ar  368  TRP368      0.0012
     56  CZ2      -29.0930  -10.4470   -1.8990 C.ar  368  TRP368      0.0191
     57  CZ3      -28.0500   -9.4290   -3.8380 C.ar  368  TRP368      0.0001
     58  CH2      -28.9580   -9.3950   -2.7500 C.ar  368  TRP368      0.0015
     59  N        -34.2830  -14.1800    0.0250 N.3   397  CYS397     -0.1235
     60  CA       -34.6460  -13.6470    1.3480 C.3   397  CYS397      0.1677
     61  C        -36.1330  -13.4600    1.6650 C.2   397  CYS397      0.2270
     62  O        -36.4860  -12.9110    2.7080 O.2   397  CYS397     -0.2867
     63  CB       -33.8600  -12.3380    1.5960 C.3   397  CYS397      0.0956
     64  SG       -32.0960  -12.7020    1.5660 S.3   397  CYS397     -0.0801
     65  N        -31.6020  -17.9150   -2.4320 N.3   434  ASN434     -0.1225
     66  CA       -30.8470  -17.5970   -1.2390 C.3   434  ASN434      0.1785
     67  C        -31.7360  -17.4590    0.0240 C.2   434  ASN434      0.2597
     68  O        -32.5500  -16.5070    0.1490 O.2   434  ASN434     -0.2718
     69  CB       -30.0490  -16.2850   -1.4410 C.3   434  ASN434      0.1169
     70  CG       -29.2670  -15.8660   -0.1690 C.2   434  ASN434      0.2627
     71  OD1      -28.1850  -16.3990    0.1190 O.2   434  ASN434     -0.2716
     72  ND2      -29.8230  -14.9090    0.5970 N.am  434  ASN434     -0.0877
     73  N        -31.5650  -18.4090    0.9430 N.am  435  GLU435     -0.1979
     74  CA       -32.0780  -18.2910    2.3200 C.3   435  GLU435      0.1602
     75  C        -33.5900  -18.3820    2.4360 C.2   435  GLU435      0.2287
     76  O        -34.1440  -18.0440    3.4810 O.2   435  GLU435     -0.2864
     77  CB       -31.5700  -16.9770    2.9610 C.3   435  GLU435      0.0415
     78  CG       -30.0450  -17.0530    3.3310 C.3   435  GLU435      0.1163
     79  CD       -29.4850  -15.8690    4.1100 C.2   435  GLU435      0.3649
     80  OE1      -30.2220  -14.9070    4.3190 O.co2 435  GLU435     -0.2457
     81  OE2      -28.2860  -15.8830    4.4980 O.co2 435  GLU435     -0.2457
     82  N        -34.7160  -21.0210    4.8360 N.3   438  GLU438     -0.1245
     83  CA       -34.3510  -20.4960    6.1500 C.3   438  GLU438      0.1567
     84  C        -35.3330  -19.4580    6.6980 C.2   438  GLU438      0.2260
     85  O        -35.7720  -19.5310    7.8920 O.2   438  GLU438     -0.2867
     86  CB       -32.9220  -19.9950    6.2040 C.3   438  GLU438      0.0388
     87  CG       -32.5300  -19.4190    7.5550 C.3   438  GLU438      0.1160
     88  CD       -31.0350  -19.3380    7.7450 C.2   438  GLU438      0.3649
     89  OE1      -30.3320  -19.0100    6.7910 O.co2 438  GLU438     -0.2457
     90  OE2      -30.5450  -19.6270    8.8490 O.co2 438  GLU438     -0.2457
     91  N        -37.3080  -17.2710   10.5580 N.3   443  TRP443     -0.1241
     92  CA       -37.2650  -15.8250   10.7080 C.3   443  TRP443      0.1605
     93  C        -38.5300  -15.2380   11.3350 C.2   443  TRP443      0.2264
     94  O        -38.6690  -14.0130   11.3960 O.2   443  TRP443     -0.2867
     95  CB       -36.9150  -15.1220    9.3920 C.3   443  TRP443      0.0550
     96  CG       -35.5170  -15.3710    8.9000 C.ar  443  TRP443      0.0003
     97  CD1      -34.5530  -16.1610    9.4850 C.ar  443  TRP443      0.0946
     98  CD2      -34.9420  -14.8790    7.6760 C.ar  443  TRP443      0.0152
     99  NE1      -33.4060  -16.1700    8.7010 N.ar  443  TRP443     -0.2442
    100  CE2      -33.6120  -15.3780    7.6000 C.ar  443  TRP443      0.0810
    101  CE3      -35.4160  -14.0520    6.6410 C.ar  443  TRP443      0.0012
    102  CZ2      -32.7620  -15.0870    6.5240 C.ar  443  TRP443      0.0191
    103  CZ3      -34.5640  -13.7570    5.5770 C.ar  443  TRP443      0.0001
    104  CH2      -33.2610  -14.2660    5.5250 C.ar  443  TRP443      0.0015
    105  N        -27.5700  -21.4170   11.4300 N.3   492  TRP492     -0.1241
    106  CA       -26.5050  -21.0190   12.3150 C.3   492  TRP492      0.1605
    107  C        -26.9010  -21.0690   13.7880 C.2   492  TRP492      0.2264
    108  O        -26.0240  -21.1020   14.6400 O.2   492  TRP492     -0.2867
    109  CB       -25.9570  -19.6240   11.9700 C.3   492  TRP492      0.0550
    110  CG       -26.8810  -18.4690   12.1520 C.ar  492  TRP492      0.0003
    111  CD1      -27.6510  -17.8500   11.1710 C.ar  492  TRP492      0.0946
    112  CD2      -27.1380  -17.7280   13.3720 C.ar  492  TRP492      0.0152
    113  NE1      -28.3560  -16.7970   11.7150 N.ar  492  TRP492     -0.2442
    114  CE2      -28.0590  -16.6960   13.0520 C.ar  492  TRP492      0.0810
    115  CE3      -26.6610  -17.8220   14.6910 C.ar  492  TRP492      0.0012
    116  CZ2      -28.5220  -15.7840   14.0110 C.ar  492  TRP492      0.0191
    117  CZ3      -27.1450  -16.9380   15.6410 C.ar  492  TRP492      0.0001
    118  CH2      -28.0640  -15.9270   15.2970 C.ar  492  TRP492      0.0015
    119  N        -24.2200  -16.8870   10.2640 N.3   506  TRP506     -0.1241
    120  CA       -24.4230  -15.4960   10.5880 C.3   506  TRP506      0.1605
    121  C        -24.4230  -15.2890   12.1120 C.2   506  TRP506      0.2264
    122  O        -24.8360  -14.2540   12.6090 O.2   506  TRP506     -0.2867
    123  CB       -25.6770  -14.9230    9.8720 C.3   506  TRP506      0.0550
    124  CG       -25.3960  -14.5540    8.4580 C.ar  506  TRP506      0.0003
    125  CD1      -25.9120  -15.1500    7.3240 C.ar  506  TRP506      0.0946
    126  CD2      -24.4840  -13.5340    7.9900 C.ar  506  TRP506      0.0152
    127  NE1      -25.3950  -14.5380    6.1830 N.ar  506  TRP506     -0.2442
    128  CE2      -24.5300  -13.5440    6.5630 C.ar  506  TRP506      0.0810
    129  CE3      -23.6830  -12.5850    8.6280 C.ar  506  TRP506      0.0012
    130  CZ2      -23.7990  -12.6600    5.7850 C.ar  506  TRP506      0.0191
    131  CZ3      -22.9300  -11.6880    7.8310 C.ar  506  TRP506      0.0001
    132  CH2      -23.0090  -11.7330    6.4360 C.ar  506  TRP506      0.0015
    133  N        -24.8680  -11.2690   12.9730 N.3   510  TYR510     -0.1241
    134  CA       -26.2540  -11.3410   13.4760 C.3   510  TYR510      0.1605
    135  C        -26.3360  -11.9390   14.8990 C.2   510  TYR510      0.2264
    136  O        -27.0930  -11.4650   15.7360 O.2   510  TYR510     -0.2867
    137  CB       -27.1540  -12.1260   12.4990 C.3   510  TYR510      0.0534
    138  CG       -27.5350  -11.3260   11.2800 C.ar  510  TYR510     -0.0201
    139  CD1      -28.6620  -10.4930   11.2850 C.ar  510  TYR510     -0.0009
    140  CD2      -26.7650  -11.3900   10.1230 C.ar  510  TYR510     -0.0009
    141  CE1      -29.0140   -9.7590   10.1340 C.ar  510  TYR510      0.0417
    142  CE2      -27.0860  -10.6480    8.9850 C.ar  510  TYR510      0.0417
    143  CZ       -28.1960   -9.8570    8.9770 C.ar  510  TYR510      0.1957
    144  OH       -28.4910   -9.1570    7.8240 O.3   510  TYR510     -0.2866
    145  N        -21.8480  -18.7680    3.2000 N.3   528  GLN528     -0.1245
    146  CA       -21.7260  -17.3570    3.5900 C.3   528  GLN528      0.1566
    147  C        -21.2700  -17.1930    5.0350 C.2   528  GLN528      0.2260
    148  O        -21.7160  -17.9210    5.9720 O.2   528  GLN528     -0.2867
    149  CB       -23.0550  -16.5890    3.4460 C.3   528  GLN528      0.0367
    150  CG       -23.6650  -16.3910    2.0560 C.3   528  GLN528      0.0905
    151  CD       -24.9030  -15.4920    2.1160 C.2   528  GLN528      0.2608
    152  OE1      -25.3340  -15.0700    3.2060 O.2   528  GLN528     -0.2717
    153  NE2      -25.5200  -15.2480    0.9640 N.am  528  GLN528     -0.0878
    154  N        -19.2650  -13.3520    2.6440 N.3   618  TRP618     -0.1241
    155  CA       -20.2030  -12.3590    2.2030 C.3   618  TRP618      0.1605
    156  C        -19.5080  -11.0610    2.6030 C.2   618  TRP618      0.2264
    157  O        -19.3100  -10.8760    3.7940 O.2   618  TRP618     -0.2867
    158  CB       -21.5310  -12.4590    2.9750 C.3   618  TRP618      0.0550
    159  CG       -22.4480  -11.3650    2.4840 C.ar  618  TRP618      0.0003
    160  CD1      -22.5410  -10.0970    2.9630 C.ar  618  TRP618      0.0946
    161  CD2      -23.2800  -11.4160    1.3280 C.ar  618  TRP618      0.0152
    162  NE1      -23.3990   -9.3580    2.1890 N.ar  618  TRP618     -0.2442
    163  CE2      -23.8710  -10.1500    1.1810 C.ar  618  TRP618      0.0810
    164  CE3      -23.5850  -12.4230    0.4040 C.ar  618  TRP618      0.0012
    165  CZ2      -24.7490   -9.8520    0.1440 C.ar  618  TRP618      0.0191
    166  CZ3      -24.4300  -12.1390   -0.6260 C.ar  618  TRP618      0.0001
    167  CH2      -25.0060  -10.8610   -0.7520 C.ar  618  TRP618      0.0015
    168  N        -20.4530   -5.3160    3.9340 N.3   629  TRP629     -0.1241
    169  CA       -19.6170   -6.4680    4.2580 C.3   629  TRP629      0.1605
    170  C        -18.5300   -6.7450    3.2030 C.2   629  TRP629      0.2264
    171  O        -17.8260   -7.7320    3.2860 O.2   629  TRP629     -0.2867
    172  CB       -20.4870   -7.6930    4.4030 C.3   629  TRP629      0.0550
    173  CG       -21.5370   -7.5640    5.5040 C.ar  629  TRP629      0.0003
    174  CD1      -21.5020   -8.1730    6.7400 C.ar  629  TRP629      0.0946
    175  CD2      -22.8140   -6.8720    5.4340 C.ar  629  TRP629      0.0152
    176  NE1      -22.6500   -7.8630    7.4480 N.ar  629  TRP629     -0.2442
    177  CE2      -23.4720   -7.0850    6.6700 C.ar  629  TRP629      0.0810
    178  CE3      -23.4650   -6.1150    4.4510 C.ar  629  TRP629      0.0012
    179  CZ2      -24.7430   -6.5340    6.9530 C.ar  629  TRP629      0.0191
    180  CZ3      -24.7040   -5.5720    4.7270 C.ar  629  TRP629      0.0001
    181  CH2      -25.3430   -5.7970    5.9740 C.ar  629  TRP629      0.0015
@<TRIPOS>BOND
     1    48    47    2
     2    45    46    1
     3    47    46    1
     4    46    49    1
     5    55    57   ar
     6    55    52   ar
     7    49    50    1
     8    57    58   ar
     9    52    50   ar
    10    52    54   ar
    11    50    51   ar
    12    44    43   ar
    13    44    42   ar
    14    43    41   ar
    15    58    56   ar
    16    65    66    1
    17    54    56   ar
    18    54    53   ar
    19    42    40   ar
    20    51    53   ar
    21    21    19   ar
    22    21    22   ar
    23    41    38   ar
    24    19    16   ar
    25    69    66    1
    26    69    70    1
    27    66    67    1
    28    22    20   ar
    29    40    38   ar
    30    40    39   ar
    31    16    14   ar
    32    16    18   ar
    33    13    14    1
    34    13    10    1
    35   167   166   ar
    36   167   165   ar
    37    38    36   ar
    38     9    10    1
    39   166   164   ar
    40    14    15   ar
    41    20    18   ar
    42    34    33    2
    43    70    71    2
    44    70    72   am
    45    18    17   ar
    46    67    68    2
    47    67    73   am
    48    59    60    1
    49    10    11    1
    50     4     3    2
    51   165   163   ar
    52    39    37   ar
    53   164   161   ar
    54    33    32    1
    55    15    17   ar
    56    36    37   ar
    57    36    35    1
    58     3     2    1
    59    73    74    1
    60   153   151   am
    61   163   161   ar
    62   163   162   ar
    63     5     2    1
    64     5     6    1
    65    11    12    2
    66    11    23   am
    67   161   159   ar
    68    60    63    1
    69    60    61    1
    70    35    32    1
    71    64    63    1
    72    61    62    2
    73    32    31    1
    74     2     1    1
    75    31    25   am
    76   150   151    1
    77   150   149    1
    78   151   152    2
    79    23    24    1
    80   162   160   ar
    81   155   156    1
    82   155   154    1
    83   155   158    1
    84    74    75    1
    85    74    77    1
    86     6     8   am
    87     6     7    2
    88    75    76    2
    89   159   160   ar
    90   159   158    1
    91   156   157    2
    92    77    78    1
    93    29    28   ar
    94   145   146    1
    95   170   171    2
    96   170   169    1
    97    25    24    1
    98    25    26    2
    99    78    79    1
   100    24    27    1
   101   149   146    1
   102   146   147    1
   103   168   169    1
   104    79    80   ar
   105    79    81   ar
   106    28    27    1
   107    28    30   ar
   108   169   172    1
   109   172   173    1
   110   178   180   ar
   111   178   175   ar
   112   180   181   ar
   113    82    83    1
   114   147   148    2
   115   175   173   ar
   116   175   177   ar
   117   173   174   ar
   118   104   103   ar
   119   104   102   ar
   120   103   101   ar
   121   130   132   ar
   122   130   128   ar
   123   181   179   ar
   124    83    86    1
   125    83    84    1
   126   127   128   ar
   127   127   125   ar
   128    86    87    1
   129   132   131   ar
   130   102   100   ar
   131   128   126   ar
   132   101    98   ar
   133   177   179   ar
   134   177   176   ar
   135    84    85    2
   136   174   176   ar
   137    89    88   ar
   138   125   124   ar
   139    87    88    1
   140   100    98   ar
   141   100    99   ar
   142    98    96   ar
   143    88    90   ar
   144   144   143    1
   145   131   129   ar
   146   126   124   ar
   147   126   129   ar
   148   124   123    1
   149    99    97   ar
   150    96    95    1
   151    96    97   ar
   152   143   142   ar
   153   143   141   ar
   154   142   140   ar
   155    95    92    1
   156   123   120    1
   157   140   138   ar
   158   141   139   ar
   159   119   120    1
   160    91    92    1
   161   120   121    1
   162    92    93    1
   163   111   113   ar
   164   111   110   ar
   165   138   139   ar
   166   138   137    1
   167    93    94    2
   168   105   106    1
   169   113   114   ar
   170   109   110    1
   171   109   106    1
   172   121   122    2
   173   110   112   ar
   174   106   107    1
   175   137   134    1
   176   133   134    1
   177   114   112   ar
   178   114   116   ar
   179   112   115   ar
   180   134   135    1
   181   107   108    2
   182   116   118   ar
   183   115   117   ar
   184   135   136    2
   185   118   117   ar
