@<TRIPOS>MOLECULE
tmp/2wboA01.pdb
 117 107 0 0 0
SMALL
GASTEIGER

@<TRIPOS>ATOM
      1  N         13.9420   -2.6260   21.1680 N.3   126  VAL126     -0.1245
      2  CA        13.4910   -1.7700   22.2480 C.3   126  VAL126      0.1561
      3  C         13.8220   -2.4840   23.5540 C.2   126  VAL126      0.2260
      4  O         13.3420   -3.5870   23.8030 O.2   126  VAL126     -0.2867
      5  CB        11.9790   -1.5130   22.1490 C.3   126  VAL126      0.0252
      6  CG1       11.4910   -0.6900   23.3230 C.3   126  VAL126      0.0019
      7  CG2       11.6360   -0.8490   20.7880 C.3   126  VAL126      0.0019
      8  N         13.3620    5.1960   22.9750 N.3   138  SER138     -0.1217
      9  CA        12.6270    4.0230   23.4100 C.3   138  SER138      0.1889
     10  C         13.4360    3.1090   24.3280 C.2   138  SER138      0.2288
     11  O         12.8820    2.1610   24.8740 O.2   138  SER138     -0.2866
     12  CB        12.1200    3.2400   22.2100 C.3   138  SER138      0.2089
     13  OG        13.1940    2.8790   21.3600 O.3   138  SER138     -0.2183
     14  N          7.8010    7.2700   28.1360 N.3   145  LEU145     -0.1245
     15  CA         7.9410    7.6290   26.7360 C.3   145  LEU145      0.1561
     16  C          6.6230    8.2740   26.3060 C.2   145  LEU145      0.2260
     17  O          5.5850    7.6030   26.2140 O.2   145  LEU145     -0.2867
     18  CB         8.2730    6.3960   25.8850 C.3   145  LEU145      0.0270
     19  CG         8.6140    6.6760   24.4260 C.3   145  LEU145      0.0019
     20  CD1        9.9550    7.4130   24.3170 C.3   145  LEU145      0.0001
     21  CD2        8.6340    5.3640   23.6290 C.3   145  LEU145      0.0001
     22  N          3.4300    9.6900   20.6730 N.3   148  HIS148     -0.1241
     23  CA         3.9880   10.1950   19.4400 C.3   148  HIS148      0.1621
     24  C          3.5030    9.3830   18.2510 C.2   148  HIS148      0.2264
     25  O          3.2480    8.1860   18.3600 O.2   148  HIS148     -0.2867
     26  CB         5.5240   10.2020   19.4630 C.3   148  HIS148      0.0745
     27  CG         6.1200    8.8550   19.7200 C.ar  148  HIS148      0.0817
     28  ND1        6.2360    8.3230   20.9870 N.ar  148  HIS148     -0.2268
     29  CD2        6.6610    7.9410   18.8750 C.ar  148  HIS148      0.1154
     30  CE1        6.7790    7.1180   20.9060 C.ar  148  HIS148      0.1986
     31  NE2        7.0440    6.8610   19.6340 N.ar  148  HIS148     -0.2212
     32  N          5.2060    7.7810   15.1360 N.3   150  GLU150     -0.1245
     33  CA         6.5630    7.3700   14.8220 C.3   150  GLU150      0.1567
     34  C          7.1280    8.2030   13.6670 C.2   150  GLU150      0.2260
     35  O          6.4620    8.3590   12.6400 O.2   150  GLU150     -0.2867
     36  CB         6.6360    5.8770   14.4880 C.3   150  GLU150      0.0388
     37  CG         8.0210    5.2500   14.6540 C.3   150  GLU150      0.1160
     38  CD         8.3650    4.9490   16.1030 C.2   150  GLU150      0.3649
     39  OE1        7.5050    5.1420   16.9620 O.co2 150  GLU150     -0.2457
     40  OE2        9.5220    4.5290   16.3560 O.co2 150  GLU150     -0.2457
     41  N          3.6430    0.4410   12.7880 N.3   161  VAL161     -0.1245
     42  CA         4.8120    0.0720   13.5880 C.3   161  VAL161      0.1561
     43  C          4.5520   -1.2870   14.2020 C.2   161  VAL161      0.2260
     44  O          3.6060   -1.4470   14.9640 O.2   161  VAL161     -0.2867
     45  CB         5.1040    1.1060   14.6900 C.3   161  VAL161      0.0252
     46  CG1        6.3000    0.6550   15.5430 C.3   161  VAL161      0.0019
     47  CG2        5.3900    2.4610   14.0630 C.3   161  VAL161      0.0019
     48  N          5.5520   -4.4570   16.5860 N.3   163  LEU163     -0.1245
     49  CA         6.2480   -4.7360   17.8400 C.3   163  LEU163      0.1561
     50  C          6.0260   -6.2060   18.1940 C.2   163  LEU163      0.2260
     51  O          4.8800   -6.6730   18.1980 O.2   163  LEU163     -0.2867
     52  CB         5.6630   -3.8720   18.9560 C.3   163  LEU163      0.0270
     53  CG         5.7900   -2.3550   18.8100 C.3   163  LEU163      0.0019
     54  CD1        4.9780   -1.6360   19.8730 C.3   163  LEU163      0.0001
     55  CD2        7.2320   -1.9560   18.9040 C.3   163  LEU163      0.0001
     56  N          2.2790   -0.4340   26.8830 N.3   174  THR174     -0.1218
     57  CA         2.3230    0.4880   25.7530 C.3   174  THR174      0.1862
     58  C          1.0930    1.3820   25.8790 C.2   174  THR174      0.2287
     59  O          0.0310    0.9730   26.3800 O.2   174  THR174     -0.2866
     60  CB         2.2990   -0.3080   24.4320 C.3   174  THR174      0.1770
     61  OG1        3.4400   -1.1910   24.4030 O.3   174  THR174     -0.2211
     62  CG2        2.3290    0.6150   23.1980 C.3   174  THR174      0.0375
     63  N          1.3470    6.5520   19.9760 N.3   296  HIS296     -0.1226
     64  CA         1.6500    5.5660   20.9980 C.3   296  HIS296      0.1752
     65  C          2.8570    6.0030   21.8310 C.2   296  HIS296      0.2597
     66  O          3.6240    6.9020   21.4710 O.2   296  HIS296     -0.2718
     67  CB         1.9340    4.2230   20.3370 C.3   296  HIS296      0.0759
     68  CG         3.1890    4.2590   19.5250 C.ar  296  HIS296      0.0818
     69  ND1        3.2290    4.7830   18.2500 N.ar  296  HIS296     -0.2268
     70  CD2        4.4720    3.9570   19.8460 C.ar  296  HIS296      0.1154
     71  CE1        4.4760    4.7790   17.8190 C.ar  296  HIS296      0.1986
     72  NE2        5.2490    4.2790   18.7700 N.ar  296  HIS296     -0.2212
     73  N          3.0150    5.3390   22.9590 N.am  297  GLY297     -0.1942
     74  CA         4.1220    5.5790   23.8770 C.3   297  GLY297      0.2014
     75  C          4.2690    4.3900   24.7960 C.2   297  GLY297      0.2638
     76  O          3.8280    3.2860   24.4720 O.2   297  GLY297     -0.2714
     77  N          4.8860    4.6090   25.9550 N.am  298  ARG298     -0.1977
     78  CA         5.1580    3.5300   26.8870 C.3   298  ARG298      0.1597
     79  C          5.2320    4.0900   28.3010 C.2   298  ARG298      0.2287
     80  O          5.9130    5.1010   28.5240 O.2   298  ARG298     -0.2864
     81  CB         6.4710    2.8520   26.5330 C.3   298  ARG298      0.0334
     82  CG         6.7660    1.6000   27.3490 C.3   298  ARG298      0.0492
     83  CD         8.2440    1.5330   27.7240 C.3   298  ARG298      0.2205
     84  NE         8.5950    2.5870   28.6770 N.pl3 298  ARG298     -0.0865
     85  CZ         9.5110    3.5340   28.4990 C.cat 298  ARG298      0.5346
     86  NH1       10.2130    3.6260   27.3840 N.pl3 298  ARG298      0.1354
     87  NH2        9.7190    4.4150   29.4670 N.pl3 298  ARG298      0.1354
     88  N         12.2330   -6.1680   30.0360 N.3   310  ARG310     -0.1245
     89  CA        11.4030   -5.9550   28.8520 C.3   310  ARG310      0.1563
     90  C         12.2220   -5.7410   27.5770 C.2   310  ARG310      0.2260
     91  O         13.1580   -4.9200   27.5440 O.2   310  ARG310     -0.2867
     92  CB        10.5180   -4.7390   29.0700 C.3   310  ARG310      0.0307
     93  CG         9.5290   -4.4630   27.9560 C.3   310  ARG310      0.0489
     94  CD         8.6580   -3.3110   28.3670 C.3   310  ARG310      0.2205
     95  NE         7.5160   -3.0740   27.4900 N.pl3 310  ARG310     -0.0865
     96  CZ         7.5140   -2.2320   26.4620 C.cat 310  ARG310      0.5346
     97  NH1        8.6040   -1.5710   26.1290 N.pl3 310  ARG310      0.1354
     98  NH2        6.4110   -2.0610   25.7520 N.pl3 310  ARG310      0.1354
     99  N         11.5110   -5.7390   23.2130 N.3   312  LEU312     -0.1245
    100  CA        10.7620   -5.9090   21.9710 C.3   312  LEU312      0.1561
    101  C         11.6610   -5.8640   20.7400 C.2   312  LEU312      0.2260
    102  O         12.6630   -5.1430   20.7160 O.2   312  LEU312     -0.2867
    103  CB         9.7420   -4.7900   21.7970 C.3   312  LEU312      0.0270
    104  CG         9.0540   -4.1920   23.0130 C.3   312  LEU312      0.0019
    105  CD1        8.1510   -3.0590   22.5490 C.3   312  LEU312      0.0001
    106  CD2        8.2670   -5.2400   23.6980 C.3   312  LEU312      0.0001
    107  N         11.1810   -4.5550   16.8100 N.3   314  ARG314     -0.1245
    108  CA        10.3550   -3.5140   16.1960 C.3   314  ARG314      0.1563
    109  C         10.6460   -3.3990   14.7050 C.2   314  ARG314      0.2260
    110  O         11.7780   -3.5890   14.2610 O.2   314  ARG314     -0.2867
    111  CB        10.6330   -2.1700   16.8630 C.3   314  ARG314      0.0307
    112  CG         9.7310   -1.0640   16.3490 C.3   314  ARG314      0.0489
    113  CD         9.8850    0.1960   17.1430 C.3   314  ARG314      0.2205
    114  NE        11.2680    0.6530   17.1190 N.pl3 314  ARG314     -0.0865
    115  CZ        11.7190    1.6920   17.8070 C.cat 314  ARG314      0.5346
    116  NH1       10.8880    2.3890   18.5690 N.pl3 314  ARG314      0.1354
    117  NH2       12.9980    2.0310   17.7130 N.pl3 314  ARG314      0.1354
@<TRIPOS>BOND
     1    35    34    2
     2    41    42    1
     3    42    43    1
     4    42    45    1
     5    34    33    1
     6    47    45    1
     7    43    44    2
     8   110   109    2
     9    36    37    1
    10    36    33    1
    11    37    38    1
    12    45    46    1
    13   109   108    1
    14    33    32    1
    15    38    40   ar
    16    38    39   ar
    17   108   107    1
    18   108   111    1
    19   112   111    1
    20   112   113    1
    21    48    49    1
    22   114   113    1
    23   114   115    2
    24   117   115    1
    25   115   116    1
    26    71    69   ar
    27    71    72   ar
    28    49    50    1
    29    49    52    1
    30    50    51    2
    31    69    68   ar
    32    24    25    2
    33    24    23    1
    34    72    70   ar
    35    53    55    1
    36    53    52    1
    37    53    54    1
    38    29    31   ar
    39    29    27   ar
    40    23    26    1
    41    23    22    1
    42    26    27    1
    43    68    70   ar
    44    68    67    1
    45    31    30   ar
    46    27    28   ar
    47    63    64    1
    48    67    64    1
    49   102   101    2
    50   101   100    1
    51     7     5    1
    52    30    28   ar
    53    64    65    1
    54     1     2    1
    55    13    12    1
    56    66    65    2
    57   103   100    1
    58   103   104    1
    59    65    73   am
    60   100    99    1
    61     5     2    1
    62     5     6    1
    63    12     9    1
    64     2     3    1
    65   105   104    1
    66    73    74    1
    67     8     9    1
    68   104   106    1
    69    62    60    1
    70     9    10    1
    71     3     4    2
    72    21    19    1
    73    74    75    1
    74    20    19    1
    75    10    11    2
    76    61    60    1
    77    19    18    1
    78    60    57    1
    79    76    75    2
    80    75    77   am
    81    98    96    1
    82    57    58    1
    83    57    56    1
    84    58    59    2
    85    18    15    1
    86    77    78    1
    87    97    96    1
    88    17    16    2
    89    16    15    1
    90    96    95    2
    91    81    78    1
    92    81    82    1
    93    15    14    1
    94    78    79    1
    95    82    83    1
    96    86    85    1
    97    95    94    1
    98    91    90    2
    99    90    89    1
   100    83    84    1
   101    93    94    1
   102    93    92    1
   103    79    80    2
   104    85    84    2
   105    85    87    1
   106    89    92    1
   107    89    88    1
