@<TRIPOS>MOLECULE
tmp/2wbvB00.pdb
 96 92 0 0 0
SMALL
GASTEIGER

@<TRIPOS>ATOM
      1  N        -23.2290  -38.5020  -61.8500 N.3    21  ILE21      -0.1231
      2  CA       -23.3800  -39.3930  -60.7000 C.3    21  ILE21       0.1692
      3  C        -23.0460  -40.8000  -61.1750 C.2    21  ILE21       0.2592
      4  O        -23.6470  -41.2840  -62.1310 O.2    21  ILE21      -0.2718
      5  CB       -24.8100  -39.3340  -60.0820 C.3    21  ILE21       0.0266
      6  CG1      -25.0900  -37.9410  -59.5060 C.3    21  ILE21       0.0019
      7  CG2      -24.9690  -40.3830  -58.9770 C.3    21  ILE21       0.0020
      8  CD1      -26.5530  -37.6310  -59.3120 C.3    21  ILE21       0.0001
      9  N        -22.0580  -41.4310  -60.5420 N.am   22  ASN22      -0.1974
     10  CA       -21.5650  -42.7480  -60.9760 C.3    22  ASN22       0.1688
     11  C        -21.1120  -42.7410  -62.4420 C.2    22  ASN22       0.2292
     12  O        -21.3840  -43.6770  -63.1940 O.2    22  ASN22      -0.2864
     13  CB       -22.6310  -43.8310  -60.7470 C.3    22  ASN22       0.1181
     14  CG       -22.9160  -44.0690  -59.2790 C.2    22  ASN22       0.2629
     15  OD1      -22.0060  -44.0710  -58.4480 O.2    22  ASN22      -0.2716
     16  ND2      -24.1860  -44.2940  -58.9540 N.am   22  ASN22      -0.0877
     17  N        -33.1480  -38.2460  -64.1100 N.3    52  TYR52      -0.1241
     18  CA       -33.2560  -37.1460  -63.1460 C.3    52  TYR52       0.1605
     19  C        -34.1370  -35.9990  -63.6500 C.2    52  TYR52       0.2264
     20  O        -34.2290  -34.9640  -63.0020 O.2    52  TYR52      -0.2867
     21  CB       -31.8580  -36.6400  -62.7850 C.3    52  TYR52       0.0534
     22  CG       -31.1570  -37.5480  -61.8130 C.ar   52  TYR52      -0.0201
     23  CD1      -31.1080  -37.2380  -60.4550 C.ar   52  TYR52      -0.0009
     24  CD2      -30.5820  -38.7460  -62.2380 C.ar   52  TYR52      -0.0009
     25  CE1      -30.4760  -38.0860  -59.5450 C.ar   52  TYR52       0.0417
     26  CE2      -29.9480  -39.5970  -61.3360 C.ar   52  TYR52       0.0417
     27  CZ       -29.8990  -39.2570  -59.9940 C.ar   52  TYR52       0.1957
     28  OH       -29.2800  -40.0920  -59.0930 O.3    52  TYR52      -0.2866
     29  N        -37.0580  -39.9700  -53.8250 N.3    59  GLN59      -0.1231
     30  CA       -35.7250  -39.7390  -54.3710 C.3    59  GLN59       0.1698
     31  C        -34.6810  -39.7190  -53.2520 C.2    59  GLN59       0.2593
     32  O        -34.8530  -39.0320  -52.2380 O.2    59  GLN59      -0.2718
     33  CB       -35.7010  -38.4050  -55.1220 C.3    59  GLN59       0.0381
     34  CG       -34.3130  -37.9660  -55.6060 C.3    59  GLN59       0.0905
     35  CD       -33.7260  -38.9080  -56.6180 C.2    59  GLN59       0.2608
     36  OE1      -34.3950  -39.2930  -57.5730 O.2    59  GLN59      -0.2717
     37  NE2      -32.4660  -39.2910  -56.4210 N.am   59  GLN59      -0.0878
     38  N        -33.5950  -40.4660  -53.4400 N.am   60  SER60      -0.1938
     39  CA       -32.5090  -40.4550  -52.4730 C.3    60  SER60       0.2055
     40  C        -31.7140  -39.1550  -52.6120 C.2    60  SER60       0.2643
     41  O        -31.5530  -38.6290  -53.7120 O.2    60  SER60      -0.2714
     42  CB       -31.5780  -41.6520  -52.6740 C.3    60  SER60       0.2130
     43  OG       -32.2760  -42.8690  -52.5220 O.3    60  SER60      -0.2179
     44  N        -31.2500  -38.6300  -51.4810 N.am   61  GLN61      -0.1963
     45  CA       -30.3920  -37.4540  -51.4690 C.3    61  GLN61       0.1733
     46  C        -29.0960  -37.7240  -52.2520 C.2    61  GLN61       0.2616
     47  O        -28.6650  -38.8750  -52.3710 O.2    61  GLN61      -0.2715
     48  CB       -30.0870  -37.0050  -50.0320 C.3    61  GLN61       0.0408
     49  CG       -29.1280  -37.8930  -49.2220 C.3    61  GLN61       0.0908
     50  CD       -29.7140  -39.2490  -48.8280 C.2    61  GLN61       0.2608
     51  OE1      -30.9250  -39.4510  -48.8580 O.2    61  GLN61      -0.2717
     52  NE2      -28.8410  -40.1830  -48.4570 N.am   61  GLN61      -0.0878
     53  N        -28.4980  -36.6630  -52.7890 N.am   62  PHE62      -0.1960
     54  CA       -27.2080  -36.7770  -53.4800 C.3    62  PHE62       0.1771
     55  C        -26.4100  -35.4850  -53.4440 C.2    62  PHE62       0.2620
     56  O        -26.9800  -34.3970  -53.3340 O.2    62  PHE62      -0.2715
     57  CB       -27.3960  -37.2280  -54.9270 C.3    62  PHE62       0.0574
     58  CG       -28.2530  -36.3150  -55.7450 C.ar   62  PHE62      -0.0200
     59  CD1      -27.6840  -35.2790  -56.4700 C.ar   62  PHE62      -0.0042
     60  CD2      -29.6370  -36.4970  -55.8030 C.ar   62  PHE62      -0.0042
     61  CE1      -28.4680  -34.4360  -57.2380 C.ar   62  PHE62      -0.0003
     62  CE2      -30.4260  -35.6570  -56.5730 C.ar   62  PHE62      -0.0003
     63  CZ       -29.8370  -34.6210  -57.2860 C.ar   62  PHE62      -0.0000
     64  N        -25.0890  -35.6380  -53.5440 N.am   63  SER63      -0.1950
     65  CA       -24.1430  -34.5350  -53.5940 C.3    63  SER63       0.1924
     66  C        -23.5380  -34.4000  -54.9860 C.2    63  SER63       0.2314
     67  O        -23.1920  -35.4000  -55.6440 O.2    63  SER63      -0.2863
     68  CB       -23.0140  -34.7590  -52.5920 C.3    63  SER63       0.2116
     69  OG       -23.4500  -34.5410  -51.2690 O.3    63  SER63      -0.2180
     70  N        -20.2680  -32.6990  -56.0360 N.3    65  ILE65      -0.1245
     71  CA       -19.0350  -32.1380  -55.4600 C.3    65  ILE65       0.1561
     72  C        -18.1100  -31.5500  -56.5470 C.2    65  ILE65       0.2260
     73  O        -17.8250  -32.1940  -57.5530 O.2    65  ILE65      -0.2867
     74  CB       -18.2600  -33.2100  -54.6320 C.3    65  ILE65       0.0252
     75  CG1      -19.1880  -33.9540  -53.6620 C.3    65  ILE65       0.0019
     76  CG2      -17.1000  -32.5740  -53.8610 C.3    65  ILE65       0.0019
     77  CD1      -18.5340  -35.1920  -52.9830 C.3    65  ILE65       0.0001
     78  N        -18.0640  -34.5150  -59.1670 N.3    79  ASN79      -0.1240
     79  CA       -19.3190  -34.7000  -59.9070 C.3    79  ASN79       0.1653
     80  C        -19.4880  -33.6040  -60.9530 C.2    79  ASN79       0.2266
     81  O        -20.0700  -33.8280  -62.0140 O.2    79  ASN79      -0.2867
     82  CB       -20.5330  -34.6830  -58.9700 C.3    79  ASN79       0.1155
     83  CG       -20.4540  -35.7250  -57.8900 C.2    79  ASN79       0.2627
     84  OD1      -19.9340  -35.4640  -56.8030 O.2    79  ASN79      -0.2716
     85  ND2      -20.9380  -36.9260  -58.1820 N.am   79  ASN79      -0.0877
     86  N        -25.6130  -30.3580  -52.1550 N.3   159  ARG159     -0.1245
     87  CA       -26.2760  -31.5580  -51.6540 C.3   159  ARG159      0.1563
     88  C        -27.7750  -31.3180  -51.6600 C.2   159  ARG159      0.2260
     89  O        -28.2810  -30.4360  -50.9580 O.2   159  ARG159     -0.2867
     90  CB       -25.7710  -31.9160  -50.2590 C.3   159  ARG159      0.0307
     91  CG       -26.3080  -33.2130  -49.7190 C.3   159  ARG159      0.0489
     92  CD       -25.4780  -33.7190  -48.5640 C.3   159  ARG159      0.2205
     93  NE       -25.9650  -34.9830  -48.0200 N.pl3 159  ARG159     -0.0865
     94  CZ       -25.7650  -36.1730  -48.5820 C.cat 159  ARG159      0.5346
     95  NH1      -25.1260  -36.2950  -49.7410 N.pl3 159  ARG159      0.1354
     96  NH2      -26.2230  -37.2610  -47.9840 N.pl3 159  ARG159      0.1354
@<TRIPOS>BOND
     1    17    18    1
     2    19    18    1
     3    19    20    2
     4    12    11    2
     5    18    21    1
     6    21    22    1
     7    11    10    1
     8    24    22   ar
     9    24    26   ar
    10     4     3    2
    11    81    80    2
    12     1     2    1
    13    22    23   ar
    14    26    27   ar
    15     3     2    1
    16     3     9   am
    17    10    13    1
    18    10     9    1
    19    80    79    1
    20    13    14    1
    21     2     5    1
    22    23    25   ar
    23     5     6    1
    24     5     7    1
    25    27    25   ar
    26    27    28    1
    27    79    78    1
    28    79    82    1
    29     6     8    1
    30    14    16   am
    31    14    15    2
    32    82    83    1
    33    85    83   am
    34    83    84    2
    35    36    35    2
    36    73    72    2
    37    63    61   ar
    38    63    62   ar
    39    61    59   ar
    40    35    37   am
    41    35    34    1
    42    62    60   ar
    43    72    71    1
    44    59    58   ar
    45    70    71    1
    46    60    58   ar
    47    58    57    1
    48    67    66    2
    49    34    33    1
    50    71    74    1
    51    33    30    1
    52    66    65    1
    53    57    54    1
    54    74    76    1
    55    74    75    1
    56    30    29    1
    57    30    31    1
    58    41    40    2
    59    75    77    1
    60    65    64    1
    61    65    68    1
    62    64    55   am
    63    54    55    1
    64    54    53    1
    65    55    56    2
    66    38    31   am
    67    38    39    1
    68    31    32    2
    69    53    46   am
    70    42    43    1
    71    42    39    1
    72    40    39    1
    73    40    44   am
    74    68    69    1
    75    47    46    2
    76    46    45    1
    77    86    87    1
    78    88    87    1
    79    88    89    2
    80    87    90    1
    81    44    45    1
    82    45    48    1
    83    90    91    1
    84    48    49    1
    85    95    94    1
    86    91    92    1
    87    49    50    1
    88    51    50    2
    89    50    52   am
    90    94    93    2
    91    94    96    1
    92    92    93    1
