@<TRIPOS>MOLECULE
tmp/2wc1A00.pdb
 146 140 0 0 0
SMALL
GASTEIGER

@<TRIPOS>ATOM
      1  N          7.7540   37.7260   10.0160 N.3    10  SER10      -0.1202
      2  CA         7.4410   36.3660   10.4590 C.3    10  SER10       0.2020
      3  C          6.1190   36.3160   11.2160 C.2    10  SER10       0.2619
      4  O          5.7910   37.2430   11.9640 O.2    10  SER10      -0.2717
      5  CB         8.5560   35.8350   11.3660 C.3    10  SER10       0.2103
      6  OG         8.2690   34.5220   11.8220 O.3    10  SER10      -0.2182
      7  N          5.3570   35.2390   11.0260 N.am   11  ASP11      -0.1959
      8  CA         4.0770   35.1070   11.7200 C.3    11  ASP11       0.1840
      9  C          4.1630   34.0120   12.7740 C.2    11  ASP11       0.2622
     10  O          3.7780   34.2150   13.9260 O.2    11  ASP11      -0.2715
     11  CB         2.9470   34.8080   10.7230 C.3    11  ASP11       0.1450
     12  CG         1.5530   34.9030   11.3570 C.2    11  ASP11       0.3671
     13  OD1        1.3140   35.8250   12.1710 O.co2  11  ASP11      -0.2456
     14  OD2        0.6840   34.0590   11.0320 O.co2  11  ASP11      -0.2456
     15  N          4.6930   32.8540   12.4010 N.am   12  THR12      -0.1951
     16  CA         4.7940   31.7710   13.3630 C.3    12  THR12       0.1897
     17  C          6.2090   31.4610   13.8530 C.2    12  THR12       0.2313
     18  O          6.4750   30.3640   14.3400 O.2    12  THR12      -0.2863
     19  CB         4.1180   30.5010   12.8120 C.3    12  THR12       0.1794
     20  OG1        4.5010   30.3030   11.4440 O.3    12  THR12      -0.2208
     21  CG2        2.6010   30.6450   12.8970 C.3    12  THR12       0.0378
     22  N          9.1090   30.8940   12.2660 N.3    14  THR14      -0.1203
     23  CA        10.0830   30.1630   11.4510 C.3    14  THR14       0.1994
     24  C         11.1950   31.0610   10.9180 C.2    14  THR14       0.2618
     25  O         12.3770   30.7670   11.0930 O.2    14  THR14      -0.2717
     26  CB         9.4240   29.4540   10.2420 C.3    14  THR14       0.1784
     27  OG1        8.3050   28.6720   10.6830 O.3    14  THR14      -0.2211
     28  CG2       10.4300   28.5220    9.5730 C.3    14  THR14       0.0376
     29  N         10.8060   32.1580   10.2740 N.am   15  THR15      -0.1952
     30  CA        11.7630   33.0870    9.6850 C.3    15  THR15       0.1897
     31  C         12.5830   33.7570   10.7770 C.2    15  THR15       0.2313
     32  O         13.7730   34.0120   10.5960 O.2    15  THR15      -0.2863
     33  CB        11.0380   34.1430    8.8190 C.3    15  THR15       0.1794
     34  OG1       10.1600   33.4740    7.9100 O.3    15  THR15      -0.2208
     35  CG2       12.0320   34.9680    8.0160 C.3    15  THR15       0.0378
     36  N          8.7070   35.0670    4.9520 N.3    56  PRO56      -0.2102
     37  CA         8.0190   33.8400    4.5560 C.3    56  PRO56       0.1504
     38  C          7.0150   34.3020    3.4990 C.2    56  PRO56       0.2576
     39  O          6.9800   35.4840    3.1430 O.2    56  PRO56      -0.2718
     40  CB         7.3210   33.4120    5.8380 C.3    56  PRO56       0.0282
     41  CG         6.9450   34.7530    6.4480 C.3    56  PRO56       0.0208
     42  CD         8.1980   35.5730    6.2430 C.3    56  PRO56       0.0893
     43  N          6.2170   33.3790    2.9840 N.am   57  THR57      -0.1939
     44  CA         5.1850   33.7380    2.0190 C.3    57  THR57       0.2028
     45  C          3.8760   33.2870    2.6710 C.2    57  THR57       0.2642
     46  O          3.7820   32.1720    3.1760 O.2    57  THR57      -0.2714
     47  CB         5.3870   33.0310    0.6680 C.3    57  THR57       0.1808
     48  OG1        6.6360   33.4420    0.0940 O.3    57  THR57      -0.2208
     49  CG2        4.2620   33.4080   -0.2880 C.3    57  THR57       0.0379
     50  N          2.8740   34.1580    2.6880 N.am   58  LEU58      -0.1963
     51  CA         1.6030   33.8190    3.3250 C.3    58  LEU58       0.1728
     52  C          0.3920   34.1220    2.4510 C.2    58  LEU58       0.2616
     53  O          0.5300   34.3380    1.2480 O.2    58  LEU58      -0.2715
     54  CB         1.4830   34.5690    4.6560 C.3    58  LEU58       0.0311
     55  CG         2.5550   34.2570    5.7060 C.3    58  LEU58       0.0022
     56  CD1        2.3720   35.1600    6.9140 C.3    58  LEU58       0.0001
     57  CD2        2.4620   32.7960    6.1200 C.3    58  LEU58       0.0001
     58  N         -0.7890   34.1290    3.0670 N.am   59  GLY59      -0.1955
     59  CA        -2.0140   34.4190    2.3380 C.3    59  GLY59       0.1869
     60  C         -2.0710   33.6480    1.0360 C.2    59  GLY59       0.2309
     61  O         -2.1830   32.4240    1.0410 O.2    59  GLY59      -0.2863
     62  N          0.3810   33.6940   -1.7810 N.3    61  GLY61      -0.1225
     63  CA         1.6180   34.1220   -2.4110 C.3    61  GLY61       0.1811
     64  C          1.9730   35.5700   -2.1080 C.2    61  GLY61       0.2280
     65  O          2.6920   36.2100   -2.8780 O.2    61  GLY61      -0.2866
     66  N         -2.6610   39.4210    4.7870 N.3    68  ALA68      -0.1245
     67  CA        -2.3820   38.0070    4.5590 C.3    68  ALA68       0.1562
     68  C         -2.8140   37.1780    5.7540 C.2    68  ALA68       0.2260
     69  O         -2.5550   35.9740    5.8210 O.2    68  ALA68      -0.2867
     70  CB        -0.9000   37.8080    4.2960 C.3    68  ALA68       0.0290
     71  N         11.3350   31.8870    3.3020 N.3    97  LEU97      -0.1231
     72  CA        10.8410   30.6480    3.8670 C.3    97  LEU97       0.1693
     73  C          9.5450   30.3470    3.1280 C.2    97  LEU97       0.2593
     74  O          8.7930   31.2560    2.7910 O.2    97  LEU97      -0.2718
     75  CB        10.5590   30.7960    5.3730 C.3    97  LEU97       0.0284
     76  CG        11.6870   30.5390    6.3790 C.3    97  LEU97       0.0019
     77  CD1       12.0910   29.0710    6.2940 C.3    97  LEU97       0.0001
     78  CD2       12.8810   31.4490    6.1170 C.3    97  LEU97       0.0001
     79  N          9.2930   29.0700    2.8820 N.am   98  GLY98      -0.1942
     80  CA         8.0850   28.6840    2.1800 C.3    98  GLY98       0.2014
     81  C          7.8420   27.1970    2.3140 C.2    98  GLY98       0.2638
     82  O          8.6660   26.4850    2.8850 O.2    98  GLY98      -0.2714
     83  N          6.7120   26.7370    1.7850 N.am   99  ASP99      -0.1971
     84  CA         6.3250   25.3340    1.8410 C.3    99  ASP99       0.1709
     85  C          6.0820   24.8690    0.4020 C.2    99  ASP99       0.2293
     86  O          4.9990   25.0620   -0.1480 O.2    99  ASP99      -0.2864
     87  CB         5.0520   25.1980    2.6990 C.3    99  ASP99       0.1436
     88  CG         4.5390   23.7660    2.7870 C.2    99  ASP99       0.3671
     89  OD1        3.7310   23.4850    3.7000 O.co2  99  ASP99      -0.2456
     90  OD2        4.9270   22.9190    1.9530 O.co2  99  ASP99      -0.2456
     91  N          2.3540   24.5870   -1.4230 N.3   103  TYR103     -0.1241
     92  CA         2.1230   25.6980   -2.3480 C.3   103  TYR103      0.1605
     93  C          3.0560   25.6360   -3.5650 C.2   103  TYR103      0.2264
     94  O          3.7750   26.5870   -3.8670 O.2   103  TYR103     -0.2867
     95  CB         2.2960   27.0180   -1.5960 C.3   103  TYR103      0.0534
     96  CG         1.4230   27.0960   -0.3570 C.ar  103  TYR103     -0.0201
     97  CD1        0.0970   27.5430   -0.4290 C.ar  103  TYR103     -0.0009
     98  CD2        1.9070   26.6700    0.8800 C.ar  103  TYR103     -0.0009
     99  CE1       -0.7220   27.5590    0.7070 C.ar  103  TYR103      0.0417
    100  CE2        1.1010   26.6840    2.0140 C.ar  103  TYR103      0.0417
    101  CZ        -0.2090   27.1280    1.9220 C.ar  103  TYR103      0.1957
    102  OH        -0.9920   27.1460    3.0550 O.3   103  TYR103     -0.2866
    103  N          3.2920   28.7520   -5.9230 N.3   106  GLU106     -0.1231
    104  CA         3.6530   30.0520   -5.3750 C.3   106  GLU106      0.1699
    105  C          4.8000   29.9190   -4.3650 C.2   106  GLU106      0.2592
    106  O          4.8900   30.6940   -3.4090 O.2   106  GLU106     -0.2718
    107  CB         2.4320   30.6640   -4.6780 C.3   106  GLU106      0.0402
    108  CG         1.2120   30.8460   -5.5760 C.3   106  GLU106      0.1161
    109  CD        -0.0600   31.1370   -4.7820 C.2   106  GLU106      0.3649
    110  OE1       -0.5780   30.2120   -4.1090 O.co2 106  GLU106     -0.2457
    111  OE2       -0.5350   32.2970   -4.8280 O.co2 106  GLU106     -0.2457
    112  N          5.6740   28.9380   -4.5790 N.am  107  PHE107     -0.1962
    113  CA         6.7820   28.7150   -3.6590 C.3   107  PHE107      0.1771
    114  C          7.6540   29.9480   -3.5020 C.2   107  PHE107      0.2619
    115  O          8.2240   30.4470   -4.4750 O.2   107  PHE107     -0.2715
    116  CB         7.6400   27.5330   -4.1040 C.3   107  PHE107      0.0574
    117  CG         8.7200   27.1650   -3.1110 C.ar  107  PHE107     -0.0200
    118  CD1        8.4160   27.0000   -1.7620 C.ar  107  PHE107     -0.0042
    119  CD2       10.0280   26.9570   -3.5290 C.ar  107  PHE107     -0.0042
    120  CE1        9.3980   26.6290   -0.8490 C.ar  107  PHE107     -0.0003
    121  CE2       11.0230   26.5830   -2.6180 C.ar  107  PHE107     -0.0003
    122  CZ        10.7070   26.4190   -1.2810 C.ar  107  PHE107     -0.0000
    123  N          7.7530   30.4080   -2.2540 N.am  108  VAL108     -0.1977
    124  CA         8.5180   31.5890   -1.8600 C.3   108  VAL108      0.1596
    125  C          8.3370   32.8120   -2.7520 C.2   108  VAL108      0.2287
    126  O          9.2910   33.5560   -2.9980 O.2   108  VAL108     -0.2864
    127  CB        10.0450   31.2760   -1.7000 C.3   108  VAL108      0.0276
    128  CG1       10.2610   30.3200   -0.5180 C.3   108  VAL108      0.0022
    129  CG2       10.6240   30.6750   -2.9870 C.3   108  VAL108      0.0022
    130  N         11.3260   24.8560    6.0190 N.3   154  GLN154     -0.1231
    131  CA        11.4030   24.1480    7.2970 C.3   154  GLN154      0.1698
    132  C         10.2700   23.1320    7.4450 C.2   154  GLN154      0.2592
    133  O         10.2680   22.3140    8.3610 O.2   154  GLN154     -0.2718
    134  CB        11.3670   25.1460    8.4590 C.3   154  GLN154      0.0381
    135  CG        12.6040   26.0210    8.5360 C.3   154  GLN154      0.0905
    136  CD        13.8520   25.2100    8.8310 C.2   154  GLN154      0.2608
    137  OE1       14.1520   24.8960    9.9800 O.2   154  GLN154     -0.2717
    138  NE2       14.5680   24.8450    7.7880 N.am  154  GLN154     -0.0878
    139  N          9.3090   23.1870    6.5370 N.am  155  ASP155     -0.1974
    140  CA         8.1900   22.2570    6.5780 C.3   155  ASP155      0.1709
    141  C          8.5320   20.9350    5.8960 C.2   155  ASP155      0.2293
    142  O          8.1110   19.8730    6.3560 O.2   155  ASP155     -0.2864
    143  CB         6.9720   22.8800    5.8980 C.3   155  ASP155      0.1436
    144  CG         6.4420   24.0770    6.6560 C.2   155  ASP155      0.3671
    145  OD1        5.9670   23.8770    7.7860 O.co2 155  ASP155     -0.2456
    146  OD2        6.4990   25.2130    6.1430 O.co2 155  ASP155     -0.2456
@<TRIPOS>BOND
     1   103   104    1
     2   108   109    1
     3   108   107    1
     4   104   107    1
     5   104   105    1
     6   111   109   ar
     7   109   110   ar
     8   112   105   am
     9   112   113    1
    10   115   114    2
    11   105   106    2
    12   116   113    1
    13   116   117    1
    14    94    93    2
    15   113   114    1
    16    93    92    1
    17   119   117   ar
    18   119   121   ar
    19   114   123   am
    20   117   118   ar
    21   126   125    2
    22   129   127    1
    23    65    64    2
    24   125   124    1
    25   121   122   ar
    26    63    64    1
    27    63    62    1
    28    92    95    1
    29    92    91    1
    30   123   124    1
    31   124   127    1
    32   118   120   ar
    33   127   128    1
    34    95    96    1
    35   122   120   ar
    36    97    96   ar
    37    97    99   ar
    38    96    98   ar
    39    49    47    1
    40    86    85    2
    41    48    47    1
    42    85    84    1
    43    47    44    1
    44    99   101   ar
    45    98   100   ar
    46    60    61    2
    47    60    59    1
    48    53    52    2
    49    83    84    1
    50    83    81   am
    51    84    87    1
    52   101   100   ar
    53   101   102    1
    54    90    88   ar
    55    44    45    1
    56    44    43    1
    57    80    81    1
    58    80    79    1
    59    81    82    2
    60    59    58    1
    61    52    58   am
    62    52    51    1
    63    45    50   am
    64    45    46    2
    65    50    51    1
    66    87    88    1
    67    88    89   ar
    68    74    73    2
    69    79    73   am
    70    43    38   am
    71    73    72    1
    72    39    38    2
    73    71    72    1
    74    51    54    1
    75    38    37    1
    76    72    75    1
    77    70    67    1
    78    37    36    1
    79    37    40    1
    80    67    66    1
    81    67    68    1
    82    54    55    1
    83    36    42    1
    84    75    76    1
    85    55    57    1
    86    55    56    1
    87    68    69    2
    88    40    41    1
    89   141   142    2
    90   141   140    1
    91   143   140    1
    92   143   144    1
    93   130   131    1
    94    78    76    1
    95   146   144   ar
    96    42    41    1
    97    77    76    1
    98   139   140    1
    99   139   132   am
   100   144   145   ar
   101   131   132    1
   102   131   134    1
   103   132   133    2
   104   138   136   am
   105    34    33    1
   106    35    33    1
   107   134   135    1
   108   135   136    1
   109    33    30    1
   110   136   137    2
   111    28    26    1
   112    30    29    1
   113    30    31    1
   114     1     2    1
   115    26    27    1
   116    26    23    1
   117    29    24   am
   118     2     3    1
   119     2     5    1
   120    32    31    2
   121    11    12    1
   122    11     8    1
   123    24    25    2
   124    24    23    1
   125     7     3   am
   126     7     8    1
   127    14    12   ar
   128     3     4    2
   129    12    13   ar
   130     5     6    1
   131    20    19    1
   132    23    22    1
   133     8     9    1
   134    15     9   am
   135    15    16    1
   136     9    10    2
   137    19    21    1
   138    19    16    1
   139    16    17    1
   140    17    18    2
