@<TRIPOS>MOLECULE
tmp/2wc6A00.pdb
 211 201 0 0 0
SMALL
GASTEIGER

@<TRIPOS>ATOM
      1  N         -1.0350  -11.3830   17.3810 N.3     5  MET5       -0.1245
      2  CA         0.0910  -10.6360   16.8230 C.3     5  MET5        0.1570
      3  C         -0.1530  -10.3720   15.3630 C.2     5  MET5        0.2261
      4  O          0.3040   -9.3510   14.8120 O.2     5  MET5       -0.2867
      5  CB         1.4040  -11.4070   16.9940 C.3     5  MET5        0.0387
      6  CG         2.6670  -10.6150   16.5830 C.3     5  MET5        0.0595
      7  SD         2.9670   -9.2590   17.8000 S.3     5  MET5       -0.1393
      8  CE         3.8150  -10.2800   18.9980 C.3     5  MET5        0.0692
      9  N         -2.3110   -7.2830   15.4310 N.3     8  VAL8       -0.1231
     10  CA        -1.5260   -6.0790   15.8040 C.3     8  VAL8        0.1692
     11  C         -0.6280   -5.6130   14.6290 C.2     8  VAL8        0.2592
     12  O         -0.5590   -4.4320   14.2660 O.2     8  VAL8       -0.2718
     13  CB        -0.7140   -6.3750   17.0900 C.3     8  VAL8        0.0266
     14  CG1        0.0680   -5.1430   17.5190 C.3     8  VAL8        0.0020
     15  CG2       -1.6430   -6.7490   18.2440 C.3     8  VAL8        0.0020
     16  N          0.0800   -6.5600   14.0270 N.am    9  THR9       -0.1953
     17  CA         0.9350   -6.2900   12.8720 C.3     9  THR9        0.1897
     18  C          0.2000   -5.7030   11.6950 C.2     9  THR9        0.2313
     19  O          0.6630   -4.7010   11.0590 O.2     9  THR9       -0.2863
     20  CB         1.7510   -7.5470   12.4050 C.3     9  THR9        0.1794
     21  OG1        2.4410   -8.0240   13.5260 O.3     9  THR9       -0.2208
     22  CG2        2.8090   -7.1860   11.2990 C.3     9  THR9        0.0378
     23  N         -0.6500   -1.9560   12.7310 N.3    12  PHE12      -0.1241
     24  CA         0.5500   -1.1940   12.9120 C.3    12  PHE12       0.1605
     25  C          1.2040   -0.9140   11.5300 C.2    12  PHE12       0.2264
     26  O          1.7470    0.1850   11.2880 O.2    12  PHE12      -0.2867
     27  CB         1.5360   -2.0120   13.7360 C.3    12  PHE12       0.0534
     28  CG         2.8410   -1.2820   14.0580 C.ar   12  PHE12      -0.0203
     29  CD1        2.9010   -0.3380   15.0910 C.ar   12  PHE12      -0.0042
     30  CD2        3.9820   -1.5660   13.3510 C.ar   12  PHE12      -0.0042
     31  CE1        4.1360    0.2900   15.4320 C.ar   12  PHE12      -0.0003
     32  CE2        5.1850   -0.9810   13.6450 C.ar   12  PHE12      -0.0003
     33  CZ         5.2680   -0.0200   14.6860 C.ar   12  PHE12      -0.0000
     34  N          4.9390   -4.0040    5.3130 N.3    33  PHE33      -0.1241
     35  CA         5.4320   -4.2610    6.6400 C.3    33  PHE33       0.1605
     36  C          5.2110   -5.7260    7.0690 C.2    33  PHE33       0.2264
     37  O          5.9970   -6.2360    7.9090 O.2    33  PHE33      -0.2867
     38  CB         4.7960   -3.3170    7.6600 C.3    33  PHE33       0.0534
     39  CG         5.4420   -3.4000    9.0020 C.ar   33  PHE33      -0.0203
     40  CD1        6.7030   -2.7930    9.2080 C.ar   33  PHE33      -0.0042
     41  CD2        4.8620   -4.1410   10.0290 C.ar   33  PHE33      -0.0042
     42  CE1        7.3860   -2.8970   10.4550 C.ar   33  PHE33      -0.0003
     43  CE2        5.4960   -4.2580   11.2710 C.ar   33  PHE33      -0.0003
     44  CZ         6.7830   -3.6310   11.4850 C.ar   33  PHE33      -0.0000
     45  N          7.9990   -8.1580    7.4910 N.3    36  PHE36      -0.1227
     46  CA         8.9020   -8.1040    8.6760 C.3    36  PHE36       0.1736
     47  C          8.9860   -9.5080    9.2790 C.2    36  PHE36       0.2595
     48  O         10.0590   -9.9520    9.7550 O.2    36  PHE36      -0.2718
     49  CB         8.3290   -7.1180    9.7060 C.3    36  PHE36       0.0547
     50  CG         8.9810   -7.1710   11.0550 C.ar   36  PHE36      -0.0202
     51  CD1        9.9870   -6.2800   11.3610 C.ar   36  PHE36      -0.0042
     52  CD2        8.5290   -8.0450   12.0540 C.ar   36  PHE36      -0.0042
     53  CE1       10.5720   -6.2950   12.6240 C.ar   36  PHE36      -0.0003
     54  CE2        9.1280   -8.0770   13.2810 C.ar   36  PHE36      -0.0003
     55  CZ        10.1620   -7.1860   13.5570 C.ar   36  PHE36      -0.0000
     56  N          7.8660  -10.2370    9.2340 N.am   37  TRP37      -0.1976
     57  CA         7.8220  -11.5900    9.8050 C.3    37  TRP37       0.1640
     58  C          8.3360  -12.7410    8.9430 C.2    37  TRP37       0.2290
     59  O          8.4940  -13.8480    9.4800 O.2    37  TRP37      -0.2864
     60  CB         6.4190  -11.9310   10.3420 C.3    37  TRP37       0.0576
     61  CG         6.0520  -11.0780   11.5130 C.ar   37  TRP37       0.0006
     62  CD1        5.1790  -10.0380   11.4960 C.ar   37  TRP37       0.0946
     63  CD2        6.5120  -11.1850   12.8610 C.ar   37  TRP37       0.0152
     64  NE1        5.0650   -9.4920   12.7240 N.ar   37  TRP37      -0.2442
     65  CE2        5.8440  -10.1820   13.6010 C.ar   37  TRP37       0.0810
     66  CE3        7.4100  -12.0150   13.5180 C.ar   37  TRP37       0.0012
     67  CZ2        6.0660   -9.9590   14.9810 C.ar   37  TRP37       0.0191
     68  CZ3        7.5850  -11.8210   14.9110 C.ar   37  TRP37       0.0001
     69  CH2        6.9410  -10.7930   15.6050 C.ar   37  TRP37       0.0015
     70  N         10.3350    2.3790   12.2170 N.3    52  ILE52      -0.1245
     71  CA         9.5680    1.8060   13.3600 C.3    52  ILE52       0.1561
     72  C          9.2960    2.9110   14.3990 C.2    52  ILE52       0.2260
     73  O          8.2060    2.9780   14.9990 O.2    52  ILE52      -0.2867
     74  CB        10.2720    0.5260   13.9520 C.3    52  ILE52       0.0252
     75  CG1       10.0970   -0.6670   12.9840 C.3    52  ILE52       0.0019
     76  CG2        9.7200    0.1580   15.3700 C.3    52  ILE52       0.0019
     77  CD1       11.0190   -1.9140   13.2750 C.3    52  ILE52       0.0001
     78  N          5.5750    3.9510   15.3790 N.3    56  SER56      -0.1217
     79  CA         5.2080    3.8190   16.8300 C.3    56  SER56       0.1889
     80  C          4.6330    5.1560   17.3390 C.2    56  SER56       0.2288
     81  O          3.6340    5.2110   18.1010 O.2    56  SER56      -0.2866
     82  CB         6.4760    3.4890   17.6250 C.3    56  SER56       0.2089
     83  OG         6.9340    2.1920   17.2780 O.3    56  SER56      -0.2183
     84  N          3.4990    4.9570   21.1260 N.3    61  LEU61      -0.1231
     85  CA         4.0170    3.7130   21.7270 C.3    61  LEU61       0.1693
     86  C          5.4340    3.8640   22.2960 C.2    61  LEU61       0.2591
     87  O          5.9210    2.9330   22.9570 O.2    61  LEU61      -0.2718
     88  CB         3.9910    2.5610   20.7160 C.3    61  LEU61       0.0284
     89  CG         2.6060    2.3160   20.1000 C.3    61  LEU61       0.0019
     90  CD1        2.8310    1.1740   19.0580 C.3    61  LEU61       0.0001
     91  CD2        1.4730    1.9620   21.1450 C.3    61  LEU61       0.0001
     92  N          6.0290    5.0440   22.0270 N.am   62  MET62      -0.1979
     93  CA         7.3520    5.4760   22.5460 C.3    62  MET62       0.1605
     94  C          7.2790    6.4300   23.7220 C.2    62  MET62       0.2287
     95  O          6.4040    7.3240   23.7600 O.2    62  MET62      -0.2864
     96  CB         8.1850    6.1140   21.4290 C.3    62  MET62       0.0413
     97  CG         8.4870    5.1050   20.3500 C.3    62  MET62       0.0598
     98  SD         9.6350    3.7980   20.8770 S.3    62  MET62      -0.1393
     99  CE         9.9810    3.2040   19.2030 C.3    62  MET62       0.0692
    100  N         12.4680    7.3740   23.6740 N.3    66  VAL66      -0.1231
    101  CA        12.4080    6.5100   22.4610 C.3    66  VAL66       0.1692
    102  C         12.6140    5.0610   22.8500 C.2    66  VAL66       0.2592
    103  O         13.3150    4.3100   22.1330 O.2    66  VAL66      -0.2718
    104  CB        13.3400    6.9520   21.3180 C.3    66  VAL66       0.0266
    105  CG1       12.7630    6.4210   19.9910 C.3    66  VAL66       0.0020
    106  CG2       13.3500    8.5140   21.2780 C.3    66  VAL66       0.0020
    107  N         12.0310    4.7120   24.0210 N.am   67  ARG67      -0.1966
    108  CA        11.8630    3.2900   24.4140 C.3    67  ARG67       0.1729
    109  C         10.3730    3.0370   24.3860 C.2    67  ARG67       0.2616
    110  O          9.5890    3.9660   24.3490 O.2    67  ARG67      -0.2715
    111  CB        12.3350    2.9930   25.8220 C.3    67  ARG67       0.0348
    112  CG        13.8140    2.4760   25.9100 C.3    67  ARG67       0.0492
    113  CD        14.8390    3.5940   25.5750 C.3    67  ARG67       0.2205
    114  NE        16.2450    3.1980   25.7870 N.pl3  67  ARG67      -0.0865
    115  CZ        17.2820    3.9650   25.4320 C.cat  67  ARG67       0.5346
    116  NH1       17.0550    5.1880   24.8990 N.pl3  67  ARG67       0.1354
    117  NH2       18.5530    3.5410   25.6540 N.pl3  67  ARG67       0.1354
    118  N          9.9850    1.7750   24.4220 N.am   68  MET68      -0.1977
    119  CA         8.5810    1.4280   24.5640 C.3    68  MET68       0.1605
    120  C          7.9020    2.1270   25.7630 C.2    68  MET68       0.2287
    121  O          8.4260    2.1060   26.8880 O.2    68  MET68      -0.2864
    122  CB         8.4430   -0.0940   24.7650 C.3    68  MET68       0.0413
    123  CG         6.9870   -0.4860   24.9840 C.3    68  MET68       0.0598
    124  SD         6.8550   -2.2650   25.1200 S.3    68  MET68      -0.1393
    125  CE         7.8820   -2.6080   26.4910 C.3    68  MET68       0.0692
    126  N          1.5720    0.8540   25.0610 N.3    73  MET73      -0.1245
    127  CA         1.6880   -0.4230   24.3490 C.3    73  MET73       0.1570
    128  C          0.6240   -1.4670   24.8240 C.2    73  MET73       0.2261
    129  O         -0.0590   -2.0900   24.0130 O.2    73  MET73      -0.2867
    130  CB         3.0960   -1.0320   24.4480 C.3    73  MET73       0.0387
    131  CG         3.2690   -2.4060   23.7290 C.3    73  MET73       0.0595
    132  SD         3.2310   -2.1150   21.9370 S.3    73  MET73      -0.1393
    133  CE         4.9170   -1.5810   21.5620 C.3    73  MET73       0.0692
    134  N         -2.7370   -0.4350   23.5240 N.3    76  TYR76      -0.1241
    135  CA        -2.8330   -0.6830   22.0940 C.3    76  TYR76       0.1605
    136  C         -3.1010   -2.1640   21.8540 C.2    76  TYR76       0.2264
    137  O         -3.9390   -2.5440   21.0680 O.2    76  TYR76      -0.2867
    138  CB        -1.4910   -0.2840   21.4420 C.3    76  TYR76       0.0534
    139  CG        -1.3990   -0.4390   19.9240 C.ar   76  TYR76      -0.0201
    140  CD1       -2.2000    0.3130   19.0740 C.ar   76  TYR76      -0.0009
    141  CD2       -0.4450   -1.2580   19.3500 C.ar   76  TYR76      -0.0009
    142  CE1       -2.1180    0.1480   17.6660 C.ar   76  TYR76       0.0417
    143  CE2       -0.3290   -1.3970   17.9520 C.ar   76  TYR76       0.0417
    144  CZ        -1.1670   -0.7010   17.1270 C.ar   76  TYR76       0.1957
    145  OH        -1.0890   -0.8470   15.7510 O.3    76  TYR76      -0.2866
    146  N          4.0970   -9.6040   25.7300 N.3    90  MET90      -0.1245
    147  CA         4.7210   -8.8790   24.6290 C.3    90  MET90       0.1570
    148  C          5.5590   -7.7320   25.1920 C.2    90  MET90       0.2261
    149  O          6.6770   -7.5220   24.7360 O.2    90  MET90      -0.2867
    150  CB         3.6580   -8.3740   23.6390 C.3    90  MET90       0.0387
    151  CG         4.2320   -7.5330   22.5080 C.3    90  MET90       0.0595
    152  SD         3.0270   -7.4280   21.2230 S.3    90  MET90      -0.1393
    153  CE         3.6730   -6.1740   20.1300 C.3    90  MET90       0.0692
    154  N          9.5710   -7.3980   24.7080 N.3    94  ILE94      -0.1245
    155  CA        10.1880   -6.1840   24.1690 C.3    94  ILE94       0.1561
    156  C         11.1130   -5.4970   25.1640 C.2    94  ILE94       0.2260
    157  O         12.2630   -5.1620   24.8320 O.2    94  ILE94      -0.2867
    158  CB         9.1310   -5.1510   23.6300 C.3    94  ILE94       0.0252
    159  CG1        8.3900   -5.7250   22.3990 C.3    94  ILE94       0.0019
    160  CG2        9.8480   -3.7740   23.2960 C.3    94  ILE94       0.0019
    161  CD1        7.0470   -4.9640   22.0780 C.3    94  ILE94       0.0001
    162  N         15.1190   -4.4790   24.8860 N.3    98  GLU98      -0.1245
    163  CA        15.6010   -3.1090   25.1120 C.3    98  GLU98       0.1567
    164  C         16.7770   -3.0630   26.0800 C.2    98  GLU98       0.2260
    165  O         17.6860   -2.3110   25.8680 O.2    98  GLU98      -0.2867
    166  CB        14.4760   -2.2390   25.6580 C.3    98  GLU98       0.0388
    167  CG        13.4420   -1.9420   24.6020 C.3    98  GLU98       0.1160
    168  CD        12.3360   -1.0850   25.2090 C.2    98  GLU98       0.3649
    169  OE1       11.9990   -1.2560   26.3880 O.co2  98  GLU98      -0.2457
    170  OE2       11.8260   -0.2250   24.5270 O.co2  98  GLU98      -0.2457
    171  N         19.3850    1.4330   17.6590 N.3   110  ARG110     -0.1231
    172  CA        18.8620    0.7270   18.8570 C.3   110  ARG110      0.1694
    173  C         17.5060    0.0190   18.5720 C.2   110  ARG110      0.2591
    174  O         17.3570   -1.1850   18.8600 O.2   110  ARG110     -0.2718
    175  CB        18.7440    1.6620   20.0600 C.3   110  ARG110      0.0321
    176  CG        18.4430    0.9020   21.3410 C.3   110  ARG110      0.0489
    177  CD        18.2920    1.8220   22.5310 C.3   110  ARG110      0.2205
    178  NE        17.0550    2.6190   22.2600 N.pl3 110  ARG110     -0.0865
    179  CZ        17.1060    3.8800   21.9040 C.cat 110  ARG110      0.5346
    180  NH1       18.3050    4.5300   21.8140 N.pl3 110  ARG110      0.1354
    181  NH2       15.9950    4.5160   21.6640 N.pl3 110  ARG110      0.1354
    182  N         16.6090    0.7020   17.8940 N.am  111  VAL111     -0.1980
    183  CA        15.2740    0.2060   17.6720 C.3   111  VAL111      0.1595
    184  C         15.2710   -0.9640   16.6500 C.2   111  VAL111      0.2287
    185  O         14.5600   -2.0120   16.8470 O.2   111  VAL111     -0.2864
    186  CB        14.3560    1.3320   17.2510 C.3   111  VAL111      0.0276
    187  CG1       12.9590    0.7410   16.7750 C.3   111  VAL111      0.0022
    188  CG2       14.2030    2.3070   18.4510 C.3   111  VAL111      0.0022
    189  N         16.6200   -3.8730   18.6300 N.3   114  VAL114     -0.1231
    190  CA        15.5600   -4.3250   19.5000 C.3   114  VAL114      0.1692
    191  C         14.4600   -5.1100   18.7020 C.2   114  VAL114      0.2591
    192  O         14.0190   -6.1370   19.1550 O.2   114  VAL114     -0.2718
    193  CB        14.9490   -3.1550   20.2940 C.3   114  VAL114      0.0266
    194  CG1       13.6250   -3.6570   21.0380 C.3   114  VAL114      0.0020
    195  CG2       15.9940   -2.6130   21.2770 C.3   114  VAL114      0.0020
    196  N         14.0770   -4.6240   17.5190 N.am  115  ALA115     -0.1980
    197  CA        13.1040   -5.2650   16.6260 C.3   115  ALA115      0.1597
    198  C         13.5410   -6.6780   16.2610 C.2   115  ALA115      0.2287
    199  O         12.7430   -7.5890   16.2930 O.2   115  ALA115     -0.2864
    200  CB        12.9160   -4.4530   15.3560 C.3   115  ALA115      0.0319
    201  N         13.2510   -8.9170   19.2860 N.3   118  PHE118     -0.1241
    202  CA        11.8350   -9.1290   19.5150 C.3   118  PHE118      0.1605
    203  C         11.3040  -10.2000   18.5290 C.2   118  PHE118      0.2264
    204  O         10.5410  -11.0800   18.9280 O.2   118  PHE118     -0.2867
    205  CB        11.0870   -7.8100   19.2770 C.3   118  PHE118      0.0534
    206  CG         9.6250   -7.9770   19.0570 C.ar  118  PHE118     -0.0203
    207  CD1        8.8100   -8.3760   20.1040 C.ar  118  PHE118     -0.0042
    208  CD2        9.0770   -7.7660   17.8010 C.ar  118  PHE118     -0.0042
    209  CE1        7.4680   -8.5230   19.9090 C.ar  118  PHE118     -0.0003
    210  CE2        7.7190   -7.9050   17.6100 C.ar  118  PHE118     -0.0003
    211  CZ         6.9300   -8.2860   18.6810 C.ar  118  PHE118     -0.0000
@<TRIPOS>BOND
     1    34    35    1
     2    35    36    1
     3    35    38    1
     4    36    37    2
     5    45    46    1
     6    38    39    1
     7    46    47    1
     8    46    49    1
     9    58    59    2
    10    58    57    1
    11    39    40   ar
    12    39    41   ar
    13    40    42   ar
    14    56    47   am
    15    56    57    1
    16    47    48    2
    17    49    50    1
    18    57    60    1
    19    41    43   ar
    20    60    61    1
    21    42    44   ar
    22    50    51   ar
    23    50    52   ar
    24    19    18    2
    25    43    44   ar
    26    26    25    2
    27    22    20    1
    28    51    53   ar
    29    62    61   ar
    30    62    64   ar
    31    61    63   ar
    32    25    24    1
    33    18    17    1
    34    52    54   ar
    35    70    71    1
    36    20    17    1
    37    20    21    1
    38    53    55   ar
    39    64    65   ar
    40    23    24    1
    41    63    66   ar
    42    63    65   ar
    43    17    16    1
    44    24    27    1
    45    75    77    1
    46    75    74    1
    47    54    55   ar
    48    30    32   ar
    49    30    28   ar
    50    71    74    1
    51    71    72    1
    52    66    68   ar
    53    65    67   ar
    54    32    33   ar
    55    27    28    1
    56    74    76    1
    57    16    11   am
    58    28    29   ar
    59    12    11    2
    60    72    73    2
    61    11    10    1
    62    33    31   ar
    63     4     3    2
    64    68    69   ar
    65    67    69   ar
    66    29    31   ar
    67   200   197    1
    68     3     2    1
    69    78    79    1
    70     9    10    1
    71   145   144    1
    72    10    13    1
    73   198   199    2
    74   198   197    1
    75     6     5    1
    76     6     7    1
    77   197   196    1
    78   184   185    2
    79   184   183    1
    80   187   186    1
    81     2     5    1
    82     2     1    1
    83    79    80    1
    84    79    82    1
    85    13    14    1
    86    13    15    1
    87   144   142   ar
    88   144   143   ar
    89   186   183    1
    90   186   188    1
    91    83    82    1
    92    80    81    2
    93   196   191   am
    94   210   208   ar
    95   210   211   ar
    96   171   172    1
    97   142   140   ar
    98   183   182    1
    99     7     8    1
   100   208   206   ar
   101   182   173   am
   102   143   141   ar
   103   203   204    2
   104   203   202    1
   105   173   172    1
   106   173   174    2
   107   189   190    1
   108   211   209   ar
   109   191   192    2
   110   191   190    1
   111   172   175    1
   112   206   205    1
   113   206   207   ar
   114    90    89    1
   115   140   139   ar
   116    99    98    1
   117   205   202    1
   118   201   202    1
   119   141   139   ar
   120   190   193    1
   121   209   207   ar
   122   139   138    1
   123   105   104    1
   124   175   176    1
   125    89    88    1
   126    89    91    1
   127   153   152    1
   128   193   194    1
   129   193   195    1
   130    97    98    1
   131    97    96    1
   132    88    85    1
   133   137   136    2
   134    84    85    1
   135   152   151    1
   136   106   104    1
   137   104   101    1
   138   176   177    1
   139    96    93    1
   140   138   135    1
   141   133   132    1
   142   181   179    1
   143    85    86    1
   144   180   179    1
   145   136   135    1
   146   179   178    2
   147   132   131    1
   148    92    86   am
   149    92    93    1
   150   161   159    1
   151   135   134    1
   152   103   102    2
   153   178   177    1
   154    86    87    2
   155   159   158    1
   156   101   102    1
   157   101   100    1
   158   151   150    1
   159    93    94    1
   160   102   107   am
   161   160   158    1
   162   158   155    1
   163   150   147    1
   164    94    95    2
   165   131   130    1
   166   129   128    2
   167   107   108    1
   168   155   154    1
   169   155   156    1
   170   110   109    2
   171   127   130    1
   172   127   128    1
   173   127   126    1
   174   109   108    1
   175   109   118   am
   176   108   111    1
   177   118   119    1
   178   170   168   ar
   179   119   122    1
   180   119   120    1
   181   167   168    1
   182   167   166    1
   183   147   148    1
   184   147   146    1
   185   149   148    2
   186   122   123    1
   187   157   156    2
   188   162   163    1
   189   116   115    1
   190   123   124    1
   191   163   166    1
   192   163   164    1
   193   124   125    1
   194   168   169   ar
   195   115   117    1
   196   115   114    2
   197   113   114    1
   198   113   112    1
   199   120   121    2
   200   111   112    1
   201   165   164    2
