@<TRIPOS>MOLECULE
tmp/2wcgA01.pdb
 144 139 0 0 0
SMALL
GASTEIGER

@<TRIPOS>ATOM
      1  N        -30.4370  -13.6180  -45.7210 N.3   122  ASP122     -0.1225
      2  CA       -30.0430  -12.2930  -45.2570 C.3   122  ASP122      0.1805
      3  C        -29.1700  -11.6010  -46.3350 C.2   122  ASP122      0.2597
      4  O        -29.1690  -10.3770  -46.4600 O.2   122  ASP122     -0.2718
      5  CB       -29.3120  -12.3780  -43.9090 C.3   122  ASP122      0.1424
      6  CG       -28.1580  -13.3980  -43.9310 C.2   122  ASP122      0.3668
      7  OD1      -28.2860  -14.4700  -44.6030 O.co2 122  ASP122     -0.2456
      8  OD2      -27.1080  -13.1050  -43.2930 O.co2 122  ASP122     -0.2456
      9  N        -28.4560  -12.3970  -47.1290 N.am  123  PHE123     -0.1976
     10  CA       -27.6310  -11.8560  -48.2270 C.3   123  PHE123      0.1639
     11  C        -28.4520  -11.6760  -49.4960 C.2   123  PHE123      0.2290
     12  O        -28.0810  -12.2130  -50.5510 O.2   123  PHE123     -0.2864
     13  CB       -26.3550  -12.6840  -48.4500 C.3   123  PHE123      0.0560
     14  CG       -25.2940  -12.3500  -47.4300 C.ar  123  PHE123     -0.0200
     15  CD1      -25.2210  -13.0410  -46.2260 C.ar  123  PHE123     -0.0042
     16  CD2      -24.4600  -11.2520  -47.6170 C.ar  123  PHE123     -0.0042
     17  CE1      -24.3200  -12.6650  -45.2480 C.ar  123  PHE123     -0.0003
     18  CE2      -23.5350  -10.8890  -46.6780 C.ar  123  PHE123     -0.0003
     19  CZ       -23.4600  -11.5910  -45.4760 C.ar  123  PHE123     -0.0000
     20  N        -34.1710  -20.8520  -46.8120 N.3   174  TRP174     -0.1241
     21  CA       -34.1430  -20.2050  -45.4920 C.3   174  TRP174      0.1605
     22  C        -35.5540  -20.1810  -44.9080 C.2   174  TRP174      0.2264
     23  O        -35.7800  -20.6870  -43.7920 O.2   174  TRP174     -0.2867
     24  CB       -33.5470  -18.7790  -45.5610 C.3   174  TRP174      0.0550
     25  CG       -32.0370  -18.7240  -45.4150 C.ar  174  TRP174      0.0003
     26  CD1      -31.3070  -18.0340  -44.4560 C.ar  174  TRP174      0.0946
     27  CD2      -31.0780  -19.4250  -46.2190 C.ar  174  TRP174      0.0152
     28  NE1      -29.9630  -18.2310  -44.6460 N.ar  174  TRP174     -0.2442
     29  CE2      -29.7960  -19.0890  -45.7210 C.ar  174  TRP174      0.0810
     30  CE3      -31.1790  -20.2590  -47.3580 C.ar  174  TRP174      0.0012
     31  CZ2      -28.6250  -19.5920  -46.3010 C.ar  174  TRP174      0.0191
     32  CZ3      -30.0220  -20.7590  -47.9190 C.ar  174  TRP174      0.0001
     33  CH2      -28.7550  -20.4300  -47.4010 C.ar  174  TRP174      0.0015
     34  N        -32.2020  -24.6120  -44.1840 N.3   229  ASN229     -0.1225
     35  CA       -30.9720  -24.0040  -43.6830 C.3   229  ASN229      0.1785
     36  C        -31.1010  -23.7690  -42.1730 C.2   229  ASN229      0.2597
     37  O        -32.0650  -23.1450  -41.7500 O.2   229  ASN229     -0.2718
     38  CB       -30.6790  -22.6860  -44.3450 C.3   229  ASN229      0.1169
     39  CG       -29.4620  -22.0000  -43.7410 C.2   229  ASN229      0.2627
     40  OD1      -28.3330  -22.4840  -43.8920 O.2   229  ASN229     -0.2716
     41  ND2      -29.6840  -20.9220  -43.0040 N.am  229  ASN229     -0.0877
     42  N        -30.1550  -24.2320  -41.3620 N.am  230  GLU230     -0.1979
     43  CA       -30.2490  -23.9720  -39.9210 C.3   230  GLU230      0.1602
     44  C        -31.6680  -24.0460  -39.3210 C.2   230  GLU230      0.2287
     45  O        -32.2350  -23.0390  -38.8490 O.2   230  GLU230     -0.2864
     46  CB       -29.6010  -22.6250  -39.6020 C.3   230  GLU230      0.0415
     47  CG       -28.1960  -22.6670  -40.1100 C.3   230  GLU230      0.1163
     48  CD       -27.3420  -21.5690  -39.5620 C.2   230  GLU230      0.3649
     49  OE1      -27.9530  -20.5770  -39.1170 O.co2 230  GLU230     -0.2457
     50  OE2      -26.0880  -21.7080  -39.5910 O.co2 230  GLU230     -0.2457
     51  N        -35.5830  -14.0900  -34.0160 N.3   239  TYR239     -0.1241
     52  CA       -34.4730  -14.3810  -34.9200 C.3   239  TYR239      0.1605
     53  C        -34.6340  -13.4630  -36.0940 C.2   239  TYR239      0.2264
     54  O        -35.7150  -13.3900  -36.6820 O.2   239  TYR239     -0.2867
     55  CB       -34.4410  -15.8300  -35.3840 C.3   239  TYR239      0.0534
     56  CG       -33.1220  -16.1970  -36.0860 C.ar  239  TYR239     -0.0201
     57  CD1      -31.9780  -16.5060  -35.3550 C.ar  239  TYR239     -0.0009
     58  CD2      -33.0210  -16.1790  -37.4870 C.ar  239  TYR239     -0.0009
     59  CE1      -30.7810  -16.8430  -36.0160 C.ar  239  TYR239      0.0417
     60  CE2      -31.8400  -16.5410  -38.1480 C.ar  239  TYR239      0.0417
     61  CZ       -30.7350  -16.8610  -37.4240 C.ar  239  TYR239      0.1957
     62  OH       -29.5770  -17.2160  -38.0670 O.3   239  TYR239     -0.2866
     63  N        -33.4430  -12.7940  -39.3030 N.3   241  PHE241     -0.1241
     64  CA       -33.7070  -12.9230  -40.7230 C.3   241  PHE241      0.1605
     65  C        -34.4040  -14.2250  -41.1040 C.2   241  PHE241      0.2264
     66  O        -34.8490  -14.9910  -40.2220 O.2   241  PHE241     -0.2867
     67  CB       -32.4510  -12.7200  -41.5480 C.3   241  PHE241      0.0534
     68  CG       -31.3220  -13.5490  -41.1180 C.ar  241  PHE241     -0.0203
     69  CD1      -31.0500  -14.7590  -41.7540 C.ar  241  PHE241     -0.0042
     70  CD2      -30.4710  -13.0980  -40.1080 C.ar  241  PHE241     -0.0042
     71  CE1      -29.9570  -15.5240  -41.3500 C.ar  241  PHE241     -0.0003
     72  CE2      -29.4100  -13.8560  -39.6970 C.ar  241  PHE241     -0.0003
     73  CZ       -29.1330  -15.0530  -40.3300 C.ar  241  PHE241     -0.0000
     74  N        -25.3790  -26.3580  -36.9680 N.3   279  GLN279     -0.1245
     75  CA       -24.1610  -26.4130  -36.1220 C.3   279  GLN279      0.1566
     76  C        -23.7750  -27.8640  -35.7390 C.2   279  GLN279      0.2260
     77  O        -24.6280  -28.6390  -35.4070 O.2   279  GLN279     -0.2867
     78  CB       -24.3700  -25.5580  -34.8280 C.3   279  GLN279      0.0367
     79  CG       -24.9480  -24.1790  -35.0800 C.3   279  GLN279      0.0905
     80  CD       -24.2650  -23.5070  -36.2870 C.2   279  GLN279      0.2608
     81  OE1      -23.0460  -23.6580  -36.4930 O.2   279  GLN279     -0.2717
     82  NE2      -25.0580  -22.7940  -37.1170 N.am  279  GLN279     -0.0878
     83  N        -20.1730  -22.4110  -37.2790 N.3   308  TYR308     -0.1241
     84  CA       -20.2320  -21.1640  -36.4800 C.3   308  TYR308      0.1605
     85  C        -20.0240  -21.4240  -35.0120 C.2   308  TYR308      0.2264
     86  O        -19.4420  -20.5990  -34.3400 O.2   308  TYR308     -0.2867
     87  CB       -21.5380  -20.3630  -36.7270 C.3   308  TYR308      0.0534
     88  CG       -21.6660  -19.9970  -38.2050 C.ar  308  TYR308     -0.0201
     89  CD1      -22.5330  -20.7150  -39.0570 C.ar  308  TYR308     -0.0009
     90  CD2      -20.8900  -18.9460  -38.7560 C.ar  308  TYR308     -0.0009
     91  CE1      -22.5980  -20.4170  -40.4490 C.ar  308  TYR308      0.0417
     92  CE2      -20.9830  -18.6160  -40.0960 C.ar  308  TYR308      0.0417
     93  CZ       -21.8220  -19.3710  -40.9420 C.ar  308  TYR308      0.1957
     94  OH       -21.8680  -19.0360  -42.2750 O.3   308  TYR308     -0.2866
     95  N        -21.4870  -24.6890  -44.9820 N.3   335  GLU335     -0.1245
     96  CA       -21.4390  -23.2180  -44.8140 C.3   335  GLU335      0.1567
     97  C        -20.4680  -22.7290  -43.7390 C.2   335  GLU335      0.2260
     98  O        -20.5260  -23.1490  -42.5840 O.2   335  GLU335     -0.2867
     99  CB       -22.8350  -22.6370  -44.5400 C.3   335  GLU335      0.0388
    100  CG       -22.9430  -21.1120  -44.8040 C.3   335  GLU335      0.1160
    101  CD       -24.1820  -20.4930  -44.1490 C.2   335  GLU335      0.3649
    102  OE1      -25.3370  -20.7500  -44.5550 O.co2 335  GLU335     -0.2457
    103  OE2      -24.0150  -19.7380  -43.1860 O.co2 335  GLU335     -0.2457
    104  N        -18.1350  -18.7960  -42.8460 N.3   337  CYS337     -0.1235
    105  CA       -17.5550  -17.4550  -43.1890 C.3   337  CYS337      0.1677
    106  C        -17.0050  -16.8770  -41.9140 C.2   337  CYS337      0.2270
    107  O        -17.4910  -17.2410  -40.8320 O.2   337  CYS337     -0.2867
    108  CB       -18.5560  -16.4480  -43.7860 C.3   337  CYS337      0.0956
    109  SG       -20.0020  -15.9970  -42.7610 S.3   337  CYS337     -0.0801
    110  N        -18.4700  -13.0000  -38.8720 N.3   340  SER340     -0.1217
    111  CA       -19.8770  -13.1500  -38.4620 C.3   340  SER340      0.1889
    112  C        -20.1650  -12.7000  -37.0100 C.2   340  SER340      0.2288
    113  O        -21.3120  -12.2890  -36.6930 O.2   340  SER340     -0.2866
    114  CB       -20.3190  -14.6180  -38.6350 C.3   340  SER340      0.2089
    115  OG       -19.1650  -15.4880  -38.5370 O.3   340  SER340     -0.2183
    116  N        -19.3310  -19.6620  -47.8010 N.3   376  TRP376     -0.1241
    117  CA       -20.5750  -18.9160  -47.9620 C.3   376  TRP376      0.1605
    118  C        -20.4460  -17.9540  -49.2060 C.2   376  TRP376      0.2264
    119  O        -19.9290  -18.3610  -50.2330 O.2   376  TRP376     -0.2867
    120  CB       -20.8990  -18.2510  -46.5980 C.3   376  TRP376      0.0550
    121  CG       -22.2380  -17.5780  -46.3830 C.ar  376  TRP376      0.0003
    122  CD1      -22.4870  -16.5130  -45.5220 C.ar  376  TRP376      0.0946
    123  CD2      -23.5020  -17.8730  -47.0120 C.ar  376  TRP376      0.0152
    124  NE1      -23.8000  -16.1420  -45.5860 N.ar  376  TRP376     -0.2442
    125  CE2      -24.4580  -16.9530  -46.4790 C.ar  376  TRP376      0.0810
    126  CE3      -23.9280  -18.8200  -47.9640 C.ar  376  TRP376      0.0012
    127  CZ2      -25.8100  -16.9460  -46.8770 C.ar  376  TRP376      0.0191
    128  CZ3      -25.2820  -18.8050  -48.3760 C.ar  376  TRP376      0.0001
    129  CH2      -26.2130  -17.8690  -47.8180 C.ar  376  TRP376      0.0015
    130  N        -26.1760   -7.9330  -41.7740 N.3   391  ASN391     -0.1240
    131  CA       -25.4070   -9.0020  -41.1460 C.3   391  ASN391      0.1653
    132  C        -24.1320   -9.2610  -41.9970 C.2   391  ASN391      0.2266
    133  O        -23.9160  -10.3770  -42.4960 O.2   391  ASN391     -0.2867
    134  CB       -26.3130  -10.2170  -41.0100 C.3   391  ASN391      0.1155
    135  CG       -25.6540  -11.4470  -40.2930 C.2   391  ASN391      0.2627
    136  OD1      -25.9270  -12.5970  -40.6540 O.2   391  ASN391     -0.2716
    137  ND2      -24.8930  -11.2120  -39.2780 N.am  391  ASN391     -0.0877
    138  N        -20.3950   -9.8340  -43.4180 N.3   393  VAL393     -0.1245
    139  CA       -19.3470  -10.7880  -43.0660 C.3   393  VAL393      0.1561
    140  C        -18.1790  -10.6170  -44.0560 C.2   393  VAL393      0.2260
    141  O        -18.1840   -9.7260  -44.8780 O.2   393  VAL393     -0.2867
    142  CB       -19.9140  -12.2890  -42.9950 C.3   393  VAL393      0.0252
    143  CG1      -21.1300  -12.3970  -42.0660 C.3   393  VAL393      0.0019
    144  CG2      -20.3210  -12.7930  -44.3820 C.3   393  VAL393      0.0019
@<TRIPOS>BOND
     1    12    11    2
     2   119   118    2
     3    11    10    1
     4   118   117    1
     5    13    10    1
     6    13    14    1
     7   128   126   ar
     8   128   129   ar
     9    10     9    1
    10   126   123   ar
    11   117   116    1
    12   117   120    1
    13    32    33   ar
    14    32    30   ar
    15   129   127   ar
    16    16    14   ar
    17    16    18   ar
    18    14    15   ar
    19    33    31   ar
    20    30    27   ar
    21     9     3   am
    22   123   125   ar
    23   123   121   ar
    24   127   125   ar
    25    20    21    1
    26    18    19   ar
    27   120   121    1
    28   125   124   ar
    29     4     3    2
    30   121   122   ar
    31     3     2    1
    32    31    29   ar
    33    15    17   ar
    34    27    29   ar
    35    27    25   ar
    36    29    28   ar
    37     1     2    1
    38   124   122   ar
    39    24    21    1
    40    24    25    1
    41    21    22    1
    42    19    17   ar
    43    25    26   ar
    44     2     5    1
    45    95    96    1
    46    22    23    2
    47   141   140    2
    48    96    99    1
    49    96    97    1
    50   100    99    1
    51   100   101    1
    52    28    26   ar
    53     7     6   ar
    54   102   101   ar
    55   144   142    1
    56    38    39    1
    57    38    35    1
    58    34    35    1
    59   101   103   ar
    60   140   139    1
    61     6     5    1
    62     6     8   ar
    63    40    39    2
    64   108   105    1
    65   108   109    1
    66    39    41   am
    67    97    98    2
    68    35    36    1
    69   138   139    1
    70   105   104    1
    71   105   106    1
    72   139   142    1
    73   142   143    1
    74   133   132    2
    75    94    93    1
    76    36    37    2
    77    36    42   am
    78   132   131    1
    79   106   107    2
    80   130   131    1
    81    69    71   ar
    82    69    68   ar
    83    67    68    1
    84    67    64    1
    85    42    43    1
    86    71    73   ar
    87   131   134    1
    88    68    70   ar
    89    65    64    1
    90    65    66    2
    91   134   135    1
    92    93    91   ar
    93    93    92   ar
    94    64    63    1
    95   136   135    2
    96    91    89   ar
    97    73    72   ar
    98   135   137   am
    99    47    46    1
   100    47    48    1
   101    70    72   ar
   102    92    90   ar
   103    43    46    1
   104    43    44    1
   105    50    48   ar
   106    48    49   ar
   107    44    45    2
   108    89    88   ar
   109   110   111    1
   110    90    88   ar
   111   114   115    1
   112   114   111    1
   113   111   112    1
   114    88    87    1
   115    60    58   ar
   116    60    61   ar
   117    62    61    1
   118    58    56   ar
   119    61    59   ar
   120    83    84    1
   121    82    80   am
   122   112   113    2
   123    74    75    1
   124    87    84    1
   125    54    53    2
   126    81    80    2
   127    84    85    1
   128    80    79    1
   129    75    76    1
   130    75    78    1
   131    53    52    1
   132    56    55    1
   133    56    57   ar
   134    59    57   ar
   135    76    77    2
   136    55    52    1
   137    79    78    1
   138    85    86    2
   139    52    51    1
