@<TRIPOS>MOLECULE
tmp/2wchA00.pdb
 200 189 0 0 0
SMALL
GASTEIGER

@<TRIPOS>ATOM
      1  N         -2.6360  -14.5220   17.5170 N.3     5  MET5       -0.1245
      2  CA        -1.4500  -13.9890   16.8530 C.3     5  MET5        0.1570
      3  C         -1.6830  -13.9770   15.3260 C.2     5  MET5        0.2261
      4  O         -1.1550  -13.0970   14.6270 O.2     5  MET5       -0.2867
      5  CB        -0.2170  -14.8340   17.1880 C.3     5  MET5        0.0387
      6  CG         1.0220  -14.2260   16.5930 C.3     5  MET5        0.0595
      7  SD         1.6160  -12.7790   17.5480 S.3     5  MET5       -0.1393
      8  CE         1.8950  -13.6830   19.0590 C.3     5  MET5        0.0692
      9  N         -3.7310  -10.7460   14.6160 N.3     8  VAL8       -0.1231
     10  CA        -2.8350   -9.6170   14.7430 C.3     8  VAL8        0.1692
     11  C         -1.9550   -9.4440   13.4700 C.2     8  VAL8        0.2592
     12  O         -1.8000   -8.3160   12.9190 O.2     8  VAL8       -0.2718
     13  CB        -1.9870   -9.7340   16.0190 C.3     8  VAL8        0.0266
     14  CG1       -1.0650   -8.5420   16.0960 C.3     8  VAL8        0.0020
     15  CG2       -2.9450   -9.7050   17.2920 C.3     8  VAL8        0.0020
     16  N         -1.3290  -10.5460   13.0760 N.am    9  THR9       -0.1953
     17  CA        -0.4710  -10.5500   11.8960 C.3     9  THR9        0.1897
     18  C         -1.2810  -10.2380   10.6500 C.2     9  THR9        0.2313
     19  O         -0.8340   -9.3880    9.8460 O.2     9  THR9       -0.2863
     20  CB         0.2260  -11.9450   11.7340 C.3     9  THR9        0.1794
     21  OG1        0.9840  -12.2310   12.9240 O.3     9  THR9       -0.2208
     22  CG2        1.1330  -11.9680   10.5300 C.3     9  THR9        0.0378
     23  N         -2.1900   -6.2970   10.8690 N.3    12  PHE12      -0.1241
     24  CA        -0.9400   -5.5040   10.8150 C.3    12  PHE12       0.1605
     25  C         -0.2980   -5.5270    9.4030 C.2    12  PHE12       0.2264
     26  O          0.1470   -4.4760    8.8900 O.2    12  PHE12      -0.2867
     27  CB         0.0250   -6.0290   11.8830 C.3    12  PHE12       0.0534
     28  CG         1.3290   -5.1950   12.0040 C.ar   12  PHE12      -0.0203
     29  CD1        1.3530   -4.0350   12.6930 C.ar   12  PHE12      -0.0042
     30  CD2        2.5010   -5.6860   11.4790 C.ar   12  PHE12      -0.0042
     31  CE1        2.5710   -3.2970   12.8290 C.ar   12  PHE12      -0.0003
     32  CE2        3.6880   -4.9820   11.6040 C.ar   12  PHE12      -0.0003
     33  CZ         3.6800   -3.7890   12.2740 C.ar   12  PHE12      -0.0000
     34  N          3.3040  -10.2760    4.1510 N.3    33  PHE33      -0.1241
     35  CA         3.7520  -10.2200    5.5470 C.3    33  PHE33       0.1605
     36  C          3.5570  -11.5080    6.3210 C.2    33  PHE33       0.2264
     37  O          4.3470  -11.8140    7.2490 O.2    33  PHE33      -0.2867
     38  CB         3.0590   -9.0860    6.3110 C.3    33  PHE33       0.0534
     39  CG         3.7410   -8.7480    7.6050 C.ar   33  PHE33      -0.0203
     40  CD1        4.9190   -8.0370    7.6010 C.ar   33  PHE33      -0.0042
     41  CD2        3.2080   -9.1660    8.8070 C.ar   33  PHE33      -0.0042
     42  CE1        5.5660   -7.7460    8.7900 C.ar   33  PHE33      -0.0003
     43  CE2        3.9100   -8.9130   10.0080 C.ar   33  PHE33      -0.0003
     44  CZ         5.0390   -8.2060    9.9750 C.ar   33  PHE33      -0.0000
     45  N          6.4590  -13.8080    7.1850 N.3    36  PHE36      -0.1227
     46  CA         7.2670  -13.5350    8.4100 C.3    36  PHE36       0.1736
     47  C          7.3670  -14.8170    9.2570 C.2    36  PHE36       0.2595
     48  O          8.3920  -15.0610    9.8740 O.2    36  PHE36      -0.2718
     49  CB         6.6300  -12.4370    9.2300 C.3    36  PHE36       0.0547
     50  CG         7.3160  -12.1600   10.5340 C.ar   36  PHE36      -0.0202
     51  CD1        8.3140  -11.1900   10.5880 C.ar   36  PHE36      -0.0042
     52  CD2        6.9130  -12.7770   11.7020 C.ar   36  PHE36      -0.0042
     53  CE1        8.9860  -10.8800   11.8040 C.ar   36  PHE36      -0.0003
     54  CE2        7.5760  -12.4760   12.9180 C.ar   36  PHE36      -0.0003
     55  CZ         8.5950  -11.5350   12.9570 C.ar   36  PHE36      -0.0000
     56  N          6.2860  -15.5670    9.4140 N.am   37  TRP37      -0.1976
     57  CA         6.2310  -16.6870   10.3150 C.3    37  TRP37       0.1640
     58  C          6.7370  -18.0270    9.7490 C.2    37  TRP37       0.2290
     59  O          6.7630  -19.0380   10.4570 O.2    37  TRP37      -0.2864
     60  CB         4.7890  -16.9270   10.8240 C.3    37  TRP37       0.0576
     61  CG         4.3380  -15.8350   11.7610 C.ar   37  TRP37       0.0006
     62  CD1        3.4220  -14.8390   11.4980 C.ar   37  TRP37       0.0946
     63  CD2        4.8070  -15.6270   13.1070 C.ar   37  TRP37       0.0152
     64  NE1        3.2570  -14.0630   12.6110 N.ar   37  TRP37      -0.2442
     65  CE2        4.1070  -14.4930   13.6090 C.ar   37  TRP37       0.0810
     66  CE3        5.7490  -16.2850   13.9310 C.ar   37  TRP37       0.0012
     67  CZ2        4.2970  -13.9840   14.9010 C.ar   37  TRP37       0.0191
     68  CZ3        5.9320  -15.7870   15.2530 C.ar   37  TRP37       0.0001
     69  CH2        5.1940  -14.6330   15.7080 C.ar   37  TRP37       0.0015
     70  N          8.8410   -2.3340    9.3770 N.3    52  ILE52      -0.1245
     71  CA         8.0910   -2.5210   10.6550 C.3    52  ILE52       0.1561
     72  C          7.8950   -1.2060   11.3730 C.2    52  ILE52       0.2260
     73  O          6.8250   -0.9690   11.9770 O.2    52  ILE52      -0.2867
     74  CB         8.7290   -3.6210   11.5340 C.3    52  ILE52       0.0252
     75  CG1        8.4860   -4.9950   10.8780 C.3    52  ILE52       0.0019
     76  CG2        8.2300   -3.5250   13.0120 C.3    52  ILE52       0.0019
     77  CD1        9.2470   -6.1620   11.4330 C.3    52  ILE52       0.0001
     78  N          4.2310   -0.0190   12.0230 N.3    56  SER56      -0.1217
     79  CA         3.8250    0.3300   13.3830 C.3    56  SER56       0.1889
     80  C          3.2870    1.7560   13.5800 C.2    56  SER56       0.2288
     81  O          2.3760    2.0100   14.3360 O.2    56  SER56      -0.2866
     82  CB         5.0080    0.1960   14.3250 C.3    56  SER56       0.2089
     83  OG         5.4180   -1.1320   14.3630 O.3    56  SER56      -0.2183
     84  N          1.8760    2.1870   17.1610 N.3    61  LEU61      -0.1231
     85  CA         2.3280    1.0770   17.9990 C.3    61  LEU61       0.1693
     86  C          3.7140    1.2730   18.5080 C.2    61  LEU61       0.2591
     87  O          4.1840    0.4830   19.3470 O.2    61  LEU61      -0.2718
     88  CB         2.2180   -0.2670   17.2900 C.3    61  LEU61       0.0284
     89  CG         0.7660   -0.5960   16.9110 C.3    61  LEU61       0.0019
     90  CD1        0.7810   -1.9320   16.2380 C.3    61  LEU61       0.0001
     91  CD2       -0.2060   -0.6050   18.0860 C.3    61  LEU61       0.0001
     92  N          4.3860    2.3050   17.9880 N.am   62  MET62      -0.1979
     93  CA         5.6850    2.7180   18.5380 C.3    62  MET62       0.1605
     94  C          5.5990    4.0780   19.1600 C.2    62  MET62       0.2287
     95  O          4.7350    4.8740   18.7710 O.2    62  MET62      -0.2864
     96  CB         6.7400    2.7260   17.4630 C.3    62  MET62       0.0413
     97  CG         7.2980    1.3480   17.3190 C.3    62  MET62       0.0598
     98  SD         8.3530    1.2190   15.9230 S.3    62  MET62      -0.1393
     99  CE         8.4530   -0.5300   15.9070 C.3    62  MET62       0.0692
    100  N         11.1090    5.0300   19.1780 N.3    66  VAL66      -0.1245
    101  CA        11.1060    3.9170   18.2300 C.3    66  VAL66       0.1561
    102  C         11.1490    2.5870   18.9670 C.2    66  VAL66       0.2260
    103  O         11.7550    1.6230   18.5390 O.2    66  VAL66      -0.2867
    104  CB        12.2080    4.0900   17.1430 C.3    66  VAL66       0.0252
    105  CG1       11.9040    3.1590   15.9200 C.3    66  VAL66       0.0019
    106  CG2       12.2680    5.5300   16.7160 C.3    66  VAL66       0.0019
    107  N          8.3160   -0.1270   21.2540 N.3    68  MET68      -0.1245
    108  CA         6.8700   -0.3790   21.4140 C.3    68  MET68       0.1570
    109  C          6.1890    0.5560   22.3700 C.2    68  MET68       0.2261
    110  O          6.7220    0.8560   23.4520 O.2    68  MET68      -0.2867
    111  CB         6.7390   -1.7970   21.9730 C.3    68  MET68       0.0387
    112  CG         5.2530   -2.1300   22.5010 C.3    68  MET68       0.0595
    113  SD         5.1960   -3.8510   23.0180 S.3    68  MET68      -0.1393
    114  CE         6.4230   -3.8510   24.3490 C.3    68  MET68       0.0692
    115  N         -0.0350   -0.9440   22.2320 N.3    73  MET73      -0.1245
    116  CA         0.0640   -2.3370   21.8450 C.3    73  MET73       0.1570
    117  C         -0.9450   -3.2580   22.5940 C.2    73  MET73       0.2261
    118  O         -1.5950   -4.0970   21.9730 O.2    73  MET73      -0.2867
    119  CB         1.5240   -2.8590   21.9690 C.3    73  MET73       0.0387
    120  CG         1.5640   -4.3250   21.6430 C.3    73  MET73       0.0595
    121  SD         1.4690   -4.5180   19.8260 S.3    73  MET73      -0.1393
    122  CE         2.9210   -3.5420   19.4330 C.3    73  MET73       0.0692
    123  N         -4.3150   -2.6000   21.1070 N.3    76  TYR76      -0.1241
    124  CA        -4.3910   -3.2470   19.7690 C.3    76  TYR76       0.1605
    125  C         -4.6170   -4.7360   19.8430 C.2    76  TYR76       0.2264
    126  O         -5.5210   -5.2870   19.1550 O.2    76  TYR76      -0.2867
    127  CB        -3.1300   -2.9450   18.9740 C.3    76  TYR76       0.0534
    128  CG        -3.0950   -3.4420   17.5560 C.ar   76  TYR76      -0.0201
    129  CD1       -3.9430   -2.9360   16.5760 C.ar   76  TYR76      -0.0009
    130  CD2       -2.1300   -4.4130   17.1820 C.ar   76  TYR76      -0.0009
    131  CE1       -3.9040   -3.3930   15.2720 C.ar   76  TYR76       0.0417
    132  CE2       -2.0880   -4.8640   15.8470 C.ar   76  TYR76       0.0417
    133  CZ        -2.9890   -4.3500   14.9200 C.ar   76  TYR76       0.1957
    134  OH        -2.9310   -4.7860   13.6080 O.3    76  TYR76      -0.2866
    135  N          2.2800  -10.8930   25.0410 N.3    90  MET90      -0.1245
    136  CA         2.9760  -10.3520   23.8710 C.3    90  MET90       0.1570
    137  C          3.7580   -9.0870   24.1740 C.2    90  MET90       0.2261
    138  O          4.8820   -8.8990   23.6960 O.2    90  MET90      -0.2867
    139  CB         1.9680  -10.1850   22.7060 C.3    90  MET90       0.0387
    140  CG         2.6320   -9.6640   21.5160 C.3    90  MET90       0.0595
    141  SD         1.5760   -9.9450   20.1320 S.3    90  MET90      -0.1393
    142  CE         2.3430   -8.9250   18.9040 C.3    90  MET90       0.0692
    143  N          7.8630   -8.8500   23.6550 N.3    94  ILE94      -0.1245
    144  CA         8.4700   -7.8420   22.8090 C.3    94  ILE94       0.1561
    145  C          9.3540   -6.9770   23.6900 C.2    94  ILE94       0.2260
    146  O         10.4700   -6.6700   23.2770 O.2    94  ILE94      -0.2867
    147  CB         7.4330   -6.9130   22.1350 C.3    94  ILE94       0.0252
    148  CG1        6.6690   -7.7580   21.0920 C.3    94  ILE94       0.0019
    149  CG2        8.1480   -5.7290   21.4740 C.3    94  ILE94       0.0019
    150  CD1        5.4930   -7.0040   20.4770 C.3    94  ILE94       0.0001
    151  N         13.3100   -6.2110   23.2660 N.3    98  GLU98      -0.1245
    152  CA        13.8380   -4.8510   23.1700 C.3    98  GLU98       0.1567
    153  C         15.0140   -4.6540   24.0820 C.2    98  GLU98       0.2260
    154  O         16.0060   -4.0990   23.6550 O.2    98  GLU98      -0.2867
    155  CB        12.7630   -3.8250   23.5130 C.3    98  GLU98       0.0388
    156  CG        11.7840   -3.6310   22.2500 C.3    98  GLU98       0.1160
    157  CD        10.6480   -2.6450   22.4840 C.2    98  GLU98       0.3649
    158  OE1       10.2740   -2.3860   23.6570 O.co2  98  GLU98      -0.2457
    159  OE2       10.1110   -2.1630   21.4670 O.co2  98  GLU98      -0.2457
    160  N         17.9120   -2.3150   14.7890 N.3   110  ARG110     -0.1231
    161  CA        17.4170   -2.7130   16.1270 C.3   110  ARG110      0.1694
    162  C         16.0550   -3.4040   16.0220 C.2   110  ARG110      0.2591
    163  O         15.8360   -4.4690   16.5620 O.2   110  ARG110     -0.2718
    164  CB        17.2840   -1.4910   17.0320 C.3   110  ARG110      0.0321
    165  CG        17.0280   -1.8200   18.5170 C.3   110  ARG110      0.0489
    166  CD        17.1210   -0.5790   19.4030 C.3   110  ARG110      0.2205
    167  NE        16.3600    0.5000   18.7620 N.pl3 110  ARG110     -0.0865
    168  CZ        15.0340    0.5570   18.7190 C.cat 110  ARG110      0.5346
    169  NH1       14.3160   -0.3870   19.3360 N.pl3 110  ARG110      0.1354
    170  NH2       14.4200    1.5370   18.0560 N.pl3 110  ARG110      0.1354
    171  N         15.1600   -2.7680   15.2970 N.am  111  VAL111     -0.1980
    172  CA        13.8100   -3.2940   15.1810 C.3   111  VAL111      0.1595
    173  C         13.7580   -4.6540   14.5130 C.2   111  VAL111      0.2287
    174  O         13.0170   -5.5810   14.9470 O.2   111  VAL111     -0.2864
    175  CB        12.8850   -2.2590   14.4960 C.3   111  VAL111      0.0276
    176  CG1       11.5210   -2.9240   14.0420 C.3   111  VAL111      0.0022
    177  CG2       12.6350   -1.0650   15.4120 C.3   111  VAL111      0.0022
    178  N         14.9570   -7.1630   17.1270 N.3   114  VAL114     -0.1231
    179  CA        13.8560   -7.3780   18.1040 C.3   114  VAL114      0.1692
    180  C         12.7990   -8.3090   17.5080 C.2   114  VAL114      0.2591
    181  O         12.3420   -9.2250   18.1320 O.2   114  VAL114     -0.2718
    182  CB        13.2270   -6.0470   18.5610 C.3   114  VAL114      0.0266
    183  CG1       12.0680   -6.3040   19.5930 C.3   114  VAL114      0.0020
    184  CG2       14.2450   -5.2270   19.3130 C.3   114  VAL114      0.0020
    185  N         12.5090   -8.0970   16.2310 N.am  115  ALA115     -0.1980
    186  CA        11.5330   -8.9000   15.5420 C.3   115  ALA115      0.1597
    187  C         11.9490  -10.3490   15.4370 C.2   115  ALA115      0.2287
    188  O         11.1010  -11.2490   15.6240 O.2   115  ALA115     -0.2864
    189  CB        11.2570   -8.3140   14.1350 C.3   115  ALA115      0.0319
    190  N         11.5500  -11.8960   18.8340 N.3   118  PHE118     -0.1241
    191  CA        10.1410  -12.0600   19.1330 C.3   118  PHE118      0.1605
    192  C          9.6450  -13.3560   18.4200 C.2   118  PHE118      0.2264
    193  O          8.8940  -14.1120   19.0140 O.2   118  PHE118     -0.2867
    194  CB         9.3390  -10.8580   18.7380 C.3   118  PHE118      0.0534
    195  CG         7.8680  -11.0830   18.8800 C.ar  118  PHE118     -0.0203
    196  CD1        7.3120  -11.1430   20.1550 C.ar  118  PHE118     -0.0042
    197  CD2        7.0530  -11.1980   17.7650 C.ar  118  PHE118     -0.0042
    198  CE1        5.9120  -11.3060   20.3330 C.ar  118  PHE118     -0.0003
    199  CE2        5.6450  -11.4010   17.9520 C.ar  118  PHE118     -0.0003
    200  CZ         5.1300  -11.4680   19.2410 C.ar  118  PHE118     -0.0000
@<TRIPOS>BOND
     1    34    35    1
     2    35    38    1
     3    35    36    1
     4    38    39    1
     5    36    37    2
     6    45    46    1
     7    40    39   ar
     8    40    42   ar
     9    39    41   ar
    10    46    49    1
    11    46    47    1
    12    42    44   ar
    13    41    43   ar
    14    26    25    2
    15    49    50    1
    16    47    56   am
    17    47    48    2
    18    70    71    1
    19    25    24    1
    20    56    57    1
    21    58    57    1
    22    58    59    2
    23    19    18    2
    24    44    43   ar
    25    57    60    1
    26    22    20    1
    27    50    51   ar
    28    50    52   ar
    29    51    53   ar
    30    18    17    1
    31    71    72    1
    32    71    74    1
    33    24    23    1
    34    24    27    1
    35    60    61    1
    36    75    77    1
    37    75    74    1
    38    72    73    2
    39    30    32   ar
    40    30    28   ar
    41    62    61   ar
    42    62    64   ar
    43    74    76    1
    44    32    33   ar
    45    52    54   ar
    46    20    17    1
    47    20    21    1
    48    61    63   ar
    49    53    55   ar
    50    27    28    1
    51    17    16    1
    52    28    29   ar
    53    78    79    1
    54    33    31   ar
    55    64    65   ar
    56    29    31   ar
    57    54    55   ar
    58    12    11    2
    59    16    11   am
    60    63    65   ar
    61    63    66   ar
    62    79    80    1
    63    79    82    1
    64    11    10    1
    65    80    81    2
    66   134   133    1
    67    65    67   ar
    68    66    68   ar
    69   176   175    1
    70   189   186    1
    71    82    83    1
    72   175   172    1
    73   175   177    1
    74   173   174    2
    75   173   172    1
    76     9    10    1
    77     4     3    2
    78    10    13    1
    79   160   161    1
    80    67    69   ar
    81   133   131   ar
    82   133   132   ar
    83   172   171    1
    84    68    69   ar
    85   131   129   ar
    86   171   162   am
    87     3     2    1
    88   187   186    1
    89   187   188    2
    90   186   185    1
    91   132   130   ar
    92    99    98    1
    93   105   104    1
    94    98    97    1
    95    13    14    1
    96    13    15    1
    97   162   161    1
    98   162   163    2
    99   161   164    1
   100   185   180   am
   101    90    89    1
   102   129   128   ar
   103     6     5    1
   104     6     7    1
   105   106   104    1
   106     2     5    1
   107     2     1    1
   108    89    88    1
   109    89    91    1
   110   164   165    1
   111   178   179    1
   112   104   101    1
   113    84    85    1
   114   130   128   ar
   115    88    85    1
   116    97    96    1
   117    96    93    1
   118   180   179    1
   119   180   181    2
   120     7     8    1
   121   128   127    1
   122   197   199   ar
   123   197   195   ar
   124   199   200   ar
   125    92    86   am
   126    92    93    1
   127    85    86    1
   128   170   168    1
   129   179   182    1
   130   101   102    1
   131   101   100    1
   132   192   193    2
   133   192   191    1
   134    86    87    2
   135   165   166    1
   136    93    94    1
   137   103   102    2
   138   182   184    1
   139   182   183    1
   140   168   167    2
   141   168   169    1
   142   194   195    1
   143   194   191    1
   144   167   166    1
   145    95    94    2
   146   190   191    1
   147   195   196   ar
   148   142   141    1
   149   127   124    1
   150   126   125    2
   151   200   198   ar
   152   122   121    1
   153   124   125    1
   154   124   123    1
   155   121   120    1
   156   141   140    1
   157   196   198   ar
   158   150   148    1
   159   148   147    1
   160   107   108    1
   161   108   111    1
   162   108   109    1
   163   159   157   ar
   164   149   147    1
   165   140   139    1
   166   120   119    1
   167   116   119    1
   168   116   115    1
   169   116   117    1
   170   118   117    2
   171   111   112    1
   172   147   144    1
   173   156   157    1
   174   156   155    1
   175   109   110    2
   176   157   158   ar
   177   112   113    1
   178   139   136    1
   179   144   143    1
   180   144   145    1
   181   113   114    1
   182   152   151    1
   183   152   155    1
   184   152   153    1
   185   146   145    2
   186   154   153    2
   187   138   137    2
   188   136   137    1
   189   136   135    1
