@<TRIPOS>MOLECULE
tmp/2wcjA00.pdb
 211 201 0 0 0
SMALL
GASTEIGER

@<TRIPOS>ATOM
      1  N         -2.5900  -14.4800   17.5430 N.3     5  MET5       -0.1245
      2  CA        -1.4320  -13.9820   16.8060 C.3     5  MET5        0.1570
      3  C         -1.6920  -13.9530   15.3060 C.2     5  MET5        0.2261
      4  O         -1.2290  -13.0260   14.6270 O.2     5  MET5       -0.2867
      5  CB        -0.2440  -14.8680   17.1380 C.3     5  MET5        0.0387
      6  CG         1.0960  -14.2130   16.6460 C.3     5  MET5        0.0595
      7  SD         1.5740  -12.7290   17.6060 S.3     5  MET5       -0.1393
      8  CE         2.0940  -13.5150   19.0800 C.3     5  MET5        0.0692
      9  N         -3.7390  -10.7250   14.6600 N.3     8  VAL8       -0.1231
     10  CA        -2.9120   -9.5460   14.7300 C.3     8  VAL8        0.1692
     11  C         -2.0100   -9.4410   13.4990 C.2     8  VAL8        0.2592
     12  O         -1.8700   -8.3150   12.9150 O.2     8  VAL8       -0.2718
     13  CB        -2.0130   -9.6080   16.0090 C.3     8  VAL8        0.0266
     14  CG1       -1.0490   -8.4850   16.0670 C.3     8  VAL8        0.0020
     15  CG2       -2.8660   -9.5470   17.2970 C.3     8  VAL8        0.0020
     16  N         -1.4090  -10.5380   13.0800 N.am    9  THR9       -0.1953
     17  CA        -0.5240  -10.5290   11.9180 C.3     9  THR9        0.1897
     18  C         -1.3120  -10.1980   10.6670 C.2     9  THR9        0.2313
     19  O         -0.8050   -9.3420    9.8750 O.2     9  THR9       -0.2863
     20  CB         0.1000  -11.9040   11.7230 C.3     9  THR9        0.1794
     21  OG1        0.8740  -12.2240   12.9050 O.3     9  THR9       -0.2208
     22  CG2        1.0890  -11.9110   10.4970 C.3     9  THR9        0.0378
     23  N         -2.2030   -6.2510   10.8710 N.3    12  PHE12      -0.1298
     24  CA        -0.9740   -5.4260   10.8510 C.3    12  PHE12       0.1290
     25  C         -0.3780   -5.4900    9.4380 C.3    12  PHE12       0.2013
     26  O          0.0830   -4.4140    8.8810 O.3    12  PHE12      -0.2188
     27  CB        -0.0300   -5.9550   11.9020 C.3    12  PHE12       0.0480
     28  CG         1.2800   -5.1310   12.0260 C.ar   12  PHE12      -0.0206
     29  CD1        1.2840   -3.9340   12.6580 C.ar   12  PHE12      -0.0042
     30  CD2        2.4920   -5.6580   11.5840 C.ar   12  PHE12      -0.0042
     31  CE1        2.4760   -3.2580   12.8150 C.ar   12  PHE12      -0.0003
     32  CE2        3.6760   -4.9360   11.7790 C.ar   12  PHE12      -0.0003
     33  CZ         3.6180   -3.7300   12.3670 C.ar   12  PHE12      -0.0000
     34  N          3.2640  -10.1820    4.2160 N.3    33  PHE33      -0.1241
     35  CA         3.6890  -10.1240    5.6290 C.3    33  PHE33       0.1605
     36  C          3.4860  -11.4740    6.3420 C.2    33  PHE33       0.2264
     37  O          4.3310  -11.7800    7.2210 O.2    33  PHE33      -0.2867
     38  CB         3.0370   -9.0240    6.4230 C.3    33  PHE33       0.0534
     39  CG         3.7570   -8.7570    7.7040 C.ar   33  PHE33      -0.0203
     40  CD1        4.9390   -8.0190    7.7000 C.ar   33  PHE33      -0.0042
     41  CD2        3.2640   -9.2000    8.9310 C.ar   33  PHE33      -0.0042
     42  CE1        5.6070   -7.7260    8.9160 C.ar   33  PHE33      -0.0003
     43  CE2        3.9700   -8.9360   10.1170 C.ar   33  PHE33      -0.0003
     44  CZ         5.1560   -8.2080   10.0800 C.ar   33  PHE33      -0.0000
     45  N          6.4600  -13.7590    7.2500 N.3    36  PHE36      -0.1227
     46  CA         7.2760  -13.5280    8.4880 C.3    36  PHE36       0.1736
     47  C          7.3480  -14.7650    9.3740 C.2    36  PHE36       0.2595
     48  O          8.3990  -15.0330    9.9170 O.2    36  PHE36      -0.2718
     49  CB         6.6280  -12.3720    9.2580 C.3    36  PHE36       0.0547
     50  CG         7.3090  -12.0430   10.5800 C.ar   36  PHE36      -0.0202
     51  CD1        8.2980  -11.1100   10.6100 C.ar   36  PHE36      -0.0042
     52  CD2        6.9060  -12.6580   11.7960 C.ar   36  PHE36      -0.0042
     53  CE1        8.9230  -10.7680   11.8000 C.ar   36  PHE36      -0.0003
     54  CE2        7.5690  -12.3410   13.0190 C.ar   36  PHE36      -0.0003
     55  CZ         8.5800  -11.4210   13.0040 C.ar   36  PHE36      -0.0000
     56  N          6.2570  -15.5140    9.4880 N.am   37  TRP37      -0.1976
     57  CA         6.1770  -16.6580   10.3170 C.3    37  TRP37       0.1640
     58  C          6.6570  -17.9830    9.7220 C.2    37  TRP37       0.2290
     59  O          6.7470  -18.9590   10.4580 O.2    37  TRP37      -0.2864
     60  CB         4.7440  -16.7930   10.8640 C.3    37  TRP37       0.0576
     61  CG         4.3210  -15.7240   11.7700 C.ar   37  TRP37       0.0006
     62  CD1        3.4120  -14.7640   11.5200 C.ar   37  TRP37       0.0946
     63  CD2        4.7870  -15.5100   13.1030 C.ar   37  TRP37       0.0152
     64  NE1        3.2510  -13.9600   12.6090 N.ar   37  TRP37      -0.2442
     65  CE2        4.0820  -14.4040   13.6070 C.ar   37  TRP37       0.0810
     66  CE3        5.7210  -16.1770   13.9560 C.ar   37  TRP37       0.0012
     67  CZ2        4.2860  -13.8770   14.8920 C.ar   37  TRP37       0.0191
     68  CZ3        5.9230  -15.6800   15.2400 C.ar   37  TRP37       0.0001
     69  CH2        5.1840  -14.5400   15.6940 C.ar   37  TRP37       0.0015
     70  N          8.8500   -2.2350    9.3800 N.3    52  ILE52      -0.1245
     71  CA         8.0510   -2.4140   10.6110 C.3    52  ILE52       0.1561
     72  C          7.8680   -1.1520   11.3490 C.2    52  ILE52       0.2260
     73  O          6.7960   -0.8970   11.9250 O.2    52  ILE52      -0.2867
     74  CB         8.6840   -3.5570   11.5060 C.3    52  ILE52       0.0252
     75  CG1        8.5370   -4.8990   10.8680 C.3    52  ILE52       0.0019
     76  CG2        8.1330   -3.5540   12.9520 C.3    52  ILE52       0.0019
     77  CD1        9.4990   -5.9320   11.4040 C.3    52  ILE52       0.0001
     78  N          4.2130    0.1460   12.0410 N.3    56  SER56      -0.1217
     79  CA         3.8170    0.4120   13.4110 C.3    56  SER56       0.1889
     80  C          3.2490    1.8000   13.5690 C.2    56  SER56       0.2288
     81  O          2.3470    2.0520   14.3630 O.2    56  SER56      -0.2866
     82  CB         5.0080    0.2100   14.3340 C.3    56  SER56       0.2089
     83  OG         5.4270   -1.1480   14.3530 O.3    56  SER56      -0.2183
     84  N          1.8030    2.2320   17.2050 N.3    61  LEU61      -0.1231
     85  CA         2.2450    1.1400   18.0060 C.3    61  LEU61       0.1693
     86  C          3.6560    1.3140   18.5180 C.2    61  LEU61       0.2591
     87  O          4.1240    0.5600   19.3870 O.2    61  LEU61      -0.2718
     88  CB         2.1590   -0.2220   17.3020 C.3    61  LEU61       0.0284
     89  CG         0.7220   -0.5390   16.8860 C.3    61  LEU61       0.0019
     90  CD1        0.7160   -1.9130   16.1950 C.3    61  LEU61       0.0001
     91  CD2       -0.1840   -0.5930   18.0640 C.3    61  LEU61       0.0001
     92  N          4.2990    2.3600   18.0050 N.am   62  MET62      -0.1979
     93  CA         5.6330    2.7380   18.5640 C.3    62  MET62       0.1605
     94  C          5.6010    4.1150   19.1360 C.2    62  MET62       0.2287
     95  O          4.7750    4.9470   18.7280 O.2    62  MET62      -0.2864
     96  CB         6.7360    2.6210   17.5630 C.3    62  MET62       0.0413
     97  CG         7.1340    1.2160   17.2890 C.3    62  MET62       0.0598
     98  SD         8.3240    1.3040   15.9290 S.3    62  MET62      -0.1393
     99  CE         8.3360   -0.3370   15.7510 C.3    62  MET62       0.0692
    100  N         11.0830    5.1250   19.2200 N.3    66  VAL66      -0.1231
    101  CA        11.1470    4.0370   18.2370 C.3    66  VAL66       0.1692
    102  C         11.1840    2.6880   18.8900 C.2    66  VAL66       0.2592
    103  O         11.8220    1.7450   18.4330 O.2    66  VAL66      -0.2718
    104  CB        12.2540    4.2520   17.2270 C.3    66  VAL66       0.0266
    105  CG1       11.8970    3.4780   16.0150 C.3    66  VAL66       0.0020
    106  CG2       12.3190    5.7270   16.7720 C.3    66  VAL66       0.0020
    107  N         10.4100    2.6390   20.0020 N.am   67  ARG67      -0.1966
    108  CA        10.1560    1.3810   20.7340 C.3    67  ARG67       0.1729
    109  C          8.7030    1.1830   20.9030 C.2    67  ARG67       0.2616
    110  O          7.9570    2.0590   20.7270 O.2    67  ARG67      -0.2715
    111  CB        10.8930    1.3380   22.0870 C.3    67  ARG67       0.0348
    112  CG        12.3690    1.0080   21.8610 C.3    67  ARG67       0.0492
    113  CD        13.2390    1.8310   22.7100 C.3    67  ARG67       0.2205
    114  NE        14.6490    1.4580   22.6590 N.pl3  67  ARG67      -0.0865
    115  CZ        15.6050    2.1350   22.0500 C.cat  67  ARG67       0.5346
    116  NH1       15.3080    3.1950   21.2850 N.pl3  67  ARG67       0.1354
    117  NH2       16.8560    1.7150   22.1950 N.pl3  67  ARG67       0.1354
    118  N          8.3170   -0.0370   21.2700 N.am   68  MET68      -0.1977
    119  CA         6.9030   -0.3170   21.3620 C.3    68  MET68       0.1605
    120  C          6.2370    0.6130   22.3660 C.2    68  MET68       0.2287
    121  O          6.7740    0.9110   23.4530 O.2    68  MET68      -0.2864
    122  CB         6.8210   -1.7450   21.8950 C.3    68  MET68       0.0413
    123  CG         5.3830   -2.0960   22.3280 C.3    68  MET68       0.0598
    124  SD         5.2110   -3.8080   22.9490 S.3    68  MET68      -0.1393
    125  CE         6.3860   -3.6920   24.2940 C.3    68  MET68       0.0692
    126  N         -0.1090   -0.8770   22.2070 N.3    73  MET73      -0.1245
    127  CA         0.0440   -2.2480   21.7580 C.3    73  MET73       0.1570
    128  C         -0.9090   -3.1620   22.5190 C.2    73  MET73       0.2261
    129  O         -1.5800   -4.0000   21.8930 O.2    73  MET73      -0.2867
    130  CB         1.4990   -2.7520   21.9020 C.3    73  MET73       0.0387
    131  CG         1.6860   -4.2000   21.4860 C.3    73  MET73       0.0595
    132  SD         1.5520   -4.3750   19.6900 S.3    73  MET73      -0.1393
    133  CE         3.1660   -3.7300   19.2610 C.3    73  MET73       0.0692
    134  N         -4.3370   -2.4500   21.0570 N.3    76  TYR76      -0.1241
    135  CA        -4.4450   -3.0990   19.7290 C.3    76  TYR76       0.1605
    136  C         -4.6680   -4.5940   19.8100 C.2    76  TYR76       0.2264
    137  O         -5.5600   -5.1710   19.1310 O.2    76  TYR76      -0.2867
    138  CB        -3.1680   -2.8240   18.9660 C.3    76  TYR76       0.0534
    139  CG        -3.1170   -3.3410   17.5310 C.ar   76  TYR76      -0.0201
    140  CD1       -3.9760   -2.8540   16.5710 C.ar   76  TYR76      -0.0009
    141  CD2       -2.1570   -4.2570   17.1490 C.ar   76  TYR76      -0.0009
    142  CE1       -3.9000   -3.3330   15.2510 C.ar   76  TYR76       0.0417
    143  CE2       -2.0850   -4.6990   15.8080 C.ar   76  TYR76       0.0417
    144  CZ        -2.9730   -4.2720   14.8870 C.ar   76  TYR76       0.1957
    145  OH        -2.8690   -4.6800   13.5550 O.3    76  TYR76      -0.2866
    146  N          2.3090  -10.9310   24.9150 N.3    90  MET90      -0.1245
    147  CA         3.0370  -10.3720   23.7630 C.3    90  MET90       0.1570
    148  C          3.7760   -9.0840   24.0720 C.2    90  MET90       0.2261
    149  O          4.9260   -8.8760   23.5860 O.2    90  MET90      -0.2867
    150  CB         2.0280  -10.1370   22.5870 C.3    90  MET90       0.0387
    151  CG         2.6100   -9.4850   21.4270 C.3    90  MET90       0.0595
    152  SD         1.5750   -9.8190   19.9700 S.3    90  MET90      -0.1393
    153  CE         2.3890   -8.8430   18.7580 C.3    90  MET90       0.0692
    154  N          7.9040   -8.8120   23.6090 N.3    94  ILE94      -0.1245
    155  CA         8.5250   -7.7430   22.8280 C.3    94  ILE94       0.1561
    156  C          9.4260   -6.8690   23.7010 C.2    94  ILE94       0.2260
    157  O         10.5380   -6.5200   23.3070 O.2    94  ILE94      -0.2867
    158  CB         7.4940   -6.9180   22.1150 C.3    94  ILE94       0.0252
    159  CG1        6.7540   -7.7100   21.0070 C.3    94  ILE94       0.0019
    160  CG2        8.1590   -5.6340   21.4630 C.3    94  ILE94       0.0019
    161  CD1        5.5490   -6.9740   20.4160 C.3    94  ILE94       0.0001
    162  N         13.3620   -6.0640   23.3110 N.3    98  GLU98      -0.1245
    163  CA        13.9110   -4.7650   23.1310 C.3    98  GLU98       0.1567
    164  C         15.0560   -4.5570   24.0940 C.2    98  GLU98       0.2260
    165  O         16.0640   -3.8910   23.7180 O.2    98  GLU98      -0.2867
    166  CB        12.8450   -3.7210   23.4850 C.3    98  GLU98       0.0388
    167  CG        11.7110   -3.5860   22.3560 C.3    98  GLU98       0.1160
    168  CD        10.6940   -2.5250   22.6280 C.2    98  GLU98       0.3649
    169  OE1       10.3560   -2.3170   23.7880 O.co2  98  GLU98      -0.2457
    170  OE2       10.2110   -1.9950   21.6240 O.co2  98  GLU98      -0.2457
    171  N         17.8650   -2.2240   14.8180 N.3   110  ARG110     -0.1231
    172  CA        17.3450   -2.6310   16.1070 C.3   110  ARG110      0.1694
    173  C         15.9900   -3.2590   16.0070 C.2   110  ARG110      0.2591
    174  O         15.7330   -4.3230   16.6010 O.2   110  ARG110     -0.2718
    175  CB        17.3070   -1.5040   17.0960 C.3   110  ARG110      0.0321
    176  CG        16.8030   -1.9930   18.5130 C.3   110  ARG110      0.0489
    177  CD        16.7460   -0.8280   19.5310 C.3   110  ARG110      0.2205
    178  NE        15.7580    0.1980   19.1400 N.pl3 110  ARG110     -0.0865
    179  CZ        16.0290    1.3670   18.5370 C.cat 110  ARG110      0.5346
    180  NH1       17.2690    1.7790   18.3290 N.pl3 110  ARG110      0.1354
    181  NH2       15.0190    2.1210   18.1020 N.pl3 110  ARG110      0.1354
    182  N         15.0980   -2.6270   15.2690 N.am  111  VAL111     -0.1980
    183  CA        13.7810   -3.1830   15.1620 C.3   111  VAL111      0.1595
    184  C         13.7310   -4.5360   14.5110 C.2   111  VAL111      0.2287
    185  O         12.9680   -5.4360   14.9250 O.2   111  VAL111     -0.2864
    186  CB        12.8350   -2.1500   14.4620 C.3   111  VAL111      0.0276
    187  CG1       11.4410   -2.7840   14.0000 C.3   111  VAL111      0.0022
    188  CG2       12.5790   -0.9270   15.3520 C.3   111  VAL111      0.0022
    189  N         14.8950   -7.0040   17.1280 N.3   114  VAL114     -0.1231
    190  CA        13.8010   -7.2040   18.1020 C.3   114  VAL114      0.1692
    191  C         12.7330   -8.1620   17.5020 C.2   114  VAL114      0.2591
    192  O         12.3120   -9.1130   18.1520 O.2   114  VAL114     -0.2718
    193  CB        13.2300   -5.8840   18.5270 C.3   114  VAL114      0.0266
    194  CG1       11.9680   -6.1290   19.3810 C.3   114  VAL114      0.0020
    195  CG2       14.1930   -5.1680   19.3800 C.3   114  VAL114      0.0020
    196  N         12.4260   -7.9420   16.2160 N.am  115  ALA115     -0.1980
    197  CA        11.4560   -8.7670   15.5790 C.3   115  ALA115      0.1597
    198  C         11.8650  -10.2330   15.4520 C.2   115  ALA115      0.2287
    199  O         11.0230  -11.1300   15.6360 O.2   115  ALA115     -0.2864
    200  CB        11.1230   -8.1270   14.1670 C.3   115  ALA115      0.0319
    201  N         11.4930  -11.7300   18.8580 N.3   118  PHE118     -0.1241
    202  CA        10.1180  -11.9480   19.1320 C.3   118  PHE118      0.1605
    203  C          9.6360  -13.1830   18.4000 C.2   118  PHE118      0.2264
    204  O          8.8350  -13.9280   18.9820 O.2   118  PHE118     -0.2867
    205  CB         9.3070  -10.7000   18.7070 C.3   118  PHE118      0.0534
    206  CG         7.8390  -10.9120   18.7540 C.ar  118  PHE118     -0.0203
    207  CD1        7.2350  -11.0460   20.0040 C.ar  118  PHE118     -0.0042
    208  CD2        7.0740  -10.9740   17.5930 C.ar  118  PHE118     -0.0042
    209  CE1        5.8290  -11.2840   20.1240 C.ar  118  PHE118     -0.0003
    210  CE2        5.6250  -11.2110   17.7630 C.ar  118  PHE118     -0.0003
    211  CZ         5.0930  -11.3240   19.0270 C.ar  118  PHE118     -0.0000
@<TRIPOS>BOND
     1    34    35    1
     2    35    36    1
     3    35    38    1
     4    36    37    2
     5    38    39    1
     6    45    46    1
     7    40    39   ar
     8    40    42   ar
     9    39    41   ar
    10    46    49    1
    11    46    47    1
    12    26    25    1
    13    42    44   ar
    14    41    43   ar
    15    49    50    1
    16    47    56   am
    17    47    48    2
    18    70    71    1
    19    25    24    1
    20    56    57    1
    21    58    57    1
    22    58    59    2
    23    19    18    2
    24    44    43   ar
    25    57    60    1
    26    22    20    1
    27    50    51   ar
    28    50    52   ar
    29    51    53   ar
    30    71    72    1
    31    71    74    1
    32    18    17    1
    33    24    23    1
    34    24    27    1
    35    60    61    1
    36    75    77    1
    37    75    74    1
    38    72    73    2
    39    74    76    1
    40    62    61   ar
    41    62    64   ar
    42    30    32   ar
    43    30    28   ar
    44    20    17    1
    45    20    21    1
    46    61    63   ar
    47    32    33   ar
    48    52    54   ar
    49    53    55   ar
    50    27    28    1
    51    17    16    1
    52    28    29   ar
    53    78    79    1
    54    33    31   ar
    55    64    65   ar
    56    29    31   ar
    57    12    11    2
    58    55    54   ar
    59    16    11   am
    60    63    65   ar
    61    63    66   ar
    62    79    80    1
    63    79    82    1
    64    11    10    1
    65   145   144    1
    66    80    81    2
    67    65    67   ar
    68    66    68   ar
    69   187   186    1
    70   200   197    1
    71    82    83    1
    72   186   183    1
    73   186   188    1
    74   184   185    2
    75   184   183    1
    76     4     3    2
    77     9    10    1
    78    10    13    1
    79   171   172    1
    80   144   142   ar
    81   144   143   ar
    82    67    69   ar
    83   183   182    1
    84    68    69   ar
    85   142   140   ar
    86   182   173   am
    87     3     2    1
    88   198   197    1
    89   198   199    2
    90   197   196    1
    91    99    98    1
    92   143   141   ar
    93    98    97    1
    94   173   172    1
    95   173   174    2
    96    13    14    1
    97    13    15    1
    98   105   104    1
    99   172   175    1
   100    90    89    1
   101   196   191   am
   102   140   139   ar
   103     6     5    1
   104     6     7    1
   105   106   104    1
   106     2     5    1
   107     2     1    1
   108    89    88    1
   109    89    91    1
   110   175   176    1
   111   189   190    1
   112   141   139   ar
   113    84    85    1
   114   104   101    1
   115    97    96    1
   116    88    85    1
   117   191   190    1
   118   191   192    2
   119   139   138    1
   120    96    93    1
   121   208   210   ar
   122   208   206   ar
   123     7     8    1
   124   210   211   ar
   125    92    86   am
   126    92    93    1
   127    85    86    1
   128   181   179    1
   129   190   193    1
   130   101   102    1
   131   101   100    1
   132   180   179    1
   133   203   204    2
   134   203   202    1
   135   103   102    2
   136   176   177    1
   137    86    87    2
   138   193   195    1
   139   193   194    1
   140   179   178    2
   141    93    94    1
   142   205   206    1
   143   205   202    1
   144    95    94    2
   145   206   207   ar
   146   153   152    1
   147   201   202    1
   148   102   107   am
   149   138   135    1
   150   211   209   ar
   151   137   136    2
   152   178   177    1
   153   133   132    1
   154   132   131    1
   155   135   136    1
   156   135   134    1
   157   152   151    1
   158   107   108    1
   159   207   209   ar
   160   161   159    1
   161   110   109    2
   162   108   109    1
   163   108   111    1
   164   109   118   am
   165   159   158    1
   166   118   119    1
   167   116   115    1
   168   119   122    1
   169   119   120    1
   170   151   150    1
   171   160   158    1
   172   131   130    1
   173   170   168   ar
   174   127   130    1
   175   127   126    1
   176   127   128    1
   177   112   111    1
   178   112   113    1
   179   129   128    2
   180   122   123    1
   181   115   117    1
   182   115   114    2
   183   158   155    1
   184   123   124    1
   185   167   168    1
   186   167   166    1
   187   120   121    2
   188   150   147    1
   189   168   169   ar
   190   114   113    1
   191   155   154    1
   192   155   156    1
   193   124   125    1
   194   163   162    1
   195   163   166    1
   196   163   164    1
   197   157   156    2
   198   149   148    2
   199   165   164    2
   200   147   148    1
   201   147   146    1
