@<TRIPOS>MOLECULE
tmp/2wcoA00.pdb
 171 164 0 0 0
SMALL
GASTEIGER

@<TRIPOS>ATOM
      1  N         37.0140   28.5870   33.9080 N.3   116  ASN116     -0.1240
      2  CA        36.6510   27.6810   32.8190 C.3   116  ASN116      0.1653
      3  C         36.0220   28.4230   31.6130 C.2   116  ASN116      0.2266
      4  O         34.9300   28.9720   31.7240 O.2   116  ASN116     -0.2867
      5  CB        35.7350   26.6250   33.3880 C.3   116  ASN116      0.1155
      6  CG        35.3810   25.5640   32.3670 C.2   116  ASN116      0.2627
      7  OD1       35.9320   25.5610   31.2320 O.2   116  ASN116     -0.2716
      8  ND2       34.4730   24.6630   32.7520 N.am  116  ASN116     -0.0877
      9  N         34.5020   27.4730   29.1530 N.3   118  TRP118     -0.1227
     10  CA        33.2160   26.8920   28.7100 C.3   118  TRP118      0.1737
     11  C         32.0310   27.6750   29.3210 C.2   118  TRP118      0.2595
     12  O         30.9900   27.8910   28.7150 O.2   118  TRP118     -0.2718
     13  CB        33.1640   25.4080   29.0860 C.3   118  TRP118      0.0564
     14  CG        31.9450   24.7150   28.5650 C.ar  118  TRP118      0.0003
     15  CD1       31.8560   23.9720   27.4180 C.ar  118  TRP118      0.0946
     16  CD2       30.6420   24.6860   29.1690 C.ar  118  TRP118      0.0152
     17  NE1       30.5840   23.4750   27.3100 N.ar  118  TRP118     -0.2442
     18  CE2       29.8150   23.9250   28.3290 C.ar  118  TRP118      0.0810
     19  CE3       30.0890   25.2430   30.3030 C.ar  118  TRP118      0.0012
     20  CZ2       28.4770   23.6910   28.6100 C.ar  118  TRP118      0.0191
     21  CZ3       28.7570   24.9760   30.5950 C.ar  118  TRP118      0.0001
     22  CH2       27.9690   24.2250   29.7200 C.ar  118  TRP118      0.0015
     23  N         32.2100   28.1030   30.5680 N.am  119  GLU119     -0.1979
     24  CA        31.1120   28.7930   31.2180 C.3   119  GLU119      0.1602
     25  C         30.7520   30.1210   30.5280 C.2   119  GLU119      0.2287
     26  O         29.5760   30.4910   30.4300 O.2   119  GLU119     -0.2864
     27  CB        31.4170   29.0510   32.6800 C.3   119  GLU119      0.0415
     28  CG        31.6740   27.7430   33.5470 C.3   119  GLU119      0.1163
     29  CD        30.5080   26.8930   33.7380 C.2   119  GLU119      0.3649
     30  OE1       29.3170   27.2320   33.3430 O.co2 119  GLU119     -0.2457
     31  OE2       30.7380   25.7940   34.3290 O.co2 119  GLU119     -0.2457
     32  N         24.4010   30.6840   25.7300 N.3   126  ARG126     -0.1245
     33  CA        23.2700   29.9940   25.1310 C.3   126  ARG126      0.1563
     34  C         21.9830   30.3250   25.9620 C.2   126  ARG126      0.2260
     35  O         20.9040   30.4420   25.4330 O.2   126  ARG126     -0.2867
     36  CB        23.5530   28.4890   25.1260 C.3   126  ARG126      0.0307
     37  CG        24.6350   28.0730   24.0880 C.3   126  ARG126      0.0489
     38  CD        24.7670   26.5900   23.9970 C.3   126  ARG126      0.2205
     39  NE        24.9510   26.0310   25.3090 N.pl3 126  ARG126     -0.0865
     40  CZ        24.8660   24.7490   25.6110 C.cat 126  ARG126      0.5346
     41  NH1       24.6550   23.8370   24.6780 N.pl3 126  ARG126      0.1354
     42  NH2       24.9900   24.3860   26.8950 N.pl3 126  ARG126      0.1354
     43  N         34.1190    9.3020   22.9090 N.3   226  TYR226     -0.1241
     44  CA        33.1780   10.2400   23.5220 C.3   226  TYR226      0.1605
     45  C         31.7550   10.3650   22.8820 C.2   226  TYR226      0.2264
     46  O         31.0650   11.4120   23.1390 O.2   226  TYR226     -0.2867
     47  CB        33.7810   11.6230   23.5860 C.3   226  TYR226      0.0534
     48  CG        34.0060   12.1550   25.0310 C.ar  226  TYR226     -0.0201
     49  CD1       35.1590   12.8390   25.3740 C.ar  226  TYR226     -0.0009
     50  CD2       33.0420   11.9140   26.0290 C.ar  226  TYR226     -0.0009
     51  CE1       35.3860   13.2690   26.6700 C.ar  226  TYR226      0.0417
     52  CE2       33.2260   12.3270   27.3050 C.ar  226  TYR226      0.0417
     53  CZ        34.4200   12.9650   27.6570 C.ar  226  TYR226      0.1957
     54  OH        34.5890   13.3670   28.9780 O.3   226  TYR226     -0.2866
     55  N         28.4100   11.5810   25.3370 N.3   229  THR229     -0.1203
     56  CA        28.1750   12.8780   25.9740 C.3   229  THR229      0.1994
     57  C         28.4830   14.0340   24.9940 C.2   229  THR229      0.2617
     58  O         27.5470   14.6350   24.4850 O.2   229  THR229     -0.2717
     59  CB        28.8910   13.0550   27.3300 C.3   229  THR229      0.1784
     60  OG1       30.2930   12.9200   27.1770 O.3   229  THR229     -0.2211
     61  CG2       28.4480   12.0300   28.3430 C.3   229  THR229      0.0376
     62  N         29.7390   14.2610   24.6570 N.am  230  TYR230     -0.1975
     63  CA        30.0550   15.1550   23.5890 C.3   230  TYR230      0.1639
     64  C         29.3400   14.8180   22.3200 C.2   230  TYR230      0.2290
     65  O         28.9500   15.7550   21.6430 O.2   230  TYR230     -0.2864
     66  CB        31.5860   15.3900   23.3760 C.3   230  TYR230      0.0560
     67  CG        32.1760   16.1650   24.5050 C.ar  230  TYR230     -0.0198
     68  CD1       32.0940   17.5280   24.5410 C.ar  230  TYR230     -0.0009
     69  CD2       32.8320   15.5070   25.5330 C.ar  230  TYR230     -0.0009
     70  CE1       32.6620   18.3090   25.6690 C.ar  230  TYR230      0.0417
     71  CE2       33.4190   16.1600   26.5980 C.ar  230  TYR230      0.0417
     72  CZ        33.3650   17.5880   26.6600 C.ar  230  TYR230      0.1957
     73  OH        33.9070   18.1640   27.7740 O.3   230  TYR230     -0.2866
     74  N         26.4760   13.4980   21.8610 N.3   232  GLN232     -0.1231
     75  CA        25.1070   13.9450   22.0390 C.3   232  GLN232      0.1698
     76  C         24.9490   15.4670   21.9860 C.2   232  GLN232      0.2592
     77  O         24.0440   15.9900   21.3300 O.2   232  GLN232     -0.2718
     78  CB        24.5540   13.4810   23.3700 C.3   232  GLN232      0.0381
     79  CG        23.1040   13.8380   23.6040 C.3   232  GLN232      0.0905
     80  CD        22.8320   15.2150   24.1750 C.2   232  GLN232      0.2608
     81  OE1       23.7230   15.8850   24.7210 O.2   232  GLN232     -0.2717
     82  NE2       21.6250   15.6730   24.0080 N.am  232  GLN232     -0.0878
     83  N         25.8650   16.1750   22.6010 N.am  233  VAL233     -0.1980
     84  CA        25.8920   17.6590   22.4830 C.3   233  VAL233      0.1595
     85  C         26.0300   18.1180   21.0430 C.2   233  VAL233      0.2287
     86  O         25.2970   19.0000   20.5940 O.2   233  VAL233     -0.2864
     87  CB        27.1190   18.2630   23.2730 C.3   233  VAL233      0.0276
     88  CG1       27.2630   19.7520   22.9890 C.3   233  VAL233      0.0022
     89  CG2       26.9310   17.9800   24.7880 C.3   233  VAL233      0.0022
     90  N         22.6600   17.2380   19.2970 N.3   236  ASP236     -0.1239
     91  CA        21.6230   18.1210   19.8440 C.3   236  ASP236      0.1674
     92  C         21.6760   19.4930   19.1300 C.2   236  ASP236      0.2266
     93  O         20.6470   19.9550   18.5800 O.2   236  ASP236     -0.2867
     94  CB        21.9040   18.3330   21.3750 C.3   236  ASP236      0.1410
     95  CG        20.9100   19.2920   22.0540 C.2   236  ASP236      0.3668
     96  OD1       19.7200   19.2930   21.7110 O.co2 236  ASP236     -0.2456
     97  OD2       21.2470   20.0290   23.0360 O.co2 236  ASP236     -0.2456
     98  N         34.4570   11.3240   31.2790 N.3   284  ARG284     -0.1231
     99  CA        34.4860   11.6740   32.6930 C.3   284  ARG284      0.1694
    100  C         33.0720   11.8150   33.3070 C.2   284  ARG284      0.2591
    101  O         32.9210   11.9360   34.5080 O.2   284  ARG284     -0.2718
    102  CB        35.2500   12.9830   32.9710 C.3   284  ARG284      0.0321
    103  CG        34.5760   14.2980   32.4760 C.3   284  ARG284      0.0489
    104  CD        35.5470   15.4510   32.6090 C.3   284  ARG284      0.2205
    105  NE        34.8360   16.7210   32.4330 N.pl3 284  ARG284     -0.0865
    106  CZ        34.4270   17.2410   31.2810 C.cat 284  ARG284      0.5346
    107  NH1       34.6930   16.6790   30.1050 N.pl3 284  ARG284      0.1354
    108  NH2       33.7270   18.3670   31.3610 N.pl3 284  ARG284      0.1354
    109  N         32.0690   11.8600   32.4610 N.am  285  ALA285     -0.1980
    110  CA        30.7250   12.0320   32.8780 C.3   285  ALA285      0.1597
    111  C         30.1910   10.8110   33.6770 C.2   285  ALA285      0.2287
    112  O         29.1170   10.8940   34.3350 O.2   285  ALA285     -0.2864
    113  CB        29.7640   12.3160   31.6800 C.3   285  ALA285      0.0319
    114  N         29.3770   11.7100   37.4600 N.3   288  ARG288     -0.1245
    115  CA        28.5670   12.8380   37.8490 C.3   288  ARG288      0.1563
    116  C         27.4300   12.4720   38.7960 C.2   288  ARG288      0.2260
    117  O         27.3150   13.0110   39.8990 O.2   288  ARG288     -0.2867
    118  CB        28.0210   13.5620   36.6100 C.3   288  ARG288      0.0307
    119  CG        29.0330   14.3680   35.9590 C.3   288  ARG288      0.0489
    120  CD        28.6220   14.9820   34.6260 C.3   288  ARG288      0.2205
    121  NE        29.8030   15.6800   34.0850 N.pl3 288  ARG288     -0.0865
    122  CZ        29.9290   16.1040   32.8370 C.cat 288  ARG288      0.5346
    123  NH1       28.9600   15.8980   31.9950 N.pl3 288  ARG288      0.1354
    124  NH2       31.0340   16.7290   32.5040 N.pl3 288  ARG288      0.1354
    125  N         20.4050    8.1210   31.8340 N.3   304  PHE304     -0.1227
    126  CA        20.3070    9.5710   31.6420 C.3   304  PHE304      0.1736
    127  C         20.9350   10.0530   30.3240 C.2   304  PHE304      0.2595
    128  O         20.2550   10.7370   29.5230 O.2   304  PHE304     -0.2718
    129  CB        20.8970   10.3400   32.8400 C.3   304  PHE304      0.0547
    130  CG        20.9180   11.8860   32.6590 C.ar  304  PHE304     -0.0202
    131  CD1       19.9370   12.6650   33.1910 C.ar  304  PHE304     -0.0042
    132  CD2       21.8740   12.4830   31.9270 C.ar  304  PHE304     -0.0042
    133  CE1       19.9260   14.0410   32.9780 C.ar  304  PHE304     -0.0003
    134  CE2       21.9160   13.8150   31.7140 C.ar  304  PHE304     -0.0003
    135  CZ        20.9630   14.6300   32.2110 C.ar  304  PHE304     -0.0000
    136  N         22.1900    9.6710   30.0710 N.am  305  HIS305     -0.1975
    137  CA        22.8670   10.0680   28.8620 C.3   305  HIS305      0.1656
    138  C         22.2250    9.4690   27.5940 C.2   305  HIS305      0.2291
    139  O         22.1550   10.1290   26.5780 O.2   305  HIS305     -0.2864
    140  CB        24.3620    9.7080   28.9590 C.3   305  HIS305      0.0771
    141  CG        25.0400   10.4260   30.0750 C.ar  305  HIS305      0.0820
    142  ND1       25.0560   11.8020   30.1530 N.ar  305  HIS305     -0.2267
    143  CD2       25.7250    9.9780   31.1470 C.ar  305  HIS305      0.1154
    144  CE1       25.7680   12.1800   31.1970 C.ar  305  HIS305      0.1986
    145  NE2       26.1750   11.0900   31.8300 N.ar  305  HIS305     -0.2212
    146  N         19.1500   11.5160   26.7780 N.3   308  GLN308     -0.1245
    147  CA        19.4760   12.7790   26.1100 C.3   308  GLN308      0.1566
    148  C         19.8090   12.5360   24.6410 C.2   308  GLN308      0.2260
    149  O         19.5100   13.4210   23.8200 O.2   308  GLN308     -0.2867
    150  CB        20.6200   13.5160   26.7510 C.3   308  GLN308      0.0367
    151  CG        20.4320   13.7870   28.2030 C.3   308  GLN308      0.0905
    152  CD        19.2580   14.6760   28.4800 C.2   308  GLN308      0.2608
    153  OE1       18.1300   14.2120   28.6020 O.2   308  GLN308     -0.2717
    154  NE2       19.5190   15.9370   28.6590 N.am  308  GLN308     -0.0878
    155  N         38.3290   19.0160   35.7230 N.3   409  ASN409     -0.1240
    156  CA        37.2940   19.8700   36.3800 C.3   409  ASN409      0.1653
    157  C         36.7410   19.2190   37.6340 C.2   409  ASN409      0.2266
    158  O         35.5690   19.3120   37.9910 O.2   409  ASN409     -0.2867
    159  CB        36.1630   20.3210   35.4260 C.3   409  ASN409      0.1155
    160  CG        36.6220   21.4030   34.4320 C.2   409  ASN409      0.2627
    161  OD1       37.7410   21.9040   34.5720 O.2   409  ASN409     -0.2716
    162  ND2       35.8650   21.6280   33.4030 N.am  409  ASN409     -0.0877
    163  N         36.4120   15.9120   38.0630 N.3   411  GLU411     -0.1245
    164  CA        35.6030   14.7710   37.7430 C.3   411  GLU411      0.1567
    165  C         36.5130   13.5920   37.4250 C.2   411  GLU411      0.2260
    166  O         37.5180   13.7470   36.7640 O.2   411  GLU411     -0.2867
    167  CB        34.6760   15.0810   36.5210 C.3   411  GLU411      0.0388
    168  CG        33.9790   16.4530   36.6390 C.3   411  GLU411      0.1160
    169  CD        32.8190   16.6650   35.6680 C.2   411  GLU411      0.3649
    170  OE1       33.0940   17.0580   34.5110 O.co2 411  GLU411     -0.2457
    171  OE2       31.6520   16.4060   36.0600 O.co2 411  GLU411     -0.2457
@<TRIPOS>BOND
     1    93    92    2
     2    92    91    1
     3    90    91    1
     4    91    94    1
     5    86    85    2
     6    85    84    1
     7    77    76    2
     8    94    95    1
     9    65    64    2
    10    96    95   ar
    11    74    75    1
    12    76    75    1
    13    76    83   am
    14    75    78    1
    15    95    97   ar
    16    64    63    1
    17    84    83    1
    18    84    87    1
    19    45    46    2
    20    45    44    1
    21    43    44    1
    22    88    87    1
    23    87    89    1
    24    78    79    1
    25    66    63    1
    26    66    67    1
    27    44    47    1
    28    47    48    1
    29    63    62    1
    30    79    80    1
    31   149   148    2
    32    38    37    1
    33    38    39    1
    34    82    80   am
    35    37    36    1
    36    80    81    2
    37    58    57    2
    38    67    68   ar
    39    67    69   ar
    40    68    70   ar
    41   148   147    1
    42    62    57   am
    43    41    40    1
    44    57    56    1
    45    48    49   ar
    46    48    50   ar
    47    36    33    1
    48    33    32    1
    49    33    34    1
    50    39    40    2
    51    55    56    1
    52    49    51   ar
    53    35    34    2
    54    69    71   ar
    55    40    42    1
    56    70    72   ar
    57    56    59    1
    58    50    52   ar
    59   147   150    1
    60   147   146    1
    61   139   138    2
    62    71    72   ar
    63    72    73    1
    64    51    53   ar
    65   150   151    1
    66    60    59    1
    67    52    53   ar
    68    17    15   ar
    69    17    18   ar
    70    59    61    1
    71    15    14   ar
    72   138   137    1
    73    53    54    1
    74   151   152    1
    75    18    20   ar
    76    18    16   ar
    77   152   153    2
    78   152   154   am
    79    14    13    1
    80    14    16   ar
    81    20    22   ar
    82    10    13    1
    83    10     9    1
    84    10    11    1
    85    12    11    2
    86   137   140    1
    87   137   136    1
    88   140   141    1
    89    16    19   ar
    90    11    23   am
    91   128   127    2
    92    22    21   ar
    93   136   127   am
    94   141   142   ar
    95   141   143   ar
    96   107   106    1
    97   142   144   ar
    98    19    21   ar
    99   127   126    1
   100    26    25    2
   101    25    24    1
   102    23    24    1
   103   143   145   ar
   104   144   145   ar
   105    24    27    1
   106     7     6    2
   107    98    99    1
   108   106   108    1
   109   106   105    2
   110     3     4    2
   111     3     2    1
   112   126   125    1
   113   126   129    1
   114   113   110    1
   115   134   132   ar
   116   134   135   ar
   117   132   130   ar
   118   123   122    1
   119   135   133   ar
   120     6     8   am
   121     6     5    1
   122   105   104    1
   123   109   110    1
   124   109   100   am
   125   103   104    1
   126   103   102    1
   127   124   122    1
   128   130   129    1
   129   130   131   ar
   130    27    28    1
   131    99   102    1
   132    99   100    1
   133     2     5    1
   134     2     1    1
   135   122   121    2
   136   110   111    1
   137   133   131   ar
   138   100   101    2
   139    30    29   ar
   140   162   160   am
   141    28    29    1
   142   111   112    2
   143    29    31   ar
   144   121   120    1
   145   160   161    2
   146   160   159    1
   147   170   169   ar
   148   120   119    1
   149   159   156    1
   150   169   171   ar
   151   169   168    1
   152   155   156    1
   153   119   118    1
   154   156   157    1
   155   167   168    1
   156   167   164    1
   157   118   115    1
   158   166   165    2
   159   165   164    1
   160   114   115    1
   161   157   158    2
   162   164   163    1
   163   115   116    1
   164   116   117    2
