@<TRIPOS>MOLECULE
tmp/2wcqB00.pdb
 98 93 0 0 0
SMALL
GASTEIGER

@<TRIPOS>ATOM
      1  N         -7.3650   51.8530   16.1540 N.3    50  LEU50      -0.1245
      2  CA        -7.9800   51.1380   15.0160 C.3    50  LEU50       0.1561
      3  C         -8.1980   52.0420   13.7990 C.2    50  LEU50       0.2260
      4  O         -7.9460   51.6290   12.6570 O.2    50  LEU50      -0.2867
      5  CB        -9.3390   50.5860   15.4320 C.3    50  LEU50       0.0270
      6  CG        -9.2560   49.5120   16.5030 C.3    50  LEU50       0.0019
      7  CD1      -10.6450   49.1040   16.9230 C.3    50  LEU50       0.0001
      8  CD2       -8.4630   48.3120   15.9960 C.3    50  LEU50       0.0001
      9  N         -4.7410   52.7240   12.1560 N.3    53  ALA53      -0.1231
     10  CA        -4.4260   51.5580   11.3480 C.3    53  ALA53       0.1694
     11  C         -5.2340   51.5950   10.0420 C.2    53  ALA53       0.2592
     12  O         -4.6930   51.4100    8.9590 O.2    53  ALA53      -0.2718
     13  CB        -4.7390   50.2990   12.1330 C.3    53  ALA53       0.0304
     14  N         -6.5300   51.8490   10.1610 N.am   54  TYR54      -0.1976
     15  CA        -7.4290   51.8690    9.0270 C.3    54  TYR54       0.1639
     16  C         -7.0200   52.8880    7.9710 C.2    54  TYR54       0.2290
     17  O         -7.1150   52.6190    6.7740 O.2    54  TYR54      -0.2864
     18  CB        -8.8160   52.2260    9.5180 C.3    54  TYR54       0.0560
     19  CG        -9.8420   52.3200    8.4280 C.ar   54  TYR54      -0.0198
     20  CD1      -10.2190   51.1930    7.6970 C.ar   54  TYR54      -0.0009
     21  CD2      -10.4530   53.5280    8.1260 C.ar   54  TYR54      -0.0009
     22  CE1      -11.1920   51.2710    6.7090 C.ar   54  TYR54       0.0417
     23  CE2      -11.4240   53.6220    7.1320 C.ar   54  TYR54       0.0417
     24  CZ       -11.7790   52.4890    6.4220 C.ar   54  TYR54       0.1957
     25  OH       -12.7160   52.5730    5.4380 O.3    54  TYR54      -0.2866
     26  N         -0.8230   50.5570    5.2310 N.3    58  THR58      -0.1203
     27  CA        -0.8230   49.1150    5.4360 C.3    58  THR58       0.1994
     28  C         -2.2400   48.5280    5.7320 C.2    58  THR58       0.2618
     29  O         -2.3730   47.3290    6.0060 O.2    58  THR58      -0.2717
     30  CB         0.1330   48.7690    6.5680 C.3    58  THR58       0.1784
     31  OG1       -0.1550   49.5990    7.6910 O.3    58  THR58      -0.2211
     32  CG2        1.5740   49.0170    6.1510 C.3    58  THR58       0.0376
     33  N         -3.2770   49.3750    5.6670 N.am   59  ASN59      -0.1960
     34  CA        -4.6430   48.9320    5.8810 C.3    59  ASN59       0.1819
     35  C         -5.0570   47.8850    4.8520 C.2    59  ASN59       0.2621
     36  O         -4.8150   48.0380    3.6490 O.2    59  ASN59      -0.2715
     37  CB        -5.6250   50.0740    5.8070 C.3    59  ASN59       0.1195
     38  CG        -7.0650   49.5990    5.9090 C.2    59  ASN59       0.2630
     39  OD1       -7.4580   48.9880    6.9070 O.2    59  ASN59      -0.2716
     40  ND2       -7.8530   49.8550    4.8690 N.am   59  ASN59      -0.0877
     41  N         -5.6930   46.8280    5.3390 N.am   60  ARG60      -0.1963
     42  CA        -6.2520   45.8210    4.4420 C.3    60  ARG60       0.1729
     43  C         -7.7570   45.7690    4.4790 C.2    60  ARG60       0.2616
     44  O         -8.3330   45.0170    3.7200 O.2    60  ARG60      -0.2715
     45  CB        -5.7080   44.4580    4.7980 C.3    60  ARG60       0.0348
     46  CG        -4.2680   44.2870    4.4850 C.3    60  ARG60       0.0492
     47  CD        -3.8300   42.8730    4.8250 C.3    60  ARG60       0.2205
     48  NE        -3.9910   42.6060    6.2590 N.pl3  60  ARG60      -0.0865
     49  CZ        -4.8070   41.7010    6.8020 C.cat  60  ARG60       0.5346
     50  NH1       -5.5690   40.8950    6.0560 N.pl3  60  ARG60       0.1354
     51  NH2       -4.8440   41.5800    8.1260 N.pl3  60  ARG60       0.1354
     52  N         -8.3940   46.5330    5.3700 N.am   61  ILE61      -0.1977
     53  CA        -9.8520   46.5410    5.4760 C.3    61  ILE61       0.1596
     54  C        -10.4890   47.1920    4.2620 C.2    61  ILE61       0.2287
     55  O        -10.2920   48.3760    4.0010 O.2    61  ILE61      -0.2864
     56  CB       -10.3920   47.2730    6.7500 C.3    61  ILE61       0.0276
     57  CG1       -9.9600   46.5360    8.0160 C.3    61  ILE61       0.0022
     58  CG2      -11.9380   47.4270    6.6910 C.3    61  ILE61       0.0022
     59  CD1      -10.5680   47.1060    9.2700 C.3    61  ILE61       0.0001
     60  N        -10.5560   41.5970   10.9280 N.3   128  ILE128     -0.1231
     61  CA        -9.3200   42.3670   11.0370 C.3   128  ILE128      0.1692
     62  C         -9.3450   43.2830   12.2550 C.2   128  ILE128      0.2591
     63  O         -8.3420   43.4520   12.9270 O.2   128  ILE128     -0.2718
     64  CB        -9.0730   43.1900    9.7440 C.3   128  ILE128      0.0266
     65  CG1       -8.7410   42.2630    8.5800 C.3   128  ILE128      0.0019
     66  CG2       -7.9390   44.1900    9.8870 C.3   128  ILE128      0.0020
     67  CD1       -8.5930   43.0310    7.2430 C.3   128  ILE128      0.0001
     68  N        -10.4840   43.8890   12.5340 N.am  129  LEU129     -0.1980
     69  CA       -10.5540   44.7500   13.6920 C.3   129  LEU129      0.1596
     70  C        -10.2570   43.9700   14.9980 C.2   129  LEU129      0.2287
     71  O         -9.5200   44.4390   15.8580 O.2   129  LEU129     -0.2864
     72  CB       -11.8950   45.4320   13.7550 C.3   129  LEU129      0.0297
     73  CG       -12.0830   46.5540   12.7260 C.3   129  LEU129      0.0022
     74  CD1      -13.5350   46.9690   12.6480 C.3   129  LEU129      0.0001
     75  CD2      -11.1200   47.7480   12.9810 C.3   129  LEU129      0.0001
     76  N         -8.5600   41.1540   15.3280 N.3   131  ALA131     -0.1231
     77  CA        -7.1400   40.7940   15.3000 C.3   131  ALA131      0.1694
     78  C         -6.2280   41.9690   15.7220 C.2   131  ALA131      0.2591
     79  O         -5.2270   41.7690   16.4010 O.2   131  ALA131     -0.2718
     80  CB        -6.7290   40.2730   13.9120 C.3   131  ALA131      0.0304
     81  N         -6.5580   43.1730   15.3000 N.am  132  LYS132     -0.1980
     82  CA        -5.7800   44.3540   15.6990 C.3   132  LYS132      0.1596
     83  C         -5.9320   44.6320   17.2060 C.2   132  LYS132      0.2287
     84  O         -4.9660   45.0570   17.8590 O.2   132  LYS132     -0.2864
     85  CB        -6.2050   45.5880   14.8950 C.3   132  LYS132      0.0298
     86  CG        -5.4290   46.8560   15.2260 C.3   132  LYS132      0.0038
     87  CD        -3.9180   46.6380   15.0510 C.3   132  LYS132      0.0206
     88  CE        -3.1380   47.9640   15.1070 C.3   132  LYS132      0.1093
     89  NZ        -1.6670   47.7320   14.8880 N.3   132  LYS132     -0.1314
     90  N         -3.7450   42.3080   18.8670 N.3   135  GLU135     -0.1245
     91  CA        -2.3570   42.7710   18.7780 C.3   135  GLU135      0.1567
     92  C         -2.0540   43.8960   19.7790 C.2   135  GLU135      0.2260
     93  O         -0.9940   43.8920   20.3970 O.2   135  GLU135     -0.2867
     94  CB        -1.9930   43.2220   17.3600 C.3   135  GLU135      0.0388
     95  CG        -0.5060   43.6810   17.1970 C.3   135  GLU135      0.1160
     96  CD        -0.2850   45.1890   17.3600 C.2   135  GLU135      0.3649
     97  OE1       -1.2240   46.0050   17.0980 O.co2 135  GLU135     -0.2457
     98  OE2        0.8620   45.5690   17.7380 O.co2 135  GLU135     -0.2457
@<TRIPOS>BOND
     1    36    35    2
     2    44    43    2
     3    55    54    2
     4    54    53    1
     5    42    43    1
     6    42    45    1
     7    42    41    1
     8    43    52   am
     9    46    45    1
    10    46    47    1
    11    47    48    1
    12    35    41   am
    13    35    34    1
    14    40    38   am
    15    26    27    1
    16    52    53    1
    17    27    28    1
    18    27    30    1
    19    25    24    1
    20    53    56    1
    21    33    28   am
    22    33    34    1
    23    28    29    2
    24    37    34    1
    25    37    38    1
    26    38    39    2
    27    50    49    1
    28    32    30    1
    29    48    49    2
    30    24    22   ar
    31    24    23   ar
    32    30    31    1
    33    58    56    1
    34    22    20   ar
    35    56    57    1
    36    17    16    2
    37    49    51    1
    38    23    21   ar
    39    67    65    1
    40    20    19   ar
    41    16    15    1
    42    57    59    1
    43    21    19   ar
    44    19    18    1
    45    65    64    1
    46    12    11    2
    47    15    18    1
    48    15    14    1
    49    64    66    1
    50    64    61    1
    51    11    14   am
    52    11    10    1
    53    60    61    1
    54    61    62    1
    55    10    13    1
    56    10     9    1
    57    62    68   am
    58    62    63    2
    59    68    69    1
    60    74    73    1
    61     4     3    2
    62    73    75    1
    63    73    72    1
    64    69    72    1
    65    69    70    1
    66     3     2    1
    67    80    77    1
    68    89    88    1
    69    85    86    1
    70    85    82    1
    71    70    71    2
    72     2     5    1
    73     2     1    1
    74    87    88    1
    75    87    86    1
    76    77    76    1
    77    77    78    1
    78    81    82    1
    79    81    78   am
    80     5     6    1
    81    82    83    1
    82    78    79    2
    83     8     6    1
    84     6     7    1
    85    97    96   ar
    86    95    94    1
    87    95    96    1
    88    83    84    2
    89    94    91    1
    90    96    98   ar
    91    91    90    1
    92    91    92    1
    93    92    93    2
