@<TRIPOS>MOLECULE
tmp/2wcuB00.pdb
 108 103 0 0 0
SMALL
GASTEIGER

@<TRIPOS>ATOM
      1  N         -2.4030   -6.7390  -13.2530 N.3    32  ASP32      -0.1239
      2  CA        -1.0600   -6.2720  -12.9500 C.3    32  ASP32       0.1674
      3  C         -0.7320   -5.0810  -13.8500 C.2    32  ASP32       0.2266
      4  O         -1.5160   -4.7220  -14.7300 O.2    32  ASP32      -0.2867
      5  CB        -0.0120   -7.3960  -13.1080 C.3    32  ASP32       0.1410
      6  CG         0.0820   -7.9480  -14.5310 C.2    32  ASP32       0.3668
      7  OD1        0.0870   -7.1540  -15.4980 O.co2  32  ASP32      -0.2456
      8  OD2        0.1800   -9.1870  -14.6760 O.co2  32  ASP32      -0.2456
      9  N          1.1840   -4.7010  -16.3570 N.3    34  ASN34      -0.1225
     10  CA         1.3590   -4.9600  -17.7870 C.3    34  ASN34       0.1785
     11  C          0.1280   -5.4650  -18.5300 C.2    34  ASN34       0.2597
     12  O          0.2090   -5.8120  -19.7100 O.2    34  ASN34      -0.2718
     13  CB         2.5090   -5.9450  -17.9910 C.3    34  ASN34       0.1169
     14  CG         3.8370   -5.3760  -17.5440 C.2    34  ASN34       0.2627
     15  OD1        4.3130   -4.3830  -18.0940 O.2    34  ASN34      -0.2716
     16  ND2        4.4370   -5.9920  -16.5320 N.am   34  ASN34      -0.0877
     17  N         -1.0090   -5.4980  -17.8430 N.am   35  PHE35      -0.1963
     18  CA        -2.2590   -5.9580  -18.4420 C.3    35  PHE35       0.1756
     19  C         -2.8090   -4.8620  -19.3570 C.2    35  PHE35       0.2461
     20  O         -2.6930   -3.6770  -19.0550 O.2    35  PHE35      -0.2730
     21  CB        -3.2770   -6.2490  -17.3310 C.3    35  PHE35       0.0574
     22  CG        -4.5030   -6.9910  -17.7900 C.ar   35  PHE35      -0.0200
     23  CD1       -4.4530   -8.3550  -18.0460 C.ar   35  PHE35      -0.0042
     24  CD2       -5.7180   -6.3310  -17.9320 C.ar   35  PHE35      -0.0042
     25  CE1       -5.5950   -9.0550  -18.4300 C.ar   35  PHE35      -0.0003
     26  CE2       -6.8700   -7.0220  -18.3160 C.ar   35  PHE35      -0.0003
     27  CZ        -6.8040   -8.3900  -18.5650 C.ar   35  PHE35      -0.0000
     28  N         -3.4050   -5.2430  -20.4950 N.am   36  PRO36      -0.2727
     29  CA        -3.9670   -4.2490  -21.4190 C.3    36  PRO36       0.1402
     30  C         -5.3470   -3.7960  -20.9210 C.2    36  PRO36       0.2269
     31  O         -6.3630   -3.9900  -21.5910 O.2    36  PRO36      -0.2865
     32  CB        -4.0470   -5.0180  -22.7330 C.3    36  PRO36       0.0296
     33  CG        -4.3960   -6.3950  -22.2700 C.3    36  PRO36       0.0237
     34  CD        -3.4810   -6.5990  -21.0700 C.3    36  PRO36       0.0939
     35  N         -3.6380  -16.2860  -15.3690 N.3    79  MET79      -0.1245
     36  CA        -3.2700  -16.5070  -16.7630 C.3    79  MET79       0.1570
     37  C         -2.0550  -17.4170  -16.8110 C.2    79  MET79       0.2261
     38  O         -1.0450  -17.1470  -16.1650 O.2    79  MET79      -0.2867
     39  CB        -2.9360  -15.1760  -17.4420 C.3    79  MET79       0.0387
     40  CG        -2.5980  -15.2920  -18.9310 C.3    79  MET79       0.0595
     41  SD        -1.8640  -13.7750  -19.5810 S.3    79  MET79      -0.1393
     42  CE        -3.3250  -12.7470  -19.7470 C.3    79  MET79       0.0692
     43  N          2.7180  -18.1680  -21.4310 N.3    82  VAL82      -0.1245
     44  CA         2.6780  -18.3990  -22.8670 C.3    82  VAL82       0.1561
     45  C          3.8060  -19.3690  -23.2190 C.2    82  VAL82       0.2260
     46  O          4.7950  -19.4680  -22.4900 O.2    82  VAL82      -0.2867
     47  CB         2.8710  -17.0840  -23.6530 C.3    82  VAL82       0.0252
     48  CG1        1.7670  -16.1020  -23.2950 C.3    82  VAL82       0.0019
     49  CG2        4.2390  -16.4880  -23.3510 C.3    82  VAL82       0.0019
     50  N          7.4620  -18.2170  -22.4830 N.3    85  ASP85      -0.1239
     51  CA         7.8670  -18.2000  -21.0820 C.3    85  ASP85       0.1674
     52  C          8.0210  -19.5830  -20.4510 C.2    85  ASP85       0.2266
     53  O          8.9690  -19.8230  -19.7050 O.2    85  ASP85      -0.2867
     54  CB         6.8810  -17.3600  -20.2650 C.3    85  ASP85       0.1410
     55  CG         6.9130  -15.8910  -20.6500 C.2    85  ASP85       0.3668
     56  OD1        8.0080  -15.2930  -20.6250 O.co2  85  ASP85      -0.2456
     57  OD2        5.8460  -15.3320  -20.9740 O.co2  85  ASP85      -0.2456
     58  N         -3.7620  -17.5280  -22.2850 N.3   116  ARG116     -0.1245
     59  CA        -3.7510  -16.0790  -22.4720 C.3   116  ARG116      0.1563
     60  C         -4.9910  -15.4690  -23.1230 C.2   116  ARG116      0.2260
     61  O         -5.6220  -14.5850  -22.5490 O.2   116  ARG116     -0.2867
     62  CB        -2.5250  -15.6410  -23.2760 C.3   116  ARG116      0.0307
     63  CG        -2.2270  -14.1600  -23.1060 C.3   116  ARG116      0.0489
     64  CD        -2.0070  -13.4400  -24.4080 C.3   116  ARG116      0.2205
     65  NE        -0.7060  -13.7180  -25.0000 N.pl3 116  ARG116     -0.0865
     66  CZ         0.1300  -12.7740  -25.4230 C.cat 116  ARG116      0.5346
     67  NH1       -0.2000  -11.4920  -25.3100 N.pl3 116  ARG116      0.1354
     68  NH2        1.2850  -13.1100  -25.9790 N.pl3 116  ARG116      0.1354
     69  N         -8.3130  -13.2510  -21.6330 N.3   120  TYR120     -0.1241
     70  CA        -8.7590  -11.9780  -22.1800 C.3   120  TYR120      0.1605
     71  C        -10.2490  -11.9970  -22.4830 C.2   120  TYR120      0.2264
     72  O        -10.9470  -11.0010  -22.2760 O.2   120  TYR120     -0.2867
     73  CB        -7.9760  -11.6580  -23.4510 C.3   120  TYR120      0.0534
     74  CG        -6.5530  -11.1980  -23.2130 C.ar  120  TYR120     -0.0201
     75  CD1       -5.6200  -11.2060  -24.2490 C.ar  120  TYR120     -0.0009
     76  CD2       -6.1480  -10.7170  -21.9690 C.ar  120  TYR120     -0.0009
     77  CE1       -4.3210  -10.7430  -24.0540 C.ar  120  TYR120      0.0417
     78  CE2       -4.8450  -10.2490  -21.7640 C.ar  120  TYR120      0.0417
     79  CZ        -3.9420  -10.2660  -22.8130 C.ar  120  TYR120      0.1957
     80  OH        -2.6620   -9.8000  -22.6340 O.3   120  TYR120     -0.2866
     81  N          5.0720  -10.7930  -12.7890 N.3   137  LEU137     -0.1231
     82  CA         4.6050  -11.2840  -14.0790 C.3   137  LEU137      0.1693
     83  C          3.4780  -12.2830  -13.8510 C.2   137  LEU137      0.2592
     84  O          3.5290  -13.0850  -12.9220 O.2   137  LEU137     -0.2718
     85  CB         5.7520  -11.9510  -14.8460 C.3   137  LEU137      0.0284
     86  CG         6.7080  -11.0340  -15.6210 C.3   137  LEU137      0.0019
     87  CD1        7.1880   -9.8910  -14.7410 C.3   137  LEU137      0.0001
     88  CD2        7.8870  -11.8520  -16.1210 C.3   137  LEU137      0.0001
     89  N          2.4640  -12.2260  -14.7050 N.am  138  TYR138     -0.1976
     90  CA         1.3140  -13.1120  -14.5980 C.3   138  TYR138      0.1639
     91  C          0.5950  -12.9530  -13.2630 C.2   138  TYR138      0.2290
     92  O          0.0680  -13.9190  -12.7160 O.2   138  TYR138     -0.2864
     93  CB         1.7390  -14.5690  -14.7970 C.3   138  TYR138      0.0560
     94  CG         2.2220  -14.8540  -16.2030 C.ar  138  TYR138     -0.0198
     95  CD1        3.5640  -14.6860  -16.5540 C.ar  138  TYR138     -0.0009
     96  CD2        1.3250  -15.2430  -17.1970 C.ar  138  TYR138     -0.0009
     97  CE1        3.9990  -14.8970  -17.8660 C.ar  138  TYR138      0.0417
     98  CE2        1.7450  -15.4520  -18.5080 C.ar  138  TYR138      0.0417
     99  CZ         3.0810  -15.2800  -18.8360 C.ar  138  TYR138      0.1957
    100  OH         3.4880  -15.5000  -20.1340 O.3   138  TYR138     -0.2866
    101  N         -2.1430  -11.1710  -12.7940 N.3   140  ASN140     -0.1240
    102  CA        -3.5770  -10.9820  -12.9790 C.3   140  ASN140      0.1653
    103  C         -4.3760  -12.1220  -12.3730 C.2   140  ASN140      0.2266
    104  O         -4.0030  -13.2860  -12.5000 O.2   140  ASN140     -0.2867
    105  CB        -3.9330  -10.9090  -14.4660 C.3   140  ASN140      0.1155
    106  CG        -3.0660   -9.9440  -15.2250 C.2   140  ASN140      0.2627
    107  OD1       -3.0710   -8.7420  -14.9600 O.2   140  ASN140     -0.2716
    108  ND2       -2.3080  -10.4670  -16.1840 N.am  140  ASN140     -0.0877
@<TRIPOS>BOND
     1    68    66    1
     2    66    67    1
     3    66    65    2
     4    65    64    1
     5    64    63    1
     6    75    77   ar
     7    75    74   ar
     8    77    79   ar
     9    47    49    1
    10    47    48    1
    11    47    44    1
    12    73    74    1
    13    73    70    1
    14    62    63    1
    15    62    59    1
    16    45    44    1
    17    45    46    2
    18    74    76   ar
    19    60    61    2
    20    60    59    1
    21    44    43    1
    22    79    80    1
    23    79    78   ar
    24    32    33    1
    25    32    29    1
    26    50    51    1
    27    71    72    2
    28    71    70    1
    29    59    58    1
    30    33    34    1
    31    70    69    1
    32    76    78   ar
    33    31    30    2
    34    29    30    1
    35    29    28    1
    36    51    52    1
    37    51    54    1
    38    34    28    1
    39    57    55   ar
    40    55    56   ar
    41    55    54    1
    42    28    19   am
    43    52    53    2
    44   100    99    1
    45    42    41    1
    46    12    11    2
    47    41    40    1
    48    19    20    2
    49    19    18    1
    50    40    39    1
    51    99    98   ar
    52    99    97   ar
    53    27    25   ar
    54    27    26   ar
    55    11    17   am
    56    11    10    1
    57    98    96   ar
    58    18    17    1
    59    18    21    1
    60    25    23   ar
    61    26    24   ar
    62    15    14    2
    63    23    22   ar
    64    13    10    1
    65    13    14    1
    66    24    22   ar
    67    97    95   ar
    68    22    21    1
    69    10     9    1
    70    14    16   am
    71    39    36    1
    72    96    94   ar
    73    37    36    1
    74    37    38    2
    75    36    35    1
    76    95    94   ar
    77    94    93    1
    78   108   106   am
    79    88    86    1
    80    86    85    1
    81    86    87    1
    82     7     6   ar
    83   106   107    2
    84   106   105    1
    85    85    82    1
    86    93    90    1
    87     4     3    2
    88    89    90    1
    89    89    83   am
    90     8     6   ar
    91    90    91    1
    92     6     5    1
    93   105   102    1
    94    82    83    1
    95    82    81    1
    96    83    84    2
    97     3     2    1
    98    91    92    2
    99     1     2    1
   100     5     2    1
   101   102   101    1
   102   102   103    1
   103   104   103    2
