@<TRIPOS>MOLECULE
tmp/2wcvG00.pdb
 111 107 0 0 0
SMALL
GASTEIGER

@<TRIPOS>ATOM
      1  N         14.9040    2.2300   46.5620 N.3    30  ASP30      -0.1239
      2  CA        14.6210    3.5090   47.1820 C.3    30  ASP30       0.1674
      3  C         13.1450    3.4500   47.5920 C.2    30  ASP30       0.2266
      4  O         12.4350    2.5010   47.2520 O.2    30  ASP30      -0.2867
      5  CB        14.8800    4.6690   46.2050 C.3    30  ASP30       0.1410
      6  CG        14.1680    4.5020   44.8690 C.2    30  ASP30       0.3668
      7  OD1       12.9330    4.3130   44.8520 O.co2  30  ASP30      -0.2456
      8  OD2       14.8550    4.5760   43.8250 O.co2  30  ASP30      -0.2456
      9  N         10.6310    4.7810   46.4800 N.3    32  HIS32      -0.1226
     10  CA         9.6600    4.8910   45.3900 C.3    32  HIS32       0.1752
     11  C          9.5200    3.6700   44.4780 C.2    32  HIS32       0.2596
     12  O          8.6790    3.6590   43.5790 O.2    32  HIS32      -0.2718
     13  CB         9.9950    6.1130   44.5280 C.3    32  HIS32       0.0759
     14  CG        10.2180    7.3660   45.3150 C.ar   32  HIS32       0.0818
     15  ND1       11.4770    7.8640   45.5830 N.ar   32  HIS32      -0.2268
     16  CD2        9.3460    8.1960   45.9340 C.ar   32  HIS32       0.1154
     17  CE1       11.3690    8.9430   46.3340 C.ar   32  HIS32       0.1986
     18  NE2       10.0870    9.1670   46.5630 N.ar   32  HIS32      -0.2212
     19  N         10.3330    2.6490   44.7190 N.am   33  PHE33      -0.1963
     20  CA        10.3390    1.4290   43.9110 C.3    33  PHE33       0.1756
     21  C          9.0930    0.5450   44.0980 C.2    33  PHE33       0.2461
     22  O          8.5840    0.3970   45.2070 O.2    33  PHE33      -0.2730
     23  CB        11.5940    0.6200   44.2600 C.3    33  PHE33       0.0574
     24  CG        11.8940   -0.5050   43.3060 C.ar   33  PHE33      -0.0200
     25  CD1       12.3610   -0.2450   42.0220 C.ar   33  PHE33      -0.0042
     26  CD2       11.7380   -1.8270   43.7020 C.ar   33  PHE33      -0.0042
     27  CE1       12.6700   -1.2860   41.1510 C.ar   33  PHE33      -0.0003
     28  CE2       12.0470   -2.8800   42.8320 C.ar   33  PHE33      -0.0003
     29  CZ        12.5140   -2.6050   41.5580 C.ar   33  PHE33      -0.0000
     30  N          8.5810   -0.0440   43.0040 N.am   34  PRO34      -0.2727
     31  CA         7.3980   -0.9140   43.1140 C.3    34  PRO34       0.1402
     32  C          7.8250   -2.3000   43.6050 C.2    34  PRO34       0.2269
     33  O          7.6220   -3.3040   42.9290 O.2    34  PRO34      -0.2865
     34  CB         6.8580   -0.9480   41.6860 C.3    34  PRO34       0.0296
     35  CG         8.1140   -0.7990   40.8470 C.3    34  PRO34       0.0237
     36  CD         8.8620    0.2890   41.5940 C.3    34  PRO34       0.0939
     37  N         19.9450    1.4280   38.1760 N.3    73  MET73      -0.1245
     38  CA        19.0430    1.8870   37.1290 C.3    73  MET73       0.1570
     39  C         19.4810    3.2010   36.4780 C.2    73  MET73       0.2261
     40  O         19.7430    4.1910   37.1600 O.2    73  MET73      -0.2867
     41  CB        17.6470    2.0250   37.7470 C.3    73  MET73       0.0387
     42  CG        16.5200    2.4340   36.8340 C.3    73  MET73       0.0595
     43  SD        15.0350    2.6730   37.8400 S.3    73  MET73      -0.1393
     44  CE        14.3510    1.0360   37.8310 C.3    73  MET73       0.0692
     45  N         15.9170    7.9370   33.3290 N.3    76  VAL76      -0.1245
     46  CA        15.0780    7.9740   32.1330 C.3    76  VAL76       0.1561
     47  C         15.3060    9.3470   31.5170 C.2    76  VAL76       0.2260
     48  O         15.7770   10.2570   32.1960 O.2    76  VAL76      -0.2867
     49  CB        13.5710    7.8310   32.4560 C.3    76  VAL76       0.0252
     50  CG1       13.3250    6.5950   33.3090 C.3    76  VAL76       0.0019
     51  CG2       13.0720    9.0840   33.1490 C.3    76  VAL76       0.0019
     52  N         15.3270   12.9600   33.4770 N.3    79  ASP79      -0.1239
     53  CA        15.8760   12.9280   34.8320 C.3    79  ASP79       0.1674
     54  C         17.3960   13.0000   34.8310 C.2    79  ASP79       0.2266
     55  O         18.0390   12.7430   33.8150 O.2    79  ASP79      -0.2867
     56  CB        15.4520   11.6580   35.5710 C.3    79  ASP79       0.1410
     57  CG        13.9610   11.5710   35.7750 C.2    79  ASP79       0.3668
     58  OD1       13.3350   12.6110   36.0570 O.co2  79  ASP79      -0.2456
     59  OD2       13.4200   10.4530   35.6700 O.co2  79  ASP79      -0.2456
     60  N         15.4870    1.2320   33.0520 N.3   107  ARG107     -0.1245
     61  CA        14.4970    0.9410   34.0860 C.3   107  ARG107      0.1563
     62  C         13.6960   -0.3380   33.8740 C.2   107  ARG107      0.2260
     63  O         13.4780   -1.0950   34.8200 O.2   107  ARG107     -0.2867
     64  CB        13.5240    2.1150   34.2360 C.3   107  ARG107      0.0307
     65  CG        12.5720    2.3030   33.0610 C.3   107  ARG107      0.0489
     66  CD        11.5060    3.3710   33.3490 C.3   107  ARG107      0.2205
     67  NE        10.7360    3.0820   34.5610 N.pl3 107  ARG107     -0.0865
     68  CZ         9.5960    3.6880   34.8890 C.cat 107  ARG107      0.5346
     69  NH1        9.0840    4.6210   34.0950 N.pl3 107  ARG107      0.1354
     70  NH2        8.9640    3.3600   36.0080 N.pl3 107  ARG107      0.1354
     71  N         13.4920   -3.6870   36.1320 N.3   111  TYR111     -0.1241
     72  CA        12.2770   -4.2820   36.6650 C.3   111  TYR111      0.1605
     73  C         12.2650   -5.7650   36.3240 C.2   111  TYR111      0.2264
     74  O         12.0250   -6.6080   37.1870 O.2   111  TYR111     -0.2867
     75  CB        11.0470   -3.6010   36.0680 C.3   111  TYR111      0.0534
     76  CG        10.8120   -2.1930   36.5700 C.ar  111  TYR111     -0.0201
     77  CD1       10.2820   -1.2170   35.7300 C.ar  111  TYR111     -0.0009
     78  CD2       11.1060   -1.8370   37.8900 C.ar  111  TYR111     -0.0009
     79  CE1       10.0530    0.0780   36.1830 C.ar  111  TYR111      0.0417
     80  CE2       10.8770   -0.5430   38.3540 C.ar  111  TYR111      0.0417
     81  CZ        10.3520    0.4080   37.4930 C.ar  111  TYR111      0.1957
     82  OH        10.1350    1.6910   37.9300 O.3   111  TYR111     -0.2866
     83  N         15.7500    9.8030   43.5840 N.3   128  LYS128     -0.1231
     84  CA        15.3270    8.9000   42.5240 C.3   128  LYS128      0.1693
     85  C         16.5180    8.0490   42.0930 C.2   128  LYS128      0.2592
     86  O         17.6670    8.4320   42.2990 O.2   128  LYS128     -0.2718
     87  CB        14.7570    9.6900   41.3390 C.3   128  LYS128      0.0285
     88  CG        13.4810   10.4500   41.6940 C.3   128  LYS128      0.0035
     89  CD        12.6650   10.8480   40.4710 C.3   128  LYS128      0.0206
     90  CE        13.3740   11.8800   39.6200 C.3   128  LYS128      0.1093
     91  NZ        12.5260   12.3140   38.4700 N.3   128  LYS128     -0.1314
     92  N         16.2350    6.8840   41.5200 N.am  129  TYR129     -0.1976
     93  CA        17.2670    5.9560   41.0660 C.3   129  TYR129      0.1639
     94  C         18.2300    5.5400   42.1790 C.2   129  TYR129      0.2290
     95  O         19.4430    5.4620   41.9750 O.2   129  TYR129     -0.2864
     96  CB        18.0440    6.5650   39.8970 C.3   129  TYR129      0.0560
     97  CG        17.1310    7.0170   38.7860 C.ar  129  TYR129     -0.0198
     98  CD1       16.5500    8.2860   38.8090 C.ar  129  TYR129     -0.0009
     99  CD2       16.7950    6.1590   37.7460 C.ar  129  TYR129     -0.0009
    100  CE1       15.6600    8.6840   37.8290 C.ar  129  TYR129      0.0417
    101  CE2       15.9010    6.5460   36.7590 C.ar  129  TYR129      0.0417
    102  CZ        15.3370    7.8080   36.8050 C.ar  129  TYR129      0.1957
    103  OH        14.4510    8.1950   35.8330 O.3   129  TYR129     -0.2866
    104  N         17.9980    2.6940   43.5250 N.3   131  ASN131     -0.1240
    105  CA        17.9400    1.2360   43.4690 C.3   131  ASN131      0.1653
    106  C         19.2750    0.5900   43.1050 C.2   131  ASN131      0.2266
    107  O         19.9460    1.0150   42.1700 O.2   131  ASN131     -0.2867
    108  CB        16.8960    0.7940   42.4470 C.3   131  ASN131      0.1155
    109  CG        15.5680    1.4950   42.6320 C.2   131  ASN131      0.2627
    110  OD1       14.9660    1.4340   43.7020 O.2   131  ASN131     -0.2716
    111  ND2       15.1030    2.1690   41.5850 N.am  131  ASN131     -0.0877
@<TRIPOS>BOND
     1    47    46    1
     2    47    48    2
     3    46    49    1
     4    46    45    1
     5    49    51    1
     6    49    50    1
     7    60    61    1
     8    65    66    1
     9    65    64    1
    10    66    67    1
    11    52    53    1
    12    55    54    2
    13    62    61    1
    14    62    63    2
    15    61    64    1
    16    69    68    1
    17    67    68    2
    18    54    53    1
    19    53    56    1
    20    68    70    1
    21    56    57    1
    22    59    57   ar
    23    77    79   ar
    24    77    76   ar
    25    57    58   ar
    26   103   102    1
    27    75    76    1
    28    75    72    1
    29    71    72    1
    30    79    81   ar
    31    73    72    1
    32    73    74    2
    33    39    38    1
    34    39    40    2
    35    76    78   ar
    36   101   102   ar
    37   101    99   ar
    38   102   100   ar
    39    42    41    1
    40    42    43    1
    41    38    41    1
    42    38    37    1
    43    81    82    1
    44    81    80   ar
    45    99    97   ar
    46   100    98   ar
    47    44    43    1
    48    78    80   ar
    49    91    90    1
    50    97    98   ar
    51    97    96    1
    52    90    89    1
    53    96    93    1
    54    89    88    1
    55    35    36    1
    56    35    34    1
    57    93    92    1
    58    93    94    1
    59    27    29   ar
    60    27    25   ar
    61    87    88    1
    62    87    84    1
    63    92    85   am
    64    29    28   ar
    65   111   109   am
    66    36    30    1
    67    34    31    1
    68    95    94    2
    69    25    24   ar
    70    85    86    2
    71    85    84    1
    72   107   106    2
    73   108   109    1
    74   108   105    1
    75    84    83    1
    76   109   110    2
    77    28    26   ar
    78    33    32    2
    79    30    31    1
    80    30    21   am
    81   106   105    1
    82    31    32    1
    83    24    26   ar
    84    24    23    1
    85   105   104    1
    86    12    11    2
    87     8     6   ar
    88    20    21    1
    89    20    23    1
    90    20    19    1
    91    21    22    2
    92    11    19   am
    93    11    10    1
    94    13    14    1
    95    13    10    1
    96     7     6   ar
    97     6     5    1
    98    14    15   ar
    99    14    16   ar
   100    10     9    1
   101    15    17   ar
   102    16    18   ar
   103     5     2    1
   104    17    18   ar
   105     1     2    1
   106     2     3    1
   107     4     3    2
