@<TRIPOS>MOLECULE
tmp/2wcxA00.pdb
 131 126 0 0 0
SMALL
GASTEIGER

@<TRIPOS>ATOM
      1  N         19.0630   14.8960    8.8660 N.3    23  VAL23      -0.1245
      2  CA        19.4850   16.1590    9.4670 C.3    23  VAL23       0.1561
      3  C         18.4790   17.2170    9.0110 C.2    23  VAL23       0.2260
      4  O         18.1580   17.3060    7.8230 O.2    23  VAL23      -0.2867
      5  CB        20.9080   16.5450    9.0990 C.3    23  VAL23       0.0252
      6  CG1       21.8660   15.3340    9.2810 C.3    23  VAL23       0.0019
      7  CG2       21.0080   17.0330    7.6930 C.3    23  VAL23       0.0019
      8  N         19.7790   16.4650   14.3410 N.3   132  CYS132     -0.1235
      9  CA        19.7800   15.2490   13.5980 C.3   132  CYS132      0.1677
     10  C         18.6110   14.4030   14.0660 C.2   132  CYS132      0.2270
     11  O         18.2020   14.4920   15.2020 O.2   132  CYS132     -0.2867
     12  CB        21.1200   14.5920   13.8260 C.3   132  CYS132      0.0956
     13  SG        21.1260   12.9090   13.3160 S.3   132  CYS132     -0.0801
     14  N         28.3820   16.0950   14.7390 N.3   373  LEU373     -0.1231
     15  CA        28.6130   15.5040   13.4200 C.3   373  LEU373      0.1693
     16  C         27.5810   15.9950   12.4120 C.2   373  LEU373      0.2591
     17  O         27.9540   16.3880   11.3130 O.2   373  LEU373     -0.2718
     18  CB        28.5130   14.0010   13.5290 C.3   373  LEU373      0.0284
     19  CG        29.6620   13.3920   14.3500 C.3   373  LEU373      0.0019
     20  CD1       29.6340   11.9340   14.4220 C.3   373  LEU373      0.0001
     21  CD2       30.9190   13.8110   13.8600 C.3   373  LEU373      0.0001
     22  N         26.3080   15.9820   12.8160 N.am  374  ALA374     -0.1980
     23  CA        25.1850   16.4480   12.0080 C.3   374  ALA374      0.1597
     24  C         25.3670   17.9250   11.5990 C.2   374  ALA374      0.2287
     25  O         25.2400   18.2760   10.4150 O.2   374  ALA374     -0.2864
     26  CB        23.8930   16.2570   12.7330 C.3   374  ALA374      0.0319
     27  N         28.2660   19.5330   11.4680 N.3   376  ALA376     -0.1231
     28  CA        29.4140   19.5560   10.5650 C.3   376  ALA376      0.1694
     29  C         28.9740   19.0980    9.1540 C.2   376  ALA376      0.2591
     30  O         29.4230   19.6350    8.1310 O.2   376  ALA376     -0.2718
     31  CB        30.5830   18.6660   11.0590 C.3   376  ALA376      0.0304
     32  N         28.1360   18.0860    9.1100 N.am  377  ALA377     -0.1980
     33  CA        27.6180   17.6140    7.8480 C.3   377  ALA377      0.1597
     34  C         26.8810   18.7670    7.1180 C.2   377  ALA377      0.2287
     35  O         27.1690   19.0620    5.9700 O.2   377  ALA377     -0.2864
     36  CB        26.7170   16.4850    8.0580 C.3   377  ALA377      0.0319
     37  N         29.1660   21.1970    5.5590 N.3   380  THR380     -0.1218
     38  CA        29.9160   20.7730    4.4290 C.3   380  THR380      0.1862
     39  C         29.1230   21.1800    3.1600 C.2   380  THR380      0.2287
     40  O         29.6770   21.4240    2.1040 O.2   380  THR380     -0.2866
     41  CB        30.0570   19.2650    4.4930 C.3   380  THR380      0.1770
     42  OG1       30.9040   18.9020    5.5960 O.3   380  THR380     -0.2211
     43  CG2       30.8390   18.7290    3.3310 C.3   380  THR380      0.0375
     44  N         37.6850   12.5760   13.6220 N.3   405  ILE405     -0.1231
     45  CA        36.7590   12.8330   12.5600 C.3   405  ILE405      0.1692
     46  C         36.7160   14.3030   12.1820 C.2   405  ILE405      0.2591
     47  O         36.9980   14.6600   11.0100 O.2   405  ILE405     -0.2718
     48  CB        35.3910   12.2940   12.9070 C.3   405  ILE405      0.0266
     49  CG1       35.4830   10.8150   13.2420 C.3   405  ILE405      0.0019
     50  CG2       34.4170   12.5160   11.7780 C.3   405  ILE405      0.0020
     51  CD1       34.6930   10.4810   14.4570 C.3   405  ILE405      0.0001
     52  N         36.3740   15.1710   13.1160 N.am  406  LEU406     -0.1980
     53  CA        36.2270   16.5900   12.7170 C.3   406  LEU406      0.1596
     54  C         37.5090   17.2160   12.2160 C.2   406  LEU406      0.2287
     55  O         37.4870   17.8400   11.1750 O.2   406  LEU406     -0.2864
     56  CB        35.5690   17.4580   13.7790 C.3   406  LEU406      0.0297
     57  CG        34.1500   17.0630   14.1160 C.3   406  LEU406      0.0022
     58  CD1       33.6790   17.8820   15.3510 C.3   406  LEU406      0.0001
     59  CD2       33.2320   17.2630   12.9240 C.3   406  LEU406      0.0001
     60  N         38.3900   15.5440    8.6840 N.3   409  HIS409     -0.1226
     61  CA        37.5570   15.9180    7.5660 C.3   409  HIS409      0.1752
     62  C         37.7020   17.3880    7.1530 C.2   409  HIS409      0.2596
     63  O         37.7360   17.7740    5.9770 O.2   409  HIS409     -0.2718
     64  CB        36.1450   15.7130    7.9340 C.3   409  HIS409      0.0759
     65  CG        35.2570   15.7030    6.7660 C.ar  409  HIS409      0.0818
     66  ND1       35.3900   14.7630    5.7680 N.ar  409  HIS409     -0.2268
     67  CD2       34.2480   16.5250    6.3980 C.ar  409  HIS409      0.1154
     68  CE1       34.4660   14.9880    4.8520 C.ar  409  HIS409      0.1986
     69  NE2       33.7760   16.0600    5.2020 N.ar  409  HIS409     -0.2212
     70  N         37.8160   18.2280    8.1370 N.am  410  PHE410     -0.1976
     71  CA        37.9080   19.6310    7.7950 C.3   410  PHE410      0.1639
     72  C         39.2390   20.1240    7.1560 C.2   410  PHE410      0.2290
     73  O         39.1720   20.8420    6.1980 O.2   410  PHE410     -0.2864
     74  CB        37.3140   20.4360    8.8800 C.3   410  PHE410      0.0560
     75  CG        35.7950   20.4030    8.8170 C.ar  410  PHE410     -0.0200
     76  CD1       35.0410   19.7470    9.7810 C.ar  410  PHE410     -0.0042
     77  CD2       35.1150   20.9780    7.7080 C.ar  410  PHE410     -0.0042
     78  CE1       33.7000   19.7560    9.6980 C.ar  410  PHE410     -0.0003
     79  CE2       33.7390   20.9500    7.6290 C.ar  410  PHE410     -0.0003
     80  CZ        33.0400   20.3570    8.6170 C.ar  410  PHE410     -0.0000
     81  N         24.9640    6.8010   11.8950 N.3   473  LEU473     -0.1231
     82  CA        24.8350    7.8950   10.9790 C.3   473  LEU473      0.1693
     83  C         25.3180    7.5410    9.5810 C.2   473  LEU473      0.2593
     84  O         25.2270    8.3610    8.7030 O.2   473  LEU473     -0.2718
     85  CB        25.6180    9.0850   11.5000 C.3   473  LEU473      0.0284
     86  CG        25.1040    9.6730   12.8100 C.3   473  LEU473      0.0019
     87  CD1       26.0670   10.6740   13.3100 C.3   473  LEU473      0.0001
     88  CD2       23.7260   10.3040   12.6260 C.3   473  LEU473      0.0001
     89  N         25.8580    6.3420    9.3980 N.am  474  GLY474     -0.1942
     90  CA        26.4820    5.9860    8.1460 C.3   474  GLY474      0.2014
     91  C         27.7710    6.7320    7.8050 C.2   474  GLY474      0.2639
     92  O         28.1110    6.9120    6.6260 O.2   474  GLY474     -0.2714
     93  N         28.4830    7.2170    8.8030 N.am  475  VAL475     -0.1963
     94  CA        29.7560    7.7830    8.5220 C.3   475  VAL475      0.1712
     95  C         30.8190    6.6950    8.6210 C.2   475  VAL475      0.2458
     96  O         30.6290    5.6990    9.2830 O.2   475  VAL475     -0.2730
     97  CB        30.0650    9.1340    9.2930 C.3   475  VAL475      0.0289
     98  CG1       28.9510    9.6620   10.1470 C.3   475  VAL475      0.0023
     99  CG2       31.3510    9.1610    9.9240 C.3   475  VAL475      0.0023
    100  N         31.9010    6.8220    7.9060 N.am  476  PRO476     -0.2727
    101  CA        32.9170    5.7610    7.9440 C.3   476  PRO476      0.1402
    102  C         33.4530    5.4800    9.3350 C.2   476  PRO476      0.2269
    103  O         33.5030    6.3490   10.1690 O.2   476  PRO476     -0.2865
    104  CB        33.9920    6.2780    7.0180 C.3   476  PRO476      0.0296
    105  CG        33.2570    7.1770    6.0250 C.3   476  PRO476      0.0237
    106  CD        32.1810    7.8430    6.8920 C.3   476  PRO476      0.0939
    107  N         39.0350    6.9230    9.2190 N.3   481  TRP481     -0.1241
    108  CA        39.4890    8.2390    9.6350 C.3   481  TRP481      0.1605
    109  C         40.9830    8.2620    9.9230 C.2   481  TRP481      0.2264
    110  O         41.6860    9.2770    9.6590 O.2   481  TRP481     -0.2867
    111  CB        38.6870    8.7450   10.8630 C.3   481  TRP481      0.0550
    112  CG        37.3000    8.9790   10.4260 C.ar  481  TRP481      0.0003
    113  CD1       36.2630    8.1550   10.6200 C.ar  481  TRP481      0.0946
    114  CD2       36.8330    9.9880    9.5130 C.ar  481  TRP481      0.0152
    115  NE1       35.1500    8.6170    9.9810 N.ar  481  TRP481     -0.2442
    116  CE2       35.4850    9.7310    9.2640 C.ar  481  TRP481      0.0810
    117  CE3       37.4140   11.1080    8.9190 C.ar  481  TRP481      0.0012
    118  CZ2       34.7000   10.5580    8.4780 C.ar  481  TRP481      0.0191
    119  CZ3       36.6310   11.9070    8.1060 C.ar  481  TRP481      0.0001
    120  CH2       35.3200   11.6580    7.9140 C.ar  481  TRP481      0.0015
    121  N         42.7510    8.3910    6.5370 N.3   484  ARG484     -0.1245
    122  CA        42.5410    9.7220    5.9740 C.3   484  ARG484      0.1563
    123  C         43.4540   10.7010    6.6700 C.2   484  ARG484      0.2260
    124  O         44.1380   11.5040    6.0120 O.2   484  ARG484     -0.2867
    125  CB        41.0770   10.1310    6.0500 C.3   484  ARG484      0.0307
    126  CG        40.1740    9.4180    5.1200 C.3   484  ARG484      0.0489
    127  CD        38.7280    9.8010    5.2430 C.3   484  ARG484      0.2205
    128  NE        37.8620    9.0650    4.3500 N.pl3 484  ARG484     -0.0865
    129  CZ        36.5500    9.2410    4.2590 C.cat 484  ARG484      0.5346
    130  NH1       35.9110   10.1100    5.0440 N.pl3 484  ARG484      0.1354
    131  NH2       35.8410    8.5420    3.3910 N.pl3 484  ARG484      0.1354
@<TRIPOS>BOND
     1    40    39    2
     2    39    38    1
     3    43    41    1
     4   131   129    1
     5   129   128    2
     6   129   130    1
     7   128   127    1
     8    38    41    1
     9    38    37    1
    10    41    42    1
    11    68    69   ar
    12    68    66   ar
    13   126   127    1
    14   126   125    1
    15    69    67   ar
    16    66    65   ar
    17    35    34    2
    18   122   125    1
    19   122   121    1
    20   122   123    1
    21    63    62    2
    22   124   123    2
    23   105   106    1
    24   105   104    1
    25    73    72    2
    26    67    65   ar
    27    92    91    2
    28    65    64    1
    29   106   100    1
    30   104   101    1
    31    34    33    1
    32    62    61    1
    33    62    70   am
    34    72    71    1
    35    61    64    1
    36    61    60    1
    37    79    77   ar
    38    79    80   ar
    39     7     5    1
    40    77    75   ar
    41    71    70    1
    42    71    74    1
    43    91    90    1
    44    91    93   am
    45     4     3    2
    46    33    36    1
    47    33    32    1
    48   100   101    1
    49   100    95   am
    50   120   119   ar
    51   120   118   ar
    52   101   102    1
    53   119   117   ar
    54    30    29    2
    55    90    89    1
    56   118   116   ar
    57    94    95    1
    58    94    93    1
    59    94    97    1
    60    80    78   ar
    61    95    96    2
    62    84    83    2
    63    75    74    1
    64    75    76   ar
    65     1     2    1
    66   117   114   ar
    67     3     2    1
    68     5     6    1
    69     5     2    1
    70    32    29   am
    71    29    28    1
    72   107   108    1
    73   116   114   ar
    74   116   115   ar
    75    97    99    1
    76    97    98    1
    77   102   103    2
    78    89    83   am
    79   114   112   ar
    80    83    82    1
    81   108   109    1
    82   108   111    1
    83   110   109    2
    84    78    76   ar
    85   115   113   ar
    86    25    24    2
    87   112   113   ar
    88   112   111    1
    89    28    31    1
    90    28    27    1
    91    82    85    1
    92    82    81    1
    93    47    46    2
    94    55    54    2
    95    17    16    2
    96    85    86    1
    97    24    23    1
    98    50    48    1
    99    23    26    1
   100    23    22    1
   101    46    45    1
   102    46    52   am
   103    54    53    1
   104    16    22   am
   105    16    15    1
   106    45    48    1
   107    45    44    1
   108    88    86    1
   109    53    52    1
   110    53    56    1
   111    86    87    1
   112    48    49    1
   113    59    57    1
   114    49    51    1
   115    13    12    1
   116    15    18    1
   117    15    14    1
   118    18    19    1
   119     9    12    1
   120     9    10    1
   121     9     8    1
   122    56    57    1
   123    21    19    1
   124    10    11    2
   125    57    58    1
   126    19    20    1
