@<TRIPOS>MOLECULE
tmp/2wd1A00.pdb
 145 136 0 0 0
SMALL
GASTEIGER

@<TRIPOS>ATOM
      1  N        108.6430   20.2700  132.4610 N.3    30  ILE30      -0.1231
      2  CA       109.2000   20.3060  133.8120 C.3    30  ILE30       0.1692
      3  C        108.4820   19.3470  134.7720 C.2    30  ILE30       0.2592
      4  O        109.0350   18.9620  135.8030 O.2    30  ILE30      -0.2718
      5  CB       109.2170   21.7430  134.3970 C.3    30  ILE30       0.0266
      6  CG1      107.8020   22.3220  134.5310 C.3    30  ILE30       0.0019
      7  CG2      110.0940   22.6330  133.5390 C.3    30  ILE30       0.0020
      8  CD1      107.7350   23.6890  135.2150 C.3    30  ILE30       0.0001
      9  N        107.2640   18.9510  134.4340 N.am   31  GLY31      -0.1957
     10  CA       106.5110   18.0160  135.2640 C.3    31  GLY31       0.1869
     11  C        105.4860   17.2960  134.4240 C.2    31  GLY31       0.2309
     12  O        105.0830   17.7840  133.3700 O.2    31  GLY31      -0.2863
     13  N        103.4680   19.5820  132.2660 N.3    38  VAL38      -0.1245
     14  CA       103.6750   20.8550  132.9560 C.3    38  VAL38       0.1561
     15  C        104.9060   21.5790  132.3810 C.2    38  VAL38       0.2260
     16  O        105.9570   20.9740  132.1800 O.2    38  VAL38      -0.2867
     17  CB       103.8760   20.6560  134.4910 C.3    38  VAL38       0.0252
     18  CG1      104.0900   22.0060  135.2170 C.3    38  VAL38       0.0019
     19  CG2      102.7020   19.9040  135.1090 C.3    38  VAL38       0.0019
     20  N        104.1570   27.7690  136.6120 N.3    54  ALA54      -0.1245
     21  CA       104.1280   26.4050  136.1280 C.3    54  ALA54       0.1562
     22  C        102.7870   26.2850  135.4110 C.2    54  ALA54       0.2260
     23  O        101.7360   26.5550  135.9880 O.2    54  ALA54      -0.2867
     24  CB       104.2140   25.4300  137.2740 C.3    54  ALA54       0.0290
     25  N        100.0900   24.0250  133.2010 N.3    56  LYS56      -0.1245
     26  CA        99.6700   22.6490  132.9450 C.3    56  LYS56       0.1561
     27  C         98.6580   22.5890  131.8210 C.2    56  LYS56       0.2260
     28  O         97.6570   23.2830  131.8430 O.2    56  LYS56      -0.2867
     29  CB        99.0470   22.0560  134.2020 C.3    56  LYS56       0.0271
     30  CG        98.5980   20.6140  134.0820 C.3    56  LYS56       0.0035
     31  CD        98.3340   20.0580  135.4760 C.3    56  LYS56       0.0206
     32  CE        97.4200   18.8470  135.4820 C.3    56  LYS56       0.1093
     33  NZ        96.8580   18.6520  136.8450 N.3    56  LYS56      -0.1314
     34  N         98.7810   26.3040  147.7400 N.3    86  LEU86      -0.1245
     35  CA        99.1640   26.7710  146.4020 C.3    86  LEU86       0.1561
     36  C         97.9760   27.4740  145.7390 C.2    86  LEU86       0.2260
     37  O         96.8590   26.9480  145.6770 O.2    86  LEU86      -0.2867
     38  CB        99.6800   25.6200  145.5400 C.3    86  LEU86       0.0270
     39  CG       100.2850   25.9910  144.1750 C.3    86  LEU86       0.0019
     40  CD1      101.5930   26.7190  144.3340 C.3    86  LEU86       0.0001
     41  CD2      100.4740   24.7370  143.3380 C.3    86  LEU86       0.0001
     42  N         99.7830   28.1880  137.5190 N.3   100  LEU100     -0.1231
     43  CA       100.1210   28.1270  138.9360 C.3   100  LEU100      0.1678
     44  C        101.4140   28.8800  139.1930 C.2   100  LEU100      0.2434
     45  O        102.2060   29.0330  138.2830 O.2   100  LEU100     -0.2733
     46  CB       100.3240   26.6740  139.3480 C.3   100  LEU100      0.0284
     47  CG        99.1840   25.7200  139.0030 C.3   100  LEU100      0.0019
     48  CD1       99.5560   24.2950  139.3300 C.3   100  LEU100      0.0001
     49  CD2       97.8890   26.1430  139.7070 C.3   100  LEU100      0.0001
     50  N        101.6470   29.3290  140.4380 N.am  101  PRO101     -0.2718
     51  CA       102.9370   29.9490  140.7110 C.3   101  PRO101      0.1535
     52  C        104.0370   28.9110  140.6230 C.2   101  PRO101      0.2599
     53  O        103.8330   27.7660  141.0230 O.2   101  PRO101     -0.2715
     54  CB       102.7960   30.4740  142.1540 C.3   101  PRO101      0.0310
     55  CG       101.3760   30.3300  142.5140 C.3   101  PRO101      0.0237
     56  CD       100.7910   29.2890  141.6340 C.3   101  PRO101      0.0939
     57  N        105.1910   29.3030  140.0970 N.am  102  TYR102     -0.1960
     58  CA       106.3020   28.3640  139.9650 C.3   102  TYR102      0.1771
     59  C        106.9240   28.1470  141.3340 C.2   102  TYR102      0.2619
     60  O        107.1440   29.0930  142.0780 O.2   102  TYR102     -0.2715
     61  CB       107.3340   28.9010  138.9800 C.3   102  TYR102      0.0574
     62  CG       108.5520   28.0290  138.8130 C.ar  102  TYR102     -0.0198
     63  CD1      108.4990   26.8730  138.0500 C.ar  102  TYR102     -0.0009
     64  CD2      109.7600   28.3670  139.4110 C.ar  102  TYR102     -0.0009
     65  CE1      109.6140   26.0730  137.8920 C.ar  102  TYR102      0.0417
     66  CE2      110.8750   27.5750  139.2610 C.ar  102  TYR102      0.0417
     67  CZ       110.8020   26.4340  138.4940 C.ar  102  TYR102      0.1957
     68  OH       111.9220   25.6350  138.3380 O.3   102  TYR102     -0.2866
     69  N        107.2010   26.8910  141.6610 N.am  103  MET103     -0.1977
     70  CA       107.7360   26.5340  142.9620 C.3   103  MET103      0.1605
     71  C        109.1890   26.1010  142.7640 C.2   103  MET103      0.2287
     72  O        109.4380   24.9920  142.3100 O.2   103  MET103     -0.2864
     73  CB       106.9050   25.4100  143.5850 C.3   103  MET103      0.0413
     74  CG       105.4720   25.8200  143.9220 C.3   103  MET103      0.0598
     75  SD       105.3960   26.7830  145.4540 S.3   103  MET103     -0.1393
     76  CE       105.1360   28.4230  144.8020 C.3   103  MET103      0.0692
     77  N        110.2760   22.6090  144.0360 N.3   106  GLY106     -0.1210
     78  CA       109.5500   21.4580  143.5170 C.3   106  GLY106      0.1956
     79  C        108.6480   20.8500  144.5660 C.2   106  GLY106      0.2611
     80  O        108.1790   21.5440  145.4590 O.2   106  GLY106     -0.2717
     81  N        108.3890   19.5530  144.4560 N.am  107  ASP107     -0.1973
     82  CA       107.5820   18.8820  145.4630 C.3   107  ASP107      0.1709
     83  C        108.3920   18.5060  146.7080 C.2   107  ASP107      0.2293
     84  O        109.5910   18.1830  146.6430 O.2   107  ASP107     -0.2864
     85  CB       106.8310   17.6830  144.8870 C.3   107  ASP107      0.1436
     86  CG       107.7300   16.5550  144.5320 C.2   107  ASP107      0.3671
     87  OD1      108.3280   16.6150  143.4460 O.co2 107  ASP107     -0.2456
     88  OD2      107.8300   15.6050  145.3360 O.co2 107  ASP107     -0.2456
     89  N        104.4290   14.2750  148.0870 N.3   151  ARG151     -0.1231
     90  CA       104.5620   14.4830  146.6470 C.3   151  ARG151      0.1694
     91  C        103.6360   15.6040  146.1510 C.2   151  ARG151      0.2592
     92  O        103.8760   16.1940  145.0940 O.2   151  ARG151     -0.2718
     93  CB       104.3030   13.1680  145.8960 C.3   151  ARG151      0.0321
     94  CG       102.9280   12.5460  146.1720 C.3   151  ARG151      0.0489
     95  CD       102.5980   11.2840  145.3320 C.3   151  ARG151      0.2205
     96  NE       101.2310   10.8560  145.6560 N.pl3 151  ARG151     -0.0865
     97  CZ       100.8920   10.0150  146.6340 C.cat 151  ARG151      0.5346
     98  NH1      101.8150    9.4330  147.3840 N.pl3 151  ARG151      0.1354
     99  NH2       99.6080    9.7400  146.8580 N.pl3 151  ARG151      0.1354
    100  N        102.5810   15.8830  146.9160 N.am  152  ASN152     -0.1974
    101  CA       101.5510   16.8380  146.5430 C.3   152  ASN152      0.1688
    102  C        101.6330   18.1500  147.3370 C.2   152  ASN152      0.2292
    103  O        100.6980   18.9340  147.3340 O.2   152  ASN152     -0.2864
    104  CB       100.1670   16.1930  146.7220 C.3   152  ASN152      0.1181
    105  CG        99.9570   14.9840  145.8160 C.2   152  ASN152      0.2629
    106  OD1      100.4860   14.9200  144.7100 O.2   152  ASN152     -0.2716
    107  ND2       99.1730   14.0170  146.2890 N.am  152  ASN152     -0.0877
    108  N        104.2590   21.4780  147.6670 N.3   154  MET154     -0.1245
    109  CA       105.3540   22.1350  146.9670 C.3   154  MET154      0.1570
    110  C        106.1430   23.0170  147.9270 C.2   154  MET154      0.2261
    111  O        105.6570   23.3600  148.9950 O.2   154  MET154     -0.2867
    112  CB       104.8080   22.9950  145.8270 C.3   154  MET154      0.0387
    113  CG       103.8980   22.2830  144.8550 C.3   154  MET154      0.0595
    114  SD       104.6990   20.9620  143.9740 S.3   154  MET154     -0.1393
    115  CE       105.8090   21.8530  142.8990 C.3   154  MET154      0.0692
    116  N         99.3010   21.3780  147.6190 N.3   164  ALA164     -0.1231
    117  CA        98.8880   21.4410  146.2210 C.3   164  ALA164      0.1694
    118  C         98.0710   20.2200  145.8120 C.2   164  ALA164      0.2592
    119  O         97.6120   19.4550  146.6610 O.2   164  ALA164     -0.2718
    120  CB       100.1080   21.5890  145.3430 C.3   164  ALA164      0.0304
    121  N         97.8730   20.0400  144.5110 N.am  165  ASP165     -0.1974
    122  CA        97.2120   18.8390  143.9920 C.3   165  ASP165      0.1709
    123  C         95.7620   18.7600  144.4540 C.2   165  ASP165      0.2293
    124  O         95.3170   17.7380  144.9710 O.2   165  ASP165     -0.2864
    125  CB        97.9520   17.5560  144.4220 C.3   165  ASP165      0.1436
    126  CG        97.4080   16.3110  143.7450 C.2   165  ASP165      0.3671
    127  OD1       96.8490   16.4390  142.6530 O.co2 165  ASP165     -0.2456
    128  OD2       97.5210   15.2000  144.3120 O.co2 165  ASP165     -0.2456
    129  N         94.3600   21.7280  139.7540 N.3   169  ALA169     -0.1245
    130  CA        95.6940   21.1450  139.7230 C.3   169  ALA169      0.1562
    131  C         95.7060   19.6660  140.1200 C.2   169  ALA169      0.2260
    132  O         96.7750   19.0470  140.1630 O.2   169  ALA169     -0.2867
    133  CB        96.6120   21.9370  140.6400 C.3   169  ALA169      0.0290
    134  N        100.6340   12.7530  140.1730 N.3   173  TYR173     -0.1241
    135  CA       101.9680   13.1590  139.7720 C.3   173  TYR173      0.1605
    136  C        102.9530   12.0280  140.0410 C.2   173  TYR173      0.2264
    137  O        104.1200   12.1150  139.6730 O.2   173  TYR173     -0.2867
    138  CB       102.3780   14.4410  140.4980 C.3   173  TYR173      0.0534
    139  CG       101.5130   15.6340  140.1590 C.ar  173  TYR173     -0.0201
    140  CD1      101.7950   16.4300  139.0590 C.ar  173  TYR173     -0.0009
    141  CD2      100.4150   15.9710  140.9500 C.ar  173  TYR173     -0.0009
    142  CE1      101.0050   17.5280  138.7410 C.ar  173  TYR173      0.0417
    143  CE2       99.6180   17.0650  140.6460 C.ar  173  TYR173      0.0417
    144  CZ        99.9210   17.8370  139.5400 C.ar  173  TYR173      0.1957
    145  OH        99.1480   18.9240  139.2370 O.3   173  TYR173     -0.2866
@<TRIPOS>BOND
     1    27    28    2
     2    27    26    1
     3    16    15    2
     4    13    14    1
     5    15    14    1
     6     1     2    1
     7    26    25    1
     8    26    29    1
     9    14    17    1
    10    12    11    2
    11     7     5    1
    12     2     5    1
    13     2     3    1
    14    30    29    1
    15    30    31    1
    16     5     6    1
    17    11    10    1
    18     9     3   am
    19     9    10    1
    20    17    19    1
    21    17    18    1
    22     6     8    1
    23     3     4    2
    24    22    23    2
    25    22    21    1
    26    31    32    1
    27    32    33    1
    28    21    20    1
    29    21    24    1
    30    42    43    1
    31    65    63   ar
    32    65    67   ar
    33    63    62   ar
    34    45    44    2
    35    68    67    1
    36    67    66   ar
    37   142   140   ar
    38   142   144   ar
    39    62    61    1
    40    62    64   ar
    41    43    44    1
    42    43    46    1
    43    61    58    1
    44    47    48    1
    45    47    46    1
    46    47    49    1
    47   140   139   ar
    48    44    50   am
    49   145   144    1
    50    66    64   ar
    51   144   143   ar
    52   137   136    2
    53   130   129    1
    54   130   131    1
    55   130   133    1
    56   135   136    1
    57   135   134    1
    58   135   138    1
    59    58    57    1
    60    58    59    1
    61    57    52   am
    62   131   132    2
    63   139   138    1
    64   139   141   ar
    65    50    51    1
    66    50    56    1
    67    52    51    1
    68    52    53    2
    69   143   141   ar
    70    51    54    1
    71    59    69   am
    72    59    60    2
    73    56    55    1
    74    69    70    1
    75    54    55    1
    76    72    71    2
    77   127   126   ar
    78    71    70    1
    79   115   114    1
    80    70    73    1
    81    41    39    1
    82    87    86   ar
    83    78    77    1
    84    78    79    1
    85    73    74    1
    86   126   128   ar
    87   126   125    1
    88    74    75    1
    89   114   113    1
    90   122   125    1
    91   122   123    1
    92   122   121    1
    93    39    40    1
    94    39    38    1
    95   123   124    2
    96    81    79   am
    97    81    82    1
    98   121   118   am
    99    86    85    1
   100    86    88   ar
   101    79    80    2
   102   106   105    2
   103    76    75    1
   104   113   112    1
   105    85    82    1
   106    92    91    2
   107    95    96    1
   108    95    94    1
   109   120   117    1
   110    82    83    1
   111    38    35    1
   112    96    97    2
   113    37    36    2
   114    36    35    1
   115   118   117    1
   116   118   119    2
   117   105   107   am
   118   105   104    1
   119   112   109    1
   120    93    94    1
   121    93    90    1
   122    91    90    1
   123    91   100   am
   124   117   116    1
   125    35    34    1
   126   101   104    1
   127   101   100    1
   128   101   102    1
   129    97    99    1
   130    97    98    1
   131    84    83    2
   132    90    89    1
   133   109   108    1
   134   109   110    1
   135   103   102    2
   136   110   111    2
