@<TRIPOS>MOLECULE
tmp/2wd2A00.pdb
 178 173 0 0 0
SMALL
GASTEIGER

@<TRIPOS>ATOM
      1  N         12.8800    6.2060  -13.6090 N.3     3  TRP3       -0.1241
      2  CA        12.2630    7.5350  -13.6740 C.3     3  TRP3        0.1605
      3  C         11.2530    7.7090  -12.5490 C.2     3  TRP3        0.2264
      4  O         10.6480    6.7400  -12.0760 O.2     3  TRP3       -0.2867
      5  CB        11.6130    7.7850  -15.0410 C.3     3  TRP3        0.0550
      6  CG        10.3680    6.9830  -15.3140 C.ar    3  TRP3        0.0003
      7  CD1       10.2940    5.7650  -15.9470 C.ar    3  TRP3        0.0946
      8  CD2        9.0200    7.3450  -14.9900 C.ar    3  TRP3        0.0152
      9  NE1        8.9890    5.3520  -16.0250 N.ar    3  TRP3       -0.2442
     10  CE2        8.1830    6.2960  -15.4440 C.ar    3  TRP3        0.0810
     11  CE3        8.4350    8.4470  -14.3510 C.ar    3  TRP3        0.0012
     12  CZ2        6.7890    6.3220  -15.2890 C.ar    3  TRP3        0.0191
     13  CZ3        7.0500    8.4750  -14.1940 C.ar    3  TRP3        0.0001
     14  CH2        6.2420    7.4160  -14.6640 C.ar    3  TRP3        0.0015
     15  N          9.4550   11.2920   -9.9670 N.3     5  TYR5       -0.1241
     16  CA         9.0460   12.6860   -9.8860 C.3     5  TYR5        0.1605
     17  C          9.9200   13.5250   -8.9680 C.2     5  TYR5        0.2264
     18  O          9.5880   14.6840   -8.6870 O.2     5  TYR5       -0.2867
     19  CB         7.5820   12.7720   -9.4460 C.3     5  TYR5        0.0534
     20  CG         6.6310   12.3320  -10.5280 C.ar    5  TYR5       -0.0201
     21  CD1        6.2410   13.2180  -11.5300 C.ar    5  TYR5       -0.0009
     22  CD2        6.1360   11.0240  -10.5680 C.ar    5  TYR5       -0.0009
     23  CE1        5.3670   12.8170  -12.5380 C.ar    5  TYR5        0.0417
     24  CE2        5.2680   10.6150  -11.5650 C.ar    5  TYR5        0.0417
     25  CZ         4.8920   11.5110  -12.5530 C.ar    5  TYR5        0.1957
     26  OH         4.0300   11.0990  -13.5340 O.3     5  TYR5       -0.2866
     27  N          1.4620    1.4680   -8.7060 N.3    60  ASN60      -0.1240
     28  CA         2.6250    1.0860   -9.5200 C.3    60  ASN60       0.1653
     29  C          3.9090    1.8410   -9.1820 C.2    60  ASN60       0.2266
     30  O          4.8830    1.7650   -9.9140 O.2    60  ASN60      -0.2867
     31  CB         2.3090    1.1940  -11.0190 C.3    60  ASN60       0.1155
     32  CG         2.1880    2.6330  -11.5020 C.2    60  ASN60       0.2627
     33  OD1        2.3060    3.5920  -10.7310 O.2    60  ASN60      -0.2716
     34  ND2        1.9430    2.7820  -12.7910 N.am   60  ASN60      -0.0877
     35  N          4.1690    5.0990   -9.1240 N.3    62  HIS62      -0.1226
     36  CA         4.0940    6.4080   -9.7960 C.3    62  HIS62       0.1752
     37  C          2.7470    7.0570   -9.4840 C.2    62  HIS62       0.2595
     38  O          2.6720    8.2390   -9.1260 O.2    62  HIS62      -0.2718
     39  CB         4.2490    6.2450  -11.3140 C.3    62  HIS62       0.0759
     40  CG         5.5320    5.5910  -11.7270 C.ar   62  HIS62       0.0818
     41  ND1        6.7590    6.1900  -11.5480 N.ar   62  HIS62      -0.2268
     42  CD2        5.7800    4.3960  -12.3180 C.ar   62  HIS62       0.1154
     43  CE1        7.7120    5.3900  -11.9910 C.ar   62  HIS62       0.1986
     44  NE2        7.1430    4.2980  -12.4730 N.ar   62  HIS62      -0.2212
     45  N          1.6920    6.2680   -9.6380 N.am   63  ALA63      -0.1980
     46  CA         0.3380    6.6540   -9.2850 C.3    63  ALA63       0.1597
     47  C         -0.3940    5.3790   -8.9340 C.2    63  ALA63       0.2287
     48  O          0.2360    4.3530   -8.7050 O.2    63  ALA63      -0.2864
     49  CB        -0.3410    7.3610  -10.4490 C.3    63  ALA63       0.0319
     50  N         -3.5670    3.0000  -10.6530 N.3    65  ASN65      -0.1240
     51  CA        -4.4980    2.9150  -11.7570 C.3    65  ASN65       0.1653
     52  C         -5.5190    1.8340  -11.5790 C.2    65  ASN65       0.2266
     53  O         -5.2670    0.8140  -10.9260 O.2    65  ASN65      -0.2867
     54  CB        -3.8130    2.7940  -13.1160 C.3    65  ASN65       0.1155
     55  CG        -2.8620    1.6340  -13.1970 C.2    65  ASN65       0.2627
     56  OD1       -3.2820    0.4740  -13.2120 O.2    65  ASN65      -0.2716
     57  ND2       -1.5650    1.9330  -13.3170 N.am   65  ASN65      -0.0877
     58  N         -7.6800   -0.6850  -13.7450 N.3    67  GLU67      -0.1245
     59  CA        -7.5880   -1.3350  -15.0420 C.3    67  GLU67       0.1567
     60  C         -8.9460   -1.9100  -15.4370 C.2    67  GLU67       0.2260
     61  O         -9.6990   -2.3750  -14.5840 O.2    67  GLU67      -0.2867
     62  CB        -6.5250   -2.4340  -14.9950 C.3    67  GLU67       0.0388
     63  CG        -5.1130   -1.9090  -14.7400 C.3    67  GLU67       0.1160
     64  CD        -4.1290   -2.9630  -14.2470 C.2    67  GLU67       0.3649
     65  OE1       -4.2780   -4.1520  -14.6100 O.co2  67  GLU67      -0.2457
     66  OE2       -3.1970   -2.5940  -13.4980 O.co2  67  GLU67      -0.2457
     67  N         -9.0960    1.5520  -21.2910 N.3    85  ILE85      -0.1231
     68  CA        -8.1900    0.5480  -20.7340 C.3    85  ILE85       0.1692
     69  C         -7.8620    0.7770  -19.2490 C.2    85  ILE85       0.2591
     70  O         -7.7420   -0.1680  -18.4750 O.2    85  ILE85      -0.2718
     71  CB        -6.9040    0.4070  -21.5910 C.3    85  ILE85       0.0266
     72  CG1       -6.0270   -0.7500  -21.1090 C.3    85  ILE85       0.0019
     73  CG2       -6.1290    1.7330  -21.6680 C.3    85  ILE85       0.0020
     74  CD1       -4.9730   -1.1580  -22.1300 C.3    85  ILE85       0.0001
     75  N         -7.7050    2.0330  -18.8440 N.am   86  GLN86      -0.1979
     76  CA        -7.4150    2.3180  -17.4500 C.3    86  GLN86       0.1601
     77  C         -7.6610    3.7750  -17.1260 C.2    86  GLN86       0.2287
     78  O         -7.7200    4.6120  -18.0390 O.2    86  GLN86      -0.2864
     79  CB        -5.9580    1.9420  -17.1170 C.3    86  GLN86       0.0394
     80  CG        -4.8570    2.7760  -17.8090 C.3    86  GLN86       0.0908
     81  CD        -4.2000    3.7710  -16.8630 C.2    86  GLN86       0.2608
     82  OE1       -3.0820    3.5650  -16.4040 O.2    86  GLN86      -0.2717
     83  NE2       -4.9040    4.8250  -16.5470 N.am   86  GLN86      -0.0878
     84  N         -6.2290    6.8530  -14.0780 N.3    88  HIS88      -0.1241
     85  CA        -5.3680    7.2100  -12.9650 C.3    88  HIS88       0.1621
     86  C         -5.4810    8.7000  -12.7320 C.2    88  HIS88       0.2264
     87  O         -6.1500    9.4140  -13.4920 O.2    88  HIS88      -0.2867
     88  CB        -3.9130    6.8660  -13.2890 C.3    88  HIS88       0.0745
     89  CG        -3.3940    7.5830  -14.4950 C.ar   88  HIS88       0.0817
     90  ND1       -3.5510    7.0790  -15.7700 N.ar   88  HIS88      -0.2268
     91  CD2       -2.7720    8.7800  -14.6350 C.ar   88  HIS88       0.1154
     92  CE1       -3.0300    7.9260  -16.6420 C.ar   88  HIS88       0.1986
     93  NE2       -2.5560    8.9690  -15.9800 N.ar   88  HIS88      -0.2212
     94  N         -3.2530   12.4160  -11.2180 N.3    90  HIS90      -0.1241
     95  CA        -2.0340   13.1250  -10.8000 C.3    90  HIS90       0.1621
     96  C         -2.4730   14.1320   -9.7560 C.2    90  HIS90       0.2264
     97  O         -3.5480   14.6850   -9.8820 O.2    90  HIS90      -0.2867
     98  CB        -1.3980   13.8590  -11.9760 C.3    90  HIS90       0.0745
     99  CG        -1.1350   12.9800  -13.1580 C.ar   90  HIS90       0.0817
    100  ND1        0.1090   12.4560  -13.4450 N.ar   90  HIS90      -0.2268
    101  CD2       -1.9740   12.5140  -14.1110 C.ar   90  HIS90       0.1154
    102  CE1        0.0160   11.7050  -14.5360 C.ar   90  HIS90       0.1986
    103  NE2       -1.2310   11.7410  -14.9640 N.ar   90  HIS90      -0.2212
    104  N         -7.1200   11.0880  -15.5300 N.3   113  HIS113     -0.1241
    105  CA        -6.8990   10.6730  -16.9080 C.3   113  HIS113      0.1621
    106  C         -7.5450    9.3340  -17.2060 C.2   113  HIS113      0.2264
    107  O         -7.1700    8.3130  -16.6190 O.2   113  HIS113     -0.2867
    108  CB        -5.4030   10.6110  -17.2080 C.3   113  HIS113      0.0745
    109  CG        -4.7550   11.9560  -17.2390 C.ar  113  HIS113      0.0817
    110  ND1       -3.4000   12.1400  -17.0890 N.ar  113  HIS113     -0.2268
    111  CD2       -5.2940   13.1900  -17.3810 C.ar  113  HIS113      0.1154
    112  CE1       -3.1260   13.4330  -17.1570 C.ar  113  HIS113      0.1986
    113  NE2       -4.2600   14.0890  -17.3190 N.ar  113  HIS113     -0.2212
    114  N         -7.7930    6.6870  -20.0030 N.3   115  VAL115     -0.1245
    115  CA        -6.9490    6.3400  -21.1520 C.3   115  VAL115      0.1561
    116  C         -7.6720    5.3690  -22.0780 C.2   115  VAL115      0.2260
    117  O         -8.1620    4.3320  -21.6200 O.2   115  VAL115     -0.2867
    118  CB        -5.5970    5.7340  -20.6870 C.3   115  VAL115      0.0252
    119  CG1       -4.7210    5.3680  -21.8810 C.3   115  VAL115      0.0019
    120  CG2       -4.8600    6.7340  -19.7700 C.3   115  VAL115      0.0019
    121  N         -3.5930   -1.9980  -27.3120 N.3   124  PHE124     -0.1227
    122  CA        -2.9330   -0.8180  -26.7620 C.3   124  PHE124      0.1736
    123  C         -1.4910   -0.7140  -27.2510 C.2   124  PHE124      0.2596
    124  O         -1.0340    0.3640  -27.6490 O.2   124  PHE124     -0.2718
    125  CB        -2.9740   -0.8760  -25.2320 C.3   124  PHE124      0.0547
    126  CG        -2.2470    0.2580  -24.5640 C.ar  124  PHE124     -0.0202
    127  CD1       -2.9100    1.4480  -24.2570 C.ar  124  PHE124     -0.0042
    128  CD2       -0.9010    0.1360  -24.2300 C.ar  124  PHE124     -0.0042
    129  CE1       -2.2290    2.5050  -23.6390 C.ar  124  PHE124     -0.0003
    130  CE2       -0.2220    1.1710  -23.6000 C.ar  124  PHE124     -0.0003
    131  CZ        -0.8890    2.3650  -23.3100 C.ar  124  PHE124     -0.0000
    132  N         -0.7750   -1.8400  -27.2100 N.am  125  GLY125     -0.1957
    133  CA         0.6520   -1.8670  -27.5510 C.3   125  GLY125      0.1869
    134  C          0.9430   -1.3910  -28.9630 C.2   125  GLY125      0.2309
    135  O          1.9440   -0.7240  -29.2100 O.2   125  GLY125     -0.2863
    136  N         -6.9590   10.4600  -24.5550 N.3   136  VAL136     -0.1245
    137  CA        -7.0260   10.5770  -23.1110 C.3   136  VAL136      0.1561
    138  C         -7.9940   11.6860  -22.7560 C.2   136  VAL136      0.2260
    139  O         -7.8780   12.8240  -23.2640 O.2   136  VAL136     -0.2867
    140  CB        -5.6360   10.7940  -22.4570 C.3   136  VAL136      0.0252
    141  CG1       -5.7680   10.8120  -20.9430 C.3   136  VAL136      0.0019
    142  CG2       -4.6840    9.6780  -22.8610 C.3   136  VAL136      0.0019
    143  N          1.8330   11.0840  -24.2090 N.3   191  LEU191     -0.1231
    144  CA         1.7800   10.5590  -22.8460 C.3   191  LEU191      0.1693
    145  C          2.5710   11.5280  -21.9670 C.2   191  LEU191      0.2593
    146  O          3.5780   12.0900  -22.4350 O.2   191  LEU191     -0.2718
    147  CB         2.4310    9.1710  -22.7580 C.3   191  LEU191      0.0284
    148  CG         1.7990    8.0570  -23.5880 C.3   191  LEU191      0.0019
    149  CD1        2.6440    6.8000  -23.4740 C.3   191  LEU191      0.0001
    150  CD2        0.4000    7.8140  -23.0960 C.3   191  LEU191      0.0001
    151  N          2.1320   11.7330  -20.7220 N.am  192  THR192     -0.1939
    152  CA         2.8380   12.6800  -19.8390 C.3   192  THR192      0.2028
    153  C          3.8310   11.9960  -18.8930 C.2   192  THR192      0.2642
    154  O          4.4280   12.6520  -18.0160 O.2   192  THR192     -0.2714
    155  CB         1.8630   13.5210  -18.9850 C.3   192  THR192      0.1808
    156  OG1        1.2440   12.6650  -18.0230 O.3   192  THR192     -0.2208
    157  CG2        0.7970   14.1980  -19.8560 C.3   192  THR192      0.0379
    158  N          3.9930   10.6860  -19.0650 N.am  193  THR193     -0.1950
    159  CA         5.0510    9.9330  -18.3940 C.3   193  THR193      0.1897
    160  C          5.8560    9.1770  -19.4390 C.2   193  THR193      0.2313
    161  O          5.3410    8.8860  -20.5180 O.2   193  THR193     -0.2863
    162  CB         4.4900    8.8830  -17.4290 C.3   193  THR193      0.1794
    163  OG1        3.6110    8.0200  -18.1460 O.3   193  THR193     -0.2208
    164  CG2        3.7550    9.5360  -16.2630 C.3   193  THR193      0.0378
    165  N         -5.6290   14.6600  -26.9760 N.3   202  TRP202     -0.1241
    166  CA        -6.0460   15.0890  -25.6530 C.3   202  TRP202      0.1605
    167  C         -7.4240   15.7260  -25.7260 C.2   202  TRP202      0.2264
    168  O         -7.6960   16.5150  -26.6320 O.2   202  TRP202     -0.2867
    169  CB        -5.0210   16.0560  -25.0600 C.3   202  TRP202      0.0550
    170  CG        -3.9330   15.3150  -24.3750 C.ar  202  TRP202      0.0003
    171  CD1       -2.6880   15.0060  -24.8650 C.ar  202  TRP202      0.0946
    172  CD2       -4.0080   14.7470  -23.0640 C.ar  202  TRP202      0.0152
    173  NE1       -1.9940   14.2780  -23.9400 N.ar  202  TRP202     -0.2442
    174  CE2       -2.7700   14.1100  -22.8180 C.ar  202  TRP202      0.0810
    175  CE3       -5.0020   14.7090  -22.0740 C.ar  202  TRP202      0.0012
    176  CZ2       -2.4990   13.4390  -21.6130 C.ar  202  TRP202      0.0191
    177  CZ3       -4.7220   14.0470  -20.8760 C.ar  202  TRP202      0.0001
    178  CH2       -3.4800   13.4330  -20.6610 C.ar  202  TRP202      0.0015
@<TRIPOS>BOND
     1   135   134    2
     2   134   133    1
     3   124   123    2
     4   133   132    1
     5   121   122    1
     6   123   132   am
     7   123   122    1
     8   165   166    1
     9   122   125    1
    10   168   167    2
    11   167   166    1
    12   166   169    1
    13   125   126    1
    14   169   170    1
    15   171   170   ar
    16   171   173   ar
    17   126   127   ar
    18   126   128   ar
    19   136   137    1
    20   170   172   ar
    21   127   129   ar
    22   128   130   ar
    23   143   144    1
    24   173   174   ar
    25   129   131   ar
    26   130   131   ar
    27   148   149    1
    28   148   150    1
    29   148   147    1
    30   139   138    2
    31   137   138    1
    32   137   140    1
    33   172   174   ar
    34   172   175   ar
    35   142   140    1
    36   144   147    1
    37   144   145    1
    38   174   176   ar
    39   140   141    1
    40   146   145    2
    41    74    72    1
    42   116   117    2
    43   116   115    1
    44   175   177   ar
    45   145   151   am
    46   119   118    1
    47    73    71    1
    48   176   178   ar
    49    71    72    1
    50    71    68    1
    51    67    68    1
    52   115   118    1
    53   115   114    1
    54   177   178   ar
    55    68    69    1
    56   151   152    1
    57   118   120    1
    58   161   160    2
    59   157   155    1
    60   152   155    1
    61   152   153    1
    62   160   159    1
    63    69    75   am
    64    69    70    2
    65   158   153   am
    66   158   159    1
    67   155   156    1
    68   153   154    2
    69    75    76    1
    70   159   162    1
    71   163   162    1
    72    78    77    2
    73    80    79    1
    74    80    81    1
    75    76    77    1
    76    76    79    1
    77   162   164    1
    78   111   113   ar
    79   111   109   ar
    80   113   112   ar
    81   109   108    1
    82   109   110   ar
    83   108   105    1
    84   106   105    1
    85   106   107    2
    86   112   110   ar
    87   105   104    1
    88    81    83   am
    89    81    82    2
    90    92    93   ar
    91    92    90   ar
    92     9     7   ar
    93     9    10   ar
    94    93    91   ar
    95     7     6   ar
    96    90    89   ar
    97    10    12   ar
    98    10     8   ar
    99    60    59    1
   100    60    61    2
   101     6     5    1
   102     6     8   ar
   103    12    14   ar
   104    59    62    1
   105    59    58    1
   106     5     2    1
   107    62    63    1
   108     8    11   ar
   109   103   102   ar
   110   103   101   ar
   111    63    64    1
   112    14    13   ar
   113    91    89   ar
   114    65    64   ar
   115   102   100   ar
   116    89    88    1
   117    11    13   ar
   118    64    66   ar
   119   101    99   ar
   120    84    85    1
   121     2     1    1
   122     2     3    1
   123    26    25    1
   124    87    86    2
   125   100    99   ar
   126    57    55   am
   127    88    85    1
   128    56    55    2
   129    55    54    1
   130    99    98    1
   131    54    51    1
   132    85    86    1
   133    34    32   am
   134    25    23   ar
   135    25    24   ar
   136     3     4    2
   137    23    21   ar
   138    44    42   ar
   139    44    43   ar
   140    42    40   ar
   141    43    41   ar
   142    98    95    1
   143    51    52    1
   144    51    50    1
   145    40    41   ar
   146    40    39    1
   147    52    53    2
   148    24    22   ar
   149    21    20   ar
   150    32    31    1
   151    32    33    2
   152    39    36    1
   153    94    95    1
   154    31    28    1
   155    95    96    1
   156    22    20   ar
   157    20    19    1
   158    49    46    1
   159    15    16    1
   160    30    29    2
   161    16    19    1
   162    16    17    1
   163    97    96    2
   164    36    37    1
   165    36    35    1
   166    45    37   am
   167    45    46    1
   168    28    29    1
   169    28    27    1
   170    37    38    2
   171    46    47    1
   172    17    18    2
   173    47    48    2
