@<TRIPOS>MOLECULE
tmp/2wd3A00.pdb
 169 159 0 0 0
SMALL
GASTEIGER

@<TRIPOS>ATOM
      1  N        -12.2000   12.2140   -1.9840 N.3    57  LEU57      -0.1245
      2  CA       -13.5990   12.2530   -1.6090 C.3    57  LEU57       0.1561
      3  C        -14.4540   11.2410   -2.3360 C.2    57  LEU57       0.2260
      4  O        -14.2070   10.9110   -3.5030 O.2    57  LEU57      -0.2867
      5  CB       -14.1710   13.6770   -1.7340 C.3    57  LEU57       0.0270
      6  CG       -14.3730   14.3330   -3.0920 C.3    57  LEU57       0.0019
      7  CD1      -15.6590   13.9100   -3.7750 C.3    57  LEU57       0.0001
      8  CD2      -14.3920   15.8220   -2.8970 C.3    57  LEU57       0.0001
      9  N        -18.0030   10.7900   -3.6990 N.3    59  ASN59      -0.1240
     10  CA       -19.1760   11.5930   -4.0880 C.3    59  ASN59       0.1653
     11  C        -20.4240   10.7550   -4.3890 C.2    59  ASN59       0.2266
     12  O        -21.3970   11.2630   -4.9540 O.2    59  ASN59      -0.2867
     13  CB       -18.8580   12.5170   -5.2780 C.3    59  ASN59       0.1155
     14  CG       -18.4260   11.7600   -6.5300 C.2    59  ASN59       0.2627
     15  OD1      -18.4270   10.5290   -6.5800 O.2    59  ASN59      -0.2716
     16  ND2      -18.0420   12.5200   -7.5650 N.am   59  ASN59      -0.0877
     17  N        -12.5800   10.4750   -5.6400 N.3    64  ASN64      -0.1240
     18  CA       -11.9840   11.5440   -6.4020 C.3    64  ASN64       0.1653
     19  C        -10.7990   12.1250   -5.6800 C.2    64  ASN64       0.2266
     20  O        -10.9250   12.5320   -4.5300 O.2    64  ASN64      -0.2867
     21  CB       -13.0350   12.6140   -6.6170 C.3    64  ASN64       0.1155
     22  CG       -14.1910   12.0920   -7.4190 C.2    64  ASN64       0.2627
     23  OD1      -14.1230   12.0470   -8.6400 O.2    64  ASN64      -0.2716
     24  ND2      -15.2260   11.5970   -6.7250 N.am   64  ASN64      -0.0877
     25  N         -8.5290   15.2790   -5.6450 N.3    66  GLU66      -0.1245
     26  CA        -8.6380   16.6530   -6.1350 C.3    66  GLU66       0.1561
     27  C         -7.2920   17.3680   -6.0200 C.2    66  GLU66       0.2260
     28  O         -6.5610   17.1870   -5.0270 O.2    66  GLU66      -0.2867
     29  CB        -9.7200   17.4250   -5.3560 C.3    66  GLU66       0.0270
     30  CG       -11.0880   16.7220   -5.2370 C.3    66  GLU66       0.0019
     31  CD       -11.9080   16.7430   -6.5240 C.3    66  GLU66       0.0001
     32  OE1      -11.4590   17.4870   -3.2920 O.3    66  GLU66       0.0000
     33  OE2      -13.1770   17.0990   -4.5910 O.3    66  GLU66       0.0000
     34  N         -8.5030   16.8960  -11.2230 N.3    89  GLN89      -0.1245
     35  CA        -8.7290   15.7400  -10.3630 C.3    89  GLN89       0.1566
     36  C         -8.5560   14.4630  -11.1580 C.2    89  GLN89       0.2260
     37  O         -8.4350   14.5070  -12.3850 O.2    89  GLN89      -0.2867
     38  CB       -10.1400   15.7800   -9.7570 C.3    89  GLN89       0.0367
     39  CG       -11.2550   15.6660  -10.7930 C.3    89  GLN89       0.0905
     40  CD       -11.9690   14.3380  -10.6990 C.2    89  GLN89       0.2608
     41  OE1      -11.8060   13.4750  -11.5480 O.2    89  GLN89      -0.2717
     42  NE2      -12.7320   14.1550   -9.6240 N.am   89  GLN89      -0.0878
     43  N        -10.2000   10.2000  -10.9550 N.3    91  HIS91      -0.1241
     44  CA       -11.0710    9.2060  -10.3520 C.3    91  HIS91       0.1621
     45  C        -10.9430    7.9220  -11.1770 C.2    91  HIS91       0.2264
     46  O        -10.2530    7.8990  -12.1990 O.2    91  HIS91      -0.2867
     47  CB       -12.5160    9.7060  -10.3720 C.3    91  HIS91       0.0745
     48  CG       -13.0340    9.9610  -11.7570 C.ar   91  HIS91       0.0817
     49  ND1      -12.9060   11.1770  -12.3950 N.ar   91  HIS91      -0.2268
     50  CD2      -13.6430    9.1340  -12.6390 C.ar   91  HIS91       0.1154
     51  CE1      -13.4320   11.0910  -13.6060 C.ar   91  HIS91       0.1986
     52  NE2      -13.8800    9.8570  -13.7810 N.ar   91  HIS91      -0.2212
     53  N        -13.2020    4.1420  -12.5100 N.3    93  HIS93      -0.1241
     54  CA       -14.4170    3.3300  -12.6550 C.3    93  HIS93       0.1621
     55  C        -13.9440    1.8890  -12.5890 C.2    93  HIS93       0.2264
     56  O        -12.8850    1.5640  -13.1400 O.2    93  HIS93      -0.2867
     57  CB       -15.0780    3.5720  -14.0100 C.3    93  HIS93       0.0745
     58  CG       -15.3590    5.0170  -14.2760 C.ar   93  HIS93       0.0817
     59  ND1      -16.5840    5.5890  -14.0190 N.ar   93  HIS93      -0.2268
     60  CD2      -14.5520    6.0190  -14.6990 C.ar   93  HIS93       0.1154
     61  CE1      -16.5400    6.8740  -14.3390 C.ar   93  HIS93       0.1986
     62  NE2      -15.3100    7.1660  -14.7250 N.ar   93  HIS93      -0.2212
     63  N         -9.2870    7.9760  -14.8940 N.3   116  HIS116     -0.1241
     64  CA        -9.5190    9.2020  -15.6530 C.3   116  HIS116      0.1621
     65  C         -8.8420   10.3680  -14.9520 C.2   116  HIS116      0.2264
     66  O         -9.2130   10.7280  -13.8280 O.2   116  HIS116     -0.2867
     67  CB       -11.0250    9.4570  -15.7940 C.3   116  HIS116      0.0745
     68  CG       -11.7220    8.4700  -16.6770 C.ar  116  HIS116      0.0817
     69  ND1      -13.0790    8.2330  -16.6150 N.ar  116  HIS116     -0.2268
     70  CD2      -11.2440    7.6630  -17.6590 C.ar  116  HIS116      0.1154
     71  CE1      -13.4060    7.3200  -17.5170 C.ar  116  HIS116      0.1986
     72  NE2      -12.3140    6.9700  -18.1730 N.ar  116  HIS116     -0.2212
     73  N         -8.5400   14.1400  -15.2100 N.3   118  VAL118     -0.1245
     74  CA        -9.3980   15.1360  -15.8490 C.3   118  VAL118      0.1561
     75  C         -8.6720   16.4910  -15.9040 C.2   118  VAL118      0.2260
     76  O         -8.1070   16.9390  -14.9050 O.2   118  VAL118     -0.2867
     77  CB       -10.7380   15.2610  -15.0920 C.3   118  VAL118      0.0252
     78  CG1      -11.6380   16.3040  -15.7480 C.3   118  VAL118      0.0019
     79  CG2      -11.4400   13.8830  -14.9730 C.3   118  VAL118      0.0019
     80  N        -13.1420   25.4900  -14.9430 N.3   127  PHE127     -0.1241
     81  CA       -13.7210   24.2230  -15.3720 C.3   127  PHE127      0.1605
     82  C        -15.1570   24.3840  -15.8270 C.2   127  PHE127      0.2264
     83  O        -15.5570   23.7690  -16.8050 O.2   127  PHE127     -0.2867
     84  CB       -13.6530   23.1970  -14.2280 C.3   127  PHE127      0.0534
     85  CG       -14.2530   21.8560  -14.5680 C.ar  127  PHE127     -0.0203
     86  CD1      -13.4440   20.8050  -14.9850 C.ar  127  PHE127     -0.0042
     87  CD2      -15.6300   21.6450  -14.4590 C.ar  127  PHE127     -0.0042
     88  CE1      -13.9970   19.5580  -15.2910 C.ar  127  PHE127     -0.0003
     89  CE2      -16.2040   20.4050  -14.7660 C.ar  127  PHE127     -0.0003
     90  CZ       -15.3810   19.3540  -15.1880 C.ar  127  PHE127     -0.0000
     91  N        -16.4410   23.2480  -19.6580 N.3   131  VAL131     -0.1245
     92  CA       -17.3550   22.1420  -20.0390 C.3   131  VAL131      0.1561
     93  C        -18.4550   22.5790  -21.0300 C.2   131  VAL131      0.2260
     94  O        -19.1090   21.7440  -21.6380 O.2   131  VAL131     -0.2867
     95  CB       -17.9380   21.3690  -18.8160 C.3   131  VAL131      0.0252
     96  CG1      -16.8240   20.7650  -18.0020 C.3   131  VAL131      0.0019
     97  CG2      -18.7970   22.2800  -17.9330 C.3   131  VAL131      0.0019
     98  N        -12.3650   20.1000  -22.2690 N.3   137  LEU137     -0.1245
     99  CA       -11.6680   19.1620  -21.4080 C.3   137  LEU137      0.1561
    100  C        -10.7790   18.1990  -22.1770 C.2   137  LEU137      0.2260
    101  O        -11.0270   17.8820  -23.3550 O.2   137  LEU137     -0.2867
    102  CB       -12.6650   18.3510  -20.5750 C.3   137  LEU137      0.0270
    103  CG       -13.6680   19.0330  -19.6410 C.3   137  LEU137      0.0019
    104  CD1      -14.3840   17.9540  -18.8210 C.3   137  LEU137      0.0001
    105  CD2      -13.0100   20.0590  -18.7110 C.3   137  LEU137      0.0001
    106  N         -9.3810   14.3530  -21.1290 N.3   139  VAL139     -0.1245
    107  CA        -9.3460   13.3360  -20.0980 C.3   139  VAL139      0.1561
    108  C         -8.3980   12.2640  -20.5680 C.2   139  VAL139      0.2260
    109  O         -8.5570   11.7300  -21.6850 O.2   139  VAL139     -0.2867
    110  CB       -10.7550   12.7680  -19.7530 C.3   139  VAL139      0.0252
    111  CG1      -10.6520   11.7600  -18.5990 C.3   139  VAL139      0.0019
    112  CG2      -11.7050   13.9120  -19.3590 C.3   139  VAL139      0.0019
    113  N        -18.2510   13.6640  -21.2530 N.3   194  LEU194     -0.1231
    114  CA       -18.2000   13.1090  -19.9010 C.3   194  LEU194      0.1693
    115  C        -18.9470   11.7770  -19.9520 C.2   194  LEU194      0.2593
    116  O        -19.9750   11.6780  -20.6380 O.2   194  LEU194     -0.2718
    117  CB       -18.9230   14.0410  -18.9070 C.3   194  LEU194      0.0284
    118  CG       -18.3090   15.3540  -18.4160 C.3   194  LEU194      0.0019
    119  CD1      -17.9560   16.2680  -19.5210 C.3   194  LEU194      0.0001
    120  CD2      -19.3290   16.0510  -17.5060 C.3   194  LEU194      0.0001
    121  N        -18.4530   10.7700  -19.2380 N.am  195  THR195     -0.1939
    122  CA       -19.1480    9.4650  -19.1790 C.3   195  THR195      0.2028
    123  C        -20.1950    9.3790  -18.0550 C.2   195  THR195      0.2643
    124  O        -20.8590    8.3310  -17.8850 O.2   195  THR195     -0.2714
    125  CB       -18.1500    8.3110  -18.9960 C.3   195  THR195      0.1808
    126  OG1      -17.5090    8.4620  -17.7310 O.3   195  THR195     -0.2208
    127  CG2      -17.1050    8.3000  -20.1320 C.3   195  THR195      0.0379
    128  N        -20.3140   10.4510  -17.2730 N.am  196  THR196     -0.1937
    129  CA       -21.4070   10.5690  -16.2880 C.3   196  THR196      0.2013
    130  C        -22.2550   11.7930  -16.6010 C.2   196  THR196      0.2484
    131  O        -21.7920   12.7160  -17.2850 O.2   196  THR196     -0.2729
    132  CB       -20.9100   10.7190  -14.8080 C.3   196  THR196      0.1807
    133  OG1      -20.3950   12.0380  -14.5890 O.3   196  THR196     -0.2208
    134  CG2      -19.8570    9.6740  -14.4420 C.3   196  THR196      0.0379
    135  N        -23.4970   11.8250  -16.0830 N.am  197  PRO197     -0.2715
    136  CA       -24.2240   13.1020  -16.1360 C.3   197  PRO197      0.1521
    137  C        -23.3090   14.2400  -15.6350 C.2   197  PRO197      0.2440
    138  O        -22.5250   14.0360  -14.6820 O.2   197  PRO197     -0.2731
    139  CB       -25.4160   12.8410  -15.2150 C.3   197  PRO197      0.0310
    140  CG       -25.6990   11.3490  -15.4500 C.3   197  PRO197      0.0237
    141  CD       -24.3060   10.7450  -15.4770 C.3   197  PRO197      0.0939
    142  N        -23.3780   15.4310  -16.2580 N.am  198  PRO198     -0.2727
    143  CA       -24.2770   15.8790  -17.3260 C.3   198  PRO198      0.1402
    144  C        -23.9590   15.4030  -18.7470 C.2   198  PRO198      0.2269
    145  O        -24.6380   15.8370  -19.6740 O.2   198  PRO198     -0.2865
    146  CB       -24.1650   17.4090  -17.2570 C.3   198  PRO198      0.0296
    147  CG       -22.7890   17.6650  -16.7310 C.3   198  PRO198      0.0237
    148  CD       -22.4930   16.5150  -15.7880 C.3   198  PRO198      0.0939
    149  N        -15.1560   16.8290  -24.3700 N.3   203  VAL203     -0.1245
    150  CA       -13.9480   16.0980  -24.0000 C.3   203  VAL203      0.1561
    151  C        -13.1460   15.6600  -25.2240 C.2   203  VAL203      0.2260
    152  O        -13.6870   15.0530  -26.1330 O.2   203  VAL203     -0.2867
    153  CB       -14.2550   14.8330  -23.1270 C.3   203  VAL203      0.0252
    154  CG1      -12.9350   14.1400  -22.7270 C.3   203  VAL203      0.0019
    155  CG2      -15.0540   15.2100  -21.8750 C.3   203  VAL203      0.0019
    156  N        -10.7410   12.9160  -25.7370 N.3   205  TRP205     -0.1241
    157  CA       -10.2930   11.7250  -25.0540 C.3   205  TRP205      0.1605
    158  C         -8.9120   11.3150  -25.5250 C.2   205  TRP205      0.2264
    159  O         -8.6300   11.2820  -26.7250 O.2   205  TRP205     -0.2867
    160  CB       -11.3000   10.5750  -25.2390 C.3   205  TRP205      0.0550
    161  CG       -12.4100   10.6680  -24.2520 C.ar  205  TRP205      0.0003
    162  CD1      -13.6490   11.2450  -24.4350 C.ar  205  TRP205      0.0946
    163  CD2      -12.3640   10.2300  -22.8980 C.ar  205  TRP205      0.0152
    164  NE1      -14.3750   11.1660  -23.2620 N.ar  205  TRP205     -0.2442
    165  CE2      -13.6070   10.5480  -22.3100 C.ar  205  TRP205      0.0810
    166  CE3      -11.3860    9.5890  -22.1200 C.ar  205  TRP205      0.0012
    167  CZ2      -13.9060   10.2300  -20.9840 C.ar  205  TRP205      0.0191
    168  CZ3      -11.6840    9.2710  -20.7980 C.ar  205  TRP205      0.0001
    169  CH2      -12.9360    9.5940  -20.2490 C.ar  205  TRP205      0.0015
@<TRIPOS>BOND
     1   159   158    2
     2   152   151    2
     3   156   157    1
     4   158   157    1
     5   160   157    1
     6   160   161    1
     7   151   150    1
     8   162   161   ar
     9   162   164   ar
    10   149   150    1
    11   161   163   ar
    12   150   153    1
    13   101   100    2
    14   164   165   ar
    15   153   154    1
    16   153   155    1
    17   163   165   ar
    18   163   166   ar
    19   165   167   ar
    20    98    99    1
    21   100    99    1
    22   166   168   ar
    23   109   108    2
    24    94    93    2
    25    99   102    1
    26   113   114    1
    27   106   107    1
    28    93    92    1
    29   167   169   ar
    30   168   169   ar
    31   116   115    2
    32   102   103    1
    33   108   107    1
    34   127   125    1
    35   107   110    1
    36    92    91    1
    37    92    95    1
    38   115   114    1
    39   115   121   am
    40   114   117    1
    41   110   112    1
    42   110   111    1
    43   145   144    2
    44   103   104    1
    45   103   105    1
    46   119   118    1
    47   121   122    1
    48   122   125    1
    49   122   123    1
    50   125   126    1
    51   117   118    1
    52    95    96    1
    53    95    97    1
    54   144   143    1
    55   118   120    1
    56    72    70   ar
    57    72    71   ar
    58   123   124    2
    59   123   128   am
    60    70    68   ar
    61    71    69   ar
    62   143   146    1
    63   143   142    1
    64   131   130    2
    65   128   129    1
    66   146   147    1
    67    83    82    2
    68   147   148    1
    69    68    69   ar
    70    68    67    1
    71   130   129    1
    72   130   135   am
    73   129   132    1
    74   142   148    1
    75   142   137   am
    76   136   135    1
    77   136   137    1
    78   136   139    1
    79   135   141    1
    80    75    74    1
    81    75    76    2
    82    74    73    1
    83    74    77    1
    84    82    81    1
    85    67    64    1
    86    78    77    1
    87    64    65    1
    88    64    63    1
    89   137   138    2
    90   141   140    1
    91   140   139    1
    92    81    80    1
    93    81    84    1
    94    88    90   ar
    95    88    86   ar
    96    90    89   ar
    97    77    79    1
    98    86    85   ar
    99    65    66    2
   100   132   133    1
   101   132   134    1
   102    89    87   ar
   103    62    60   ar
   104    62    61   ar
   105    60    58   ar
   106    85    87   ar
   107    85    84    1
   108    61    59   ar
   109    58    59   ar
   110    58    57    1
   111    57    54    1
   112    52    51   ar
   113    52    50   ar
   114    51    49   ar
   115    56    55    2
   116    54    55    1
   117    54    53    1
   118    50    48   ar
   119    49    48   ar
   120    37    36    2
   121    46    45    2
   122    48    47    1
   123    41    40    2
   124    34    35    1
   125    45    44    1
   126    36    35    1
   127    43    44    1
   128    39    40    1
   129    39    38    1
   130    40    42   am
   131    47    44    1
   132    35    38    1
   133    23    22    2
   134    16    14   am
   135    22    24   am
   136    22    21    1
   137    21    18    1
   138    15    14    2
   139    14    13    1
   140    31    30    1
   141    18    19    1
   142    18    17    1
   143    26    27    1
   144    26    25    1
   145    26    29    1
   146    27    28    2
   147    19    20    2
   148    29    30    1
   149    13    10    1
   150    12    11    2
   151    11    10    1
   152    10     9    1
   153     7     6    1
   154     4     3    2
   155     6     8    1
   156     6     5    1
   157     3     2    1
   158     1     2    1
   159     5     2    1
