@<TRIPOS>MOLECULE
tmp/2wd3A01.pdb
 82 77 0 0 0
SMALL
GASTEIGER

@<TRIPOS>ATOM
      1  N         -8.5290   15.2790   -5.6450 N.3    66  GLU66      -0.1245
      2  CA        -8.6380   16.6530   -6.1350 C.3    66  GLU66       0.1561
      3  C         -7.2920   17.3680   -6.0200 C.2    66  GLU66       0.2260
      4  O         -6.5610   17.1870   -5.0270 O.2    66  GLU66      -0.2867
      5  CB        -9.7200   17.4250   -5.3560 C.3    66  GLU66       0.0270
      6  CG       -11.0880   16.7220   -5.2370 C.3    66  GLU66       0.0019
      7  CD       -11.9080   16.7430   -6.5240 C.3    66  GLU66       0.0001
      8  OE1      -11.4590   17.4870   -3.2920 O.3    66  GLU66       0.0000
      9  OE2      -13.1770   17.0990   -4.5910 O.3    66  GLU66       0.0000
     10  N         -5.6000   23.5790   -8.7470 N.3    69  ASP69      -0.1239
     11  CA        -5.4300   23.9430  -10.1480 C.3    69  ASP69       0.1674
     12  C         -5.4980   25.4680  -10.2800 C.2    69  ASP69       0.2266
     13  O         -5.9460   25.9900  -11.3010 O.2    69  ASP69      -0.2867
     14  CB        -6.4940   23.2640  -11.0250 C.3    69  ASP69       0.1410
     15  CG        -7.8990   23.7520  -10.7210 C.2    69  ASP69       0.3668
     16  OD1       -8.0710   24.4460   -9.6980 O.co2  69  ASP69      -0.2456
     17  OD2       -8.8390   23.4540  -11.4870 O.co2  69  ASP69      -0.2456
     18  N         -7.2820   18.8430  -12.8390 N.3    88  ILE88      -0.1231
     19  CA        -8.1610   19.2570  -11.7340 C.3    88  ILE88       0.1692
     20  C         -8.4000   18.1230  -10.7250 C.2    88  ILE88       0.2591
     21  O         -8.4710   18.3490   -9.5250 O.2    88  ILE88      -0.2718
     22  CB        -9.4870   19.9300  -12.2400 C.3    88  ILE88       0.0266
     23  CG1      -10.3580   20.3850  -11.0530 C.3    88  ILE88       0.0019
     24  CG2      -10.2500   19.0290  -13.2100 C.3    88  ILE88       0.0020
     25  CD1      -11.3920   21.4680  -11.4050 C.3    88  ILE88       0.0001
     26  N         -8.5030   16.8960  -11.2230 N.am   89  GLN89      -0.1979
     27  CA        -8.7290   15.7400  -10.3630 C.3    89  GLN89       0.1601
     28  C         -8.5560   14.4630  -11.1580 C.2    89  GLN89       0.2287
     29  O         -8.4350   14.5070  -12.3850 O.2    89  GLN89      -0.2864
     30  CB       -10.1400   15.7800   -9.7570 C.3    89  GLN89       0.0394
     31  CG       -11.2550   15.6660  -10.7930 C.3    89  GLN89       0.0908
     32  CD       -11.9690   14.3380  -10.6990 C.2    89  GLN89       0.2608
     33  OE1      -11.8060   13.4750  -11.5480 O.2    89  GLN89      -0.2717
     34  NE2      -12.7320   14.1550   -9.6240 N.am   89  GLN89      -0.0878
     35  N         -8.5400   14.1400  -15.2100 N.3   118  VAL118     -0.1245
     36  CA        -9.3980   15.1360  -15.8490 C.3   118  VAL118      0.1561
     37  C         -8.6720   16.4910  -15.9040 C.2   118  VAL118      0.2260
     38  O         -8.1070   16.9390  -14.9050 O.2   118  VAL118     -0.2867
     39  CB       -10.7380   15.2610  -15.0920 C.3   118  VAL118      0.0252
     40  CG1      -11.6380   16.3040  -15.7480 C.3   118  VAL118      0.0019
     41  CG2      -11.4400   13.8830  -14.9730 C.3   118  VAL118      0.0019
     42  N         -8.7300   20.6730  -17.6990 N.3   120  TRP120     -0.1241
     43  CA        -9.5060   21.6890  -18.3910 C.3   120  TRP120      0.1605
     44  C         -8.6290   22.6680  -19.1410 C.2   120  TRP120      0.2264
     45  O         -7.5350   23.0240  -18.6810 O.2   120  TRP120     -0.2867
     46  CB       -10.4770   22.4170  -17.4440 C.3   120  TRP120      0.0550
     47  CG        -9.8530   23.0380  -16.2430 C.ar  120  TRP120      0.0003
     48  CD1       -9.5910   22.4160  -15.0470 C.ar  120  TRP120      0.0946
     49  CD2       -9.4140   24.3940  -16.0960 C.ar  120  TRP120      0.0152
     50  NE1       -9.0140   23.3010  -14.1760 N.ar  120  TRP120     -0.2442
     51  CE2       -8.8850   24.5200  -14.7880 C.ar  120  TRP120      0.0810
     52  CE3       -9.4080   25.5160  -16.9420 C.ar  120  TRP120      0.0012
     53  CZ2       -8.3710   25.7330  -14.2920 C.ar  120  TRP120      0.0191
     54  CZ3       -8.8780   26.7270  -16.4460 C.ar  120  TRP120      0.0001
     55  CH2       -8.3740   26.8180  -15.1350 C.ar  120  TRP120      0.0015
     56  N        -10.4480   29.5870  -18.6410 N.3   125  GLY125     -0.1210
     57  CA       -10.3530   30.2240  -17.3390 C.3   125  GLY125      0.1956
     58  C        -10.7790   29.4080  -16.1380 C.2   125  GLY125      0.2612
     59  O        -10.1500   29.5110  -15.0770 O.2   125  GLY125     -0.2717
     60  N        -11.8670   28.6460  -16.2730 N.am  126  ASP126     -0.1959
     61  CA       -12.2980   27.7470  -15.2010 C.3   126  ASP126      0.1840
     62  C        -13.0180   26.5240  -15.7690 C.2   126  ASP126      0.2622
     63  O        -13.4380   26.5170  -16.9200 O.2   126  ASP126     -0.2715
     64  CB       -13.1260   28.4760  -14.1050 C.3   126  ASP126      0.1450
     65  CG       -14.5350   28.8560  -14.5500 C.2   126  ASP126      0.3671
     66  OD1      -15.3740   27.9630  -14.7900 O.co2 126  ASP126     -0.2456
     67  OD2      -14.8400   30.0610  -14.6230 O.co2 126  ASP126     -0.2456
     68  N        -13.1420   25.4900  -14.9430 N.am  127  PHE127     -0.1960
     69  CA       -13.7210   24.2230  -15.3720 C.3   127  PHE127      0.1771
     70  C        -15.1570   24.3840  -15.8270 C.2   127  PHE127      0.2620
     71  O        -15.5570   23.7690  -16.8050 O.2   127  PHE127     -0.2715
     72  CB       -13.6530   23.1970  -14.2280 C.3   127  PHE127      0.0574
     73  CG       -14.2530   21.8560  -14.5680 C.ar  127  PHE127     -0.0200
     74  CD1      -13.4440   20.8050  -14.9850 C.ar  127  PHE127     -0.0042
     75  CD2      -15.6300   21.6450  -14.4590 C.ar  127  PHE127     -0.0042
     76  CE1      -13.9970   19.5580  -15.2910 C.ar  127  PHE127     -0.0003
     77  CE2      -16.2040   20.4050  -14.7660 C.ar  127  PHE127     -0.0003
     78  CZ       -15.3810   19.3540  -15.1880 C.ar  127  PHE127     -0.0000
     79  N        -15.9340   25.1830  -15.0890 N.am  128  GLY128     -0.1954
     80  CA       -17.3550   25.3590  -15.3850 C.3   128  GLY128      0.1869
     81  C        -17.5670   25.9650  -16.7540 C.2   128  GLY128      0.2309
     82  O        -18.5040   25.6170  -17.4630 O.2   128  GLY128     -0.2863
@<TRIPOS>BOND
     1    44    45    2
     2    44    43    1
     3    56    57    1
     4    43    42    1
     5    43    46    1
     6    82    81    2
     7    46    47    1
     8    57    58    1
     9    52    54   ar
    10    52    49   ar
    11    63    62    2
    12    71    70    2
    13    81    80    1
    14    54    55   ar
    15    60    58   am
    16    60    61    1
    17    47    49   ar
    18    47    48   ar
    19    58    59    2
    20    49    51   ar
    21    37    36    1
    22    37    38    2
    23    36    35    1
    24    36    39    1
    25    70    69    1
    26    70    79   am
    27    62    61    1
    28    62    68   am
    29    40    39    1
    30    80    79    1
    31    69    68    1
    32    69    72    1
    33    76    78   ar
    34    76    74   ar
    35    61    64    1
    36    78    77   ar
    37    55    53   ar
    38    39    41    1
    39    48    50   ar
    40    74    73   ar
    41    66    65   ar
    42    51    53   ar
    43    51    50   ar
    44    77    75   ar
    45    67    65   ar
    46    73    75   ar
    47    73    72    1
    48    65    64    1
    49    24    22    1
    50    18    19    1
    51    29    28    2
    52    22    19    1
    53    22    23    1
    54    19    20    1
    55    33    32    2
    56    17    15   ar
    57    25    23    1
    58    13    12    2
    59    26    20   am
    60    26    27    1
    61    28    27    1
    62    14    15    1
    63    14    11    1
    64    31    32    1
    65    31    30    1
    66    20    21    2
    67    15    16   ar
    68    32    34   am
    69    27    30    1
    70    12    11    1
    71    11    10    1
    72     7     6    1
    73     2     3    1
    74     2     1    1
    75     2     5    1
    76     3     4    2
    77     5     6    1
