@<TRIPOS>MOLECULE
tmp/2wd7D01.pdb
 111 105 0 0 0
SMALL
GASTEIGER

@<TRIPOS>ATOM
      1  N        -31.6740   -9.6790   33.4300 N.3    13  ARG13      -0.1245
      2  CA       -30.2230   -9.7420   33.1570 C.3    13  ARG13       0.1563
      3  C        -29.4540   -8.4620   33.5380 C.2    13  ARG13       0.2260
      4  O        -29.6090   -7.9770   34.6630 O.2    13  ARG13      -0.2867
      5  CB       -30.0050  -10.2190   31.7090 C.3    13  ARG13       0.0307
      6  CG       -30.6670  -11.5980   31.4650 C.3    13  ARG13       0.0489
      7  CD       -30.8920  -11.9970   29.9900 C.3    13  ARG13       0.2205
      8  NE       -29.7080  -11.8140   29.1340 N.pl3  13  ARG13      -0.0865
      9  CZ       -28.7070  -12.6820   28.9450 C.cat  13  ARG13       0.5346
     10  NH1      -28.6700  -13.8590   29.5650 N.pl3  13  ARG13       0.1354
     11  NH2      -27.7100  -12.3570   28.1190 N.pl3  13  ARG13       0.1354
     12  N        -31.1810   -4.0840   23.7170 N.3    93  SER93      -0.1217
     13  CA       -30.3620   -4.4520   22.5470 C.3    93  SER93       0.1889
     14  C        -30.8640   -5.7360   21.9120 C.2    93  SER93       0.2288
     15  O        -31.1030   -6.6900   22.6270 O.2    93  SER93      -0.2866
     16  CB       -28.9010   -4.6460   23.0080 C.3    93  SER93       0.2089
     17  OG       -28.0700   -5.2460   22.0160 O.3    93  SER93      -0.2183
     18  N        -29.6340   -8.8700   19.5340 N.3    95  PHE95      -0.1241
     19  CA       -28.3290   -9.4880   19.2620 C.3    95  PHE95       0.1605
     20  C        -28.5600  -10.8380   18.6070 C.2    95  PHE95       0.2264
     21  O        -29.0370  -11.7570   19.2640 O.2    95  PHE95      -0.2867
     22  CB       -27.5210   -9.6270   20.5850 C.3    95  PHE95       0.0534
     23  CG       -26.2550  -10.5010   20.5110 C.ar   95  PHE95      -0.0203
     24  CD1      -26.2320  -11.7780   21.1190 C.ar   95  PHE95      -0.0042
     25  CD2      -25.0870  -10.0540   19.8830 C.ar   95  PHE95      -0.0042
     26  CE1      -25.0630  -12.5800   21.0790 C.ar   95  PHE95      -0.0003
     27  CE2      -23.9280  -10.8420   19.8520 C.ar   95  PHE95      -0.0003
     28  CZ       -23.9140  -12.1050   20.4480 C.ar   95  PHE95      -0.0000
     29  N        -19.7730   -2.5340   23.6230 N.3   141  ASP141     -0.1239
     30  CA       -19.3240   -3.9260   23.4620 C.3   141  ASP141      0.1674
     31  C        -17.7950   -3.9220   23.3470 C.2   141  ASP141      0.2266
     32  O        -17.2530   -3.2860   22.4470 O.2   141  ASP141     -0.2867
     33  CB       -19.9750   -4.5490   22.2190 C.3   141  ASP141      0.1410
     34  CG       -19.7440   -6.0670   22.1290 C.2   141  ASP141      0.3668
     35  OD1      -18.6440   -6.5770   22.4560 O.co2 141  ASP141     -0.2456
     36  OD2      -20.6860   -6.7450   21.7220 O.co2 141  ASP141     -0.2456
     37  N        -17.9240  -10.8790   16.4650 N.3   148  CYS148     -0.1235
     38  CA       -18.4410  -12.2380   16.2490 C.3   148  CYS148      0.1677
     39  C        -18.7010  -12.4330   14.7650 C.2   148  CYS148      0.2270
     40  O        -19.1730  -11.5200   14.0820 O.2   148  CYS148     -0.2867
     41  CB       -19.7540  -12.4220   17.0240 C.3   148  CYS148      0.0956
     42  SG       -19.4940  -12.5970   18.7960 S.3   148  CYS148     -0.0801
     43  N        -25.4720   -6.1610   13.9320 N.3   154  TYR154     -0.1241
     44  CA       -25.2310   -5.9360   15.3400 C.3   154  TYR154      0.1605
     45  C        -23.9660   -5.0880   15.5760 C.2   154  TYR154      0.2264
     46  O        -23.9740   -4.1700   16.3880 O.2   154  TYR154     -0.2867
     47  CB       -25.0990   -7.2710   16.1190 C.3   154  TYR154      0.0534
     48  CG       -24.6140   -7.0640   17.5360 C.ar  154  TYR154     -0.0201
     49  CD1      -25.4970   -6.6500   18.5410 C.ar  154  TYR154     -0.0009
     50  CD2      -23.2740   -7.2460   17.8710 C.ar  154  TYR154     -0.0009
     51  CE1      -25.0450   -6.4120   19.8520 C.ar  154  TYR154      0.0417
     52  CE2      -22.8080   -7.0260   19.1830 C.ar  154  TYR154      0.0417
     53  CZ       -23.7130   -6.6180   20.1560 C.ar  154  TYR154      0.1957
     54  OH       -23.3080   -6.4140   21.4400 O.3   154  TYR154     -0.2866
     55  N        -23.4370   -1.3340   17.3220 N.3   158  LYS158     -0.1245
     56  CA       -22.5440   -1.0220   18.4410 C.3   158  LYS158      0.1561
     57  C        -21.4620   -0.0060   18.0940 C.2   158  LYS158      0.2260
     58  O        -21.1470    0.8740   18.9170 O.2   158  LYS158     -0.2867
     59  CB       -21.9350   -2.3090   19.0080 C.3   158  LYS158      0.0271
     60  CG       -22.9150   -3.1440   19.8070 C.3   158  LYS158      0.0035
     61  CD       -23.7070   -2.3450   20.8820 C.3   158  LYS158      0.0206
     62  CE       -24.3990   -3.3440   21.8530 C.3   158  LYS158      0.1093
     63  NZ       -25.3550   -2.6870   22.8340 N.3   158  LYS158     -0.1314
     64  N        -17.3690   -7.5960   27.8970 N.3   185  GLY185     -0.1210
     65  CA       -16.8850   -8.5140   26.8740 C.3   185  GLY185      0.1956
     66  C        -17.8620   -9.6790   26.8850 C.2   185  GLY185      0.2612
     67  O        -18.8190   -9.7500   26.0980 O.2   185  GLY185     -0.2717
     68  N        -17.6310  -10.5800   27.8170 N.am  186  VAL186     -0.1965
     69  CA       -18.5620  -11.6480   28.1040 C.3   186  VAL186      0.1727
     70  C        -19.0670  -11.4960   29.5500 C.2   186  VAL186      0.2617
     71  O        -18.2830  -11.5430   30.4930 O.2   186  VAL186     -0.2715
     72  CB       -17.8830  -13.0050   27.8040 C.3   186  VAL186      0.0290
     73  CG1      -18.0670  -13.9810   28.9020 C.3   186  VAL186      0.0023
     74  CG2      -18.3240  -13.5320   26.4280 C.3   186  VAL186      0.0023
     75  N        -20.3760  -11.2760   29.6770 N.am  187  SER187     -0.1936
     76  CA       -21.0980  -11.1990   30.9400 C.3   187  SER187      0.2055
     77  C        -22.1920  -12.2880   30.8270 C.2   187  SER187      0.2643
     78  O        -21.9350  -13.3510   30.2360 O.2   187  SER187     -0.2714
     79  CB       -21.6510   -9.7710   31.1820 C.3   187  SER187      0.2130
     80  OG       -22.4210   -9.6840   32.3870 O.3   187  SER187     -0.2179
     81  N        -23.3880  -12.0520   31.3560 N.am  188  LEU188     -0.1963
     82  CA       -24.4350  -13.1120   31.3920 C.3   188  LEU188      0.1728
     83  C        -24.7040  -13.5800   29.9690 C.2   188  LEU188      0.2616
     84  O        -25.0370  -12.7600   29.0950 O.2   188  LEU188     -0.2715
     85  CB       -25.7190  -12.6030   32.0360 C.3   188  LEU188      0.0311
     86  CG       -25.7840  -12.4480   33.5540 C.3   188  LEU188      0.0022
     87  CD1      -27.0580  -11.7120   33.9090 C.3   188  LEU188      0.0001
     88  CD2      -25.7300  -13.8310   34.2760 C.3   188  LEU188      0.0001
     89  N        -24.5040  -14.8720   29.7300 N.am  189  LEU189     -0.1964
     90  CA       -24.4840  -15.4050   28.3630 C.3   189  LEU189      0.1713
     91  C        -25.9020  -15.5790   27.7750 C.2   189  LEU189      0.2458
     92  O        -26.8680  -15.6930   28.5240 O.2   189  LEU189     -0.2730
     93  CB       -23.6490  -16.7030   28.3120 C.3   189  LEU189      0.0310
     94  CG       -22.1550  -16.4050   28.5640 C.3   189  LEU189      0.0022
     95  CD1      -21.4180  -17.5710   29.1660 C.3   189  LEU189      0.0001
     96  CD2      -21.4630  -15.8580   27.2980 C.3   189  LEU189      0.0001
     97  N        -26.0370  -15.5370   26.4320 N.am  190  PRO190     -0.2727
     98  CA       -27.3700  -15.7160   25.8240 C.3   190  PRO190      0.1402
     99  C        -28.0860  -16.9540   26.3400 C.2   190  PRO190      0.2269
    100  O        -27.4930  -18.0220   26.4180 O.2   190  PRO190     -0.2865
    101  CB       -27.0560  -15.8440   24.3320 C.3   190  PRO190      0.0296
    102  CG       -25.8500  -14.9970   24.1750 C.3   190  PRO190      0.0237
    103  CD       -25.0150  -15.2760   25.4010 C.3   190  PRO190      0.0939
    104  N        -27.8560  -19.8130   24.1020 N.3   193  MET193     -0.1245
    105  CA       -26.5300  -20.4040   23.8660 C.3   193  MET193      0.1570
    106  C        -26.3970  -21.7420   24.6250 C.2   193  MET193      0.2261
    107  O        -26.8220  -21.8450   25.7720 O.2   193  MET193     -0.2867
    108  CB       -25.4290  -19.4130   24.2540 C.3   193  MET193      0.0387
    109  CG       -24.0530  -19.7910   23.7860 C.3   193  MET193      0.0595
    110  SD       -22.8000  -18.6840   24.4240 S.3   193  MET193     -0.1393
    111  CE       -22.7920  -17.3520   23.1950 C.3   193  MET193      0.0692
@<TRIPOS>BOND
     1    43    44    1
     2    40    39    2
     3    39    38    1
     4    44    45    1
     5    44    47    1
     6    45    46    2
     7    47    48    1
     8    38    37    1
     9    38    41    1
    10    41    42    1
    11    55    56    1
    12    48    50   ar
    13    48    49   ar
    14    50    52   ar
    15    57    56    1
    16    57    58    2
    17    56    59    1
    18    49    51   ar
    19    20    19    1
    20    20    21    2
    21    59    60    1
    22    52    53   ar
    23    19    18    1
    24    19    22    1
    25    60    61    1
    26    51    53   ar
    27    27    25   ar
    28    27    28   ar
    29    25    23   ar
    30    53    54    1
    31    28    26   ar
    32    23    22    1
    33    23    24   ar
    34    61    62    1
    35    26    24   ar
    36    36    34   ar
    37    62    63    1
    38    14    13    1
    39    14    15    2
    40    17    16    1
    41    34    33    1
    42    34    35   ar
    43    33    30    1
    44    32    31    2
    45    13    16    1
    46    13    12    1
    47   111   110    1
    48    31    30    1
    49    30    29    1
    50   109   108    1
    51   109   110    1
    52   105   104    1
    53   105   108    1
    54   105   106    1
    55   102   101    1
    56   102   103    1
    57   101    98    1
    58   106   107    2
    59   103    97    1
    60    98    99    1
    61    98    97    1
    62    67    66    2
    63    99   100    2
    64    74    72    1
    65    97    91   am
    66    65    66    1
    67    65    64    1
    68    66    68   am
    69    96    94    1
    70    91    90    1
    71    91    92    2
    72    72    69    1
    73    72    73    1
    74    68    69    1
    75    69    70    1
    76    11     9    1
    77    93    90    1
    78    93    94    1
    79    90    89    1
    80    94    95    1
    81     9     8    2
    82     9    10    1
    83    84    83    2
    84     8     7    1
    85    70    75   am
    86    70    71    2
    87    75    76    1
    88    89    83   am
    89    83    82    1
    90     7     6    1
    91    78    77    2
    92    77    76    1
    93    77    81   am
    94    76    79    1
    95    79    80    1
    96    81    82    1
    97    82    85    1
    98     6     5    1
    99     5     2    1
   100    85    86    1
   101     2     1    1
   102     2     3    1
   103     3     4    2
   104    86    87    1
   105    86    88    1
