@<TRIPOS>MOLECULE
tmp/2wd8A01.pdb
 151 147 0 0 0
SMALL
GASTEIGER

@<TRIPOS>ATOM
      1  N         13.9600   -8.9440   18.8550 N.3    96  PHE96      -0.1241
      2  CA        12.7250   -9.6460   19.1270 C.3    96  PHE96       0.1605
      3  C         12.9460  -10.9470   19.9170 C.2    96  PHE96       0.2264
      4  O         13.5280  -11.9080   19.4090 O.2    96  PHE96      -0.2867
      5  CB        11.9850   -9.8690   17.8030 C.3    96  PHE96       0.0534
      6  CG        10.7730  -10.7430   17.9160 C.ar   96  PHE96      -0.0203
      7  CD1       10.8100  -12.0530   17.4440 C.ar   96  PHE96      -0.0042
      8  CD2        9.6070  -10.2670   18.5060 C.ar   96  PHE96      -0.0042
      9  CE1        9.6870  -12.8870   17.5480 C.ar   96  PHE96      -0.0003
     10  CE2        8.4720  -11.0740   18.6210 C.ar   96  PHE96      -0.0003
     11  CZ         8.5060  -12.3890   18.1360 C.ar   96  PHE96      -0.0000
     12  N          3.5330   -2.9460   14.3200 N.3   142  ASP142     -0.1239
     13  CA         2.9640   -4.2710   14.6180 C.3   142  ASP142      0.1674
     14  C          1.4520   -4.1580   14.5770 C.2   142  ASP142      0.2266
     15  O          0.8750   -3.4130   15.3510 O.2   142  ASP142     -0.2867
     16  CB         3.4500   -4.7690   15.9950 C.3   142  ASP142      0.1410
     17  CG         3.0350   -6.2090   16.3130 C.2   142  ASP142      0.3668
     18  OD1        2.1840   -6.8040   15.6160 O.co2 142  ASP142     -0.2456
     19  OD2        3.5720   -6.7650   17.2980 O.co2 142  ASP142     -0.2456
     20  N         -0.5450   -6.2000   15.5900 N.3   144  MET144     -0.1245
     21  CA        -1.0130   -6.7910   16.8140 C.3   144  MET144      0.1570
     22  C         -0.6440   -6.0360   18.0920 C.2   144  MET144      0.2261
     23  O         -0.7970   -6.6100   19.1770 O.2   144  MET144     -0.2867
     24  CB        -0.5320   -8.2600   16.8880 C.3   144  MET144      0.0387
     25  CG        -0.8640   -9.0600   15.6320 C.3   144  MET144      0.0595
     26  SD        -2.6450   -9.1680   15.4710 S.3   144  MET144     -0.1393
     27  CE        -3.0310  -10.4440   16.6590 C.3   144  MET144      0.0692
     28  N         -3.1880   -6.3730   20.9540 N.3   147  GLN147     -0.1231
     29  CA        -3.4750   -7.7210   21.3890 C.3   147  GLN147      0.1683
     30  C         -2.1210   -8.4110   21.5510 C.2   147  GLN147      0.2434
     31  O         -1.7600   -9.2710   20.7440 O.2   147  GLN147     -0.2733
     32  CB        -4.3620   -8.4120   20.3390 C.3   147  GLN147      0.0380
     33  CG        -5.7050   -7.6680   20.1020 C.3   147  GLN147      0.0905
     34  CD        -5.9790   -7.4270   18.6230 C.2   147  GLN147      0.2608
     35  OE1       -6.6970   -8.1860   17.9840 O.2   147  GLN147     -0.2717
     36  NE2       -5.4270   -6.3660   18.0860 N.am  147  GLN147     -0.0878
     37  N         -1.3510   -8.0160   22.5880 N.am  148  PRO148     -0.2718
     38  CA         0.0450   -8.4540   22.7420 C.3   148  PRO148      0.1535
     39  C          0.2020   -9.9420   23.0780 C.2   148  PRO148      0.2598
     40  O         -0.7150  -10.5710   23.6150 O.2   148  PRO148     -0.2715
     41  CB         0.5500   -7.6050   23.9070 C.3   148  PRO148      0.0310
     42  CG        -0.7030   -7.3100   24.7350 C.3   148  PRO148      0.0237
     43  CD        -1.7750   -7.1280   23.7000 C.3   148  PRO148      0.0939
     44  N          1.3560  -10.5100   22.7440 N.am  149  CYS149     -0.1968
     45  CA         1.6510  -11.8860   23.1040 C.3   149  CYS149      0.1712
     46  C          2.1880  -11.9470   24.5090 C.2   149  CYS149      0.2296
     47  O          2.9030  -11.0430   24.9650 O.2   149  CYS149     -0.2864
     48  CB         2.6500  -12.5080   22.1430 C.3   149  CYS149      0.0983
     49  SG         1.9880  -12.7480   20.4980 S.3   149  CYS149     -0.0798
     50  N          5.8400  -10.8770   26.2410 N.3   152  PHE152     -0.1241
     51  CA         6.5760   -9.9840   25.3330 C.3   152  PHE152      0.1605
     52  C          6.4460   -8.4770   25.6380 C.2   152  PHE152      0.2264
     53  O          6.4690   -7.6550   24.6970 O.2   152  PHE152     -0.2867
     54  CB         6.1800  -10.2490   23.8740 C.3   152  PHE152      0.0534
     55  CG         6.8460  -11.4670   23.2690 C.ar  152  PHE152     -0.0203
     56  CD1        6.2690  -12.7500   23.4200 C.ar  152  PHE152     -0.0042
     57  CD2        8.0350  -11.3370   22.5430 C.ar  152  PHE152     -0.0042
     58  CE1        6.8730  -13.8960   22.8430 C.ar  152  PHE152     -0.0003
     59  CE2        8.6580  -12.4850   21.9740 C.ar  152  PHE152     -0.0003
     60  CZ         8.0670  -13.7490   22.1070 C.ar  152  PHE152     -0.0000
     61  N          9.1200   -5.8300   24.1570 N.3   155  TYR155     -0.1241
     62  CA         8.9300   -5.7370   22.7180 C.3   155  TYR155      0.1605
     63  C          7.6620   -4.9610   22.3750 C.2   155  TYR155      0.2264
     64  O          7.6590   -4.1130   21.4730 O.2   155  TYR155     -0.2867
     65  CB         8.8990   -7.1210   22.0670 C.3   155  TYR155      0.0534
     66  CG         8.6010   -7.0960   20.5650 C.ar  155  TYR155     -0.0201
     67  CD1        9.6150   -6.8350   19.6380 C.ar  155  TYR155     -0.0009
     68  CD2        7.3270   -7.3720   20.0820 C.ar  155  TYR155     -0.0009
     69  CE1        9.3550   -6.8240   18.2700 C.ar  155  TYR155      0.0417
     70  CE2        7.0450   -7.3380   18.7150 C.ar  155  TYR155      0.0417
     71  CZ         8.0690   -7.0740   17.8120 C.ar  155  TYR155      0.1957
     72  OH         7.8070   -7.0720   16.4480 O.3   155  TYR155     -0.2866
     73  N          2.8020   -5.2700    9.8830 N.3   185  PRO185     -0.2102
     74  CA         2.5240   -6.6880    9.6180 C.3   185  PRO185      0.1504
     75  C          1.7890   -7.3170   10.7780 C.2   185  PRO185      0.2576
     76  O          1.8910   -6.8210   11.9050 O.2   185  PRO185     -0.2718
     77  CB         3.9180   -7.3180    9.4960 C.3   185  PRO185      0.0282
     78  CG         4.8960   -6.1360    9.3210 C.3   185  PRO185      0.0208
     79  CD         4.2410   -5.0050   10.0860 C.3   185  PRO185      0.0893
     80  N          1.0570   -8.3990   10.4990 N.am  186  GLY186     -0.1943
     81  CA         0.4920   -9.2450   11.5500 C.3   186  GLY186      0.2014
     82  C          1.4530  -10.4030   11.7150 C.2   186  GLY186      0.2638
     83  O          2.3410  -10.3900   12.5860 O.2   186  GLY186     -0.2714
     84  N          1.2940  -11.4140   10.8720 N.am  187  VAL187     -0.1977
     85  CA         2.3450  -12.4090   10.7370 C.3   187  VAL187      0.1596
     86  C          2.8330  -12.4480    9.3290 C.2   187  VAL187      0.2287
     87  O          2.0530  -12.5960    8.3660 O.2   187  VAL187     -0.2864
     88  CB         1.8880  -13.7880   11.1140 C.3   187  VAL187      0.0276
     89  CG1        3.0560  -14.6070   11.6520 C.3   187  VAL187      0.0022
     90  CG2        0.7980  -13.6600   12.1260 C.3   187  VAL187      0.0022
     91  N          8.0830  -16.0730    9.3890 N.3   190  LEU190     -0.1231
     92  CA         8.1640  -16.5860   10.7610 C.3   190  LEU190      0.1678
     93  C          9.6420  -16.6630   11.2110 C.2   190  LEU190      0.2434
     94  O         10.5320  -16.5720   10.3600 O.2   190  LEU190     -0.2733
     95  CB         7.4560  -17.9490   10.8720 C.3   190  LEU190      0.0284
     96  CG         5.9460  -18.1240   11.1800 C.3   190  LEU190      0.0019
     97  CD1        5.4250  -17.1620   12.2570 C.3   190  LEU190      0.0001
     98  CD2        5.0580  -18.1170    9.9240 C.3   190  LEU190      0.0001
     99  N          9.9070  -16.8030   12.5440 N.am  191  PRO191     -0.2729
    100  CA        11.3040  -16.8610   12.9990 C.3   191  PRO191      0.1401
    101  C         12.0190  -18.0740   12.4030 C.2   191  PRO191      0.2269
    102  O         11.4010  -19.1320   12.2410 O.2   191  PRO191     -0.2865
    103  CB        11.1840  -17.0130   14.5260 C.3   191  PRO191      0.0296
    104  CG         9.7850  -16.5450   14.8640 C.3   191  PRO191      0.0237
    105  CD         8.9610  -16.9280   13.6750 C.3   191  PRO191      0.0939
    106  N         11.7750  -21.3360   14.3460 N.3   194  MET194     -0.1245
    107  CA        10.4550  -21.9890   14.5060 C.3   194  MET194      0.1570
    108  C         10.2610  -23.2710   13.6640 C.2   194  MET194      0.2261
    109  O         10.4500  -23.2610   12.4530 O.2   194  MET194     -0.2867
    110  CB         9.3140  -21.0160   14.2180 C.3   194  MET194      0.0387
    111  CG         7.9340  -21.5150   14.6700 C.3   194  MET194      0.0595
    112  SD         6.6830  -20.1970   14.6440 S.3   194  MET194     -0.1393
    113  CE         7.0220  -19.3210   16.1800 C.3   194  MET194      0.0692
    114  N          0.0790  -21.0440   13.7250 N.3   202  TRP202     -0.1241
    115  CA        -0.0510  -19.5790   13.6720 C.3   202  TRP202      0.1605
    116  C         -0.6800  -19.1050   12.3420 C.2   202  TRP202      0.2264
    117  O         -1.5900  -18.2690   12.3470 O.2   202  TRP202     -0.2867
    118  CB         1.2940  -18.9060   13.9570 C.3   202  TRP202      0.0550
    119  CG         1.8260  -19.1330   15.3780 C.ar  202  TRP202      0.0003
    120  CD1        2.9710  -19.8160   15.7380 C.ar  202  TRP202      0.0946
    121  CD2        1.2330  -18.6810   16.6070 C.ar  202  TRP202      0.0152
    122  NE1        3.1230  -19.8150   17.1070 N.ar  202  TRP202     -0.2442
    123  CE2        2.0730  -19.1290   17.6680 C.ar  202  TRP202      0.0810
    124  CE3        0.0720  -17.9460   16.9220 C.ar  202  TRP202      0.0012
    125  CZ2        1.7880  -18.8480   19.0280 C.ar  202  TRP202      0.0191
    126  CZ3       -0.2060  -17.6620   18.2650 C.ar  202  TRP202      0.0001
    127  CH2        0.6520  -18.1110   19.3010 C.ar  202  TRP202      0.0015
    128  N         -4.5630  -19.0810   11.7300 N.3   205  LYS205     -0.1231
    129  CA        -5.3010  -18.0160   12.3950 C.3   205  LYS205      0.1693
    130  C         -5.5920  -16.7960   11.4990 C.2   205  LYS205      0.2591
    131  O         -6.4200  -15.9530   11.8380 O.2   205  LYS205     -0.2718
    132  CB        -4.5370  -17.5710   13.6370 C.3   205  LYS205      0.0285
    133  CG        -4.6100  -18.5660   14.7590 C.3   205  LYS205      0.0035
    134  CD        -3.6760  -18.1880   15.8620 C.3   205  LYS205      0.0206
    135  CE        -3.3790  -19.3960   16.7600 C.3   205  LYS205      0.1093
    136  NZ        -4.5690  -19.7700   17.5210 N.3   205  LYS205     -0.1314
    137  N         -4.8730  -16.6930   10.3790 N.am  206  VAL206     -0.1980
    138  CA        -5.0700  -15.6110    9.4090 C.3   206  VAL206      0.1595
    139  C         -6.3430  -15.8490    8.5940 C.2   206  VAL206      0.2287
    140  O         -6.4250  -16.8330    7.8700 O.2   206  VAL206     -0.2864
    141  CB        -3.8440  -15.4740    8.4780 C.3   206  VAL206      0.0276
    142  CG1       -4.0580  -14.3620    7.4330 C.3   206  VAL206      0.0022
    143  CG2       -2.6030  -15.1460    9.3030 C.3   206  VAL206      0.0022
    144  N         -5.7480  -10.6010   10.4810 N.3   244  LEU244     -0.1245
    145  CA        -5.3920  -11.1940   11.7700 C.3   244  LEU244      0.1561
    146  C         -5.8310  -10.4080   13.0130 C.2   244  LEU244      0.2260
    147  O         -6.3840  -10.9930   13.9570 O.2   244  LEU244     -0.2867
    148  CB        -3.8830  -11.4260   11.8250 C.3   244  LEU244      0.0270
    149  CG        -3.3670  -12.1050   13.0900 C.3   244  LEU244      0.0019
    150  CD1       -3.9720  -13.4920   13.2520 C.3   244  LEU244      0.0001
    151  CD2       -1.8200  -12.1650   13.0800 C.3   244  LEU244      0.0001
@<TRIPOS>BOND
     1   142   141    1
     2   140   139    2
     3    87    86    2
     4   141   143    1
     5   141   138    1
     6   139   138    1
     7    78    77    1
     8    78    79    1
     9    86    85    1
    10    91    92    1
    11   138   137    1
    12    77    74    1
    13    74    73    1
    14    74    75    1
    15    73    79    1
    16    98    96    1
    17    94    93    2
    18   137   130   am
    19   144   145    1
    20    80    75   am
    21    80    81    1
    22    85    84    1
    23    85    88    1
    24    92    95    1
    25    92    93    1
    26    75    76    2
    27    84    82   am
    28    95    96    1
    29    88    89    1
    30    88    90    1
    31    96    97    1
    32    93    99   am
    33   130   131    2
    34   130   129    1
    35    81    82    1
    36    82    83    2
    37   128   129    1
    38   145   148    1
    39   145   146    1
    40   148   149    1
    41   102   101    2
    42   116   117    2
    43   116   115    1
    44   129   132    1
    45   101   100    1
    46   109   108    2
    47    99   100    1
    48    99   105    1
    49   100   103    1
    50   146   147    2
    51   151   149    1
    52   149   150    1
    53   132   133    1
    54   108   107    1
    55   115   114    1
    56   115   118    1
    57   105   104    1
    58   118   119    1
    59   110   107    1
    60   110   111    1
    61    12    13    1
    62   106   107    1
    63   103   104    1
    64    14    13    1
    65    14    15    2
    66    13    16    1
    67   112   111    1
    68   112   113    1
    69   133   134    1
    70   119   120   ar
    71   119   121   ar
    72    26    25    1
    73    26    27    1
    74    20    21    1
    75    18    17   ar
    76    25    24    1
    77   120   122   ar
    78   134   135    1
    79    16    17    1
    80    17    19   ar
    81    72    71    1
    82   121   124   ar
    83   121   123   ar
    84   135   136    1
    85    21    24    1
    86    21    22    1
    87   124   126   ar
    88   122   123   ar
    89     7     9   ar
    90     7     6   ar
    91     9    11   ar
    92   123   125   ar
    93     5     6    1
    94     5     2    1
    95    71    69   ar
    96    71    70   ar
    97     6     8   ar
    98    35    34    2
    99    36    34   am
   100    22    23    2
   101    11    10   ar
   102   126   127   ar
   103    69    67   ar
   104     8    10   ar
   105    34    33    1
   106    70    68   ar
   107     1     2    1
   108   125   127   ar
   109     2     3    1
   110     4     3    2
   111    67    66   ar
   112    68    66   ar
   113    33    32    1
   114    32    29    1
   115    49    48    1
   116    66    65    1
   117    31    30    2
   118    28    29    1
   119    29    30    1
   120    64    63    2
   121    30    37   am
   122    59    60   ar
   123    59    57   ar
   124    65    62    1
   125    60    58   ar
   126    48    45    1
   127    63    62    1
   128    57    55   ar
   129    37    38    1
   130    37    43    1
   131    62    61    1
   132    38    39    1
   133    38    41    1
   134    44    39   am
   135    44    45    1
   136    58    56   ar
   137    39    40    2
   138    45    46    1
   139    55    56   ar
   140    55    54    1
   141    43    42    1
   142    54    51    1
   143    41    42    1
   144    46    47    2
   145    53    52    2
   146    51    52    1
   147    51    50    1
