@<TRIPOS>MOLECULE
tmp/2wd9A00.pdb
 163 159 0 0 0
SMALL
GASTEIGER

@<TRIPOS>ATOM
      1  N         14.7160   11.4390   34.1430 N.3   185  THR185     -0.1218
      2  CA        14.2640   12.8090   33.9980 C.3   185  THR185      0.1862
      3  C         13.5320   13.2990   35.2590 C.2   185  THR185      0.2287
      4  O         12.7210   12.5840   35.8180 O.2   185  THR185     -0.2866
      5  CB        13.4380   12.9390   32.6830 C.3   185  THR185      0.1770
      6  OG1       13.1060   14.3090   32.4440 O.3   185  THR185     -0.2211
      7  CG2       12.1900   12.1080   32.7500 C.3   185  THR185      0.0375
      8  N         15.9150   19.1700    9.6950 N.3   212  TRP212     -0.1241
      9  CA        15.1310   20.2250   10.3270 C.3   212  TRP212      0.1605
     10  C         15.9960   21.3760   10.8140 C.2   212  TRP212      0.2264
     11  O         15.5380   22.5200   10.8680 O.2   212  TRP212     -0.2867
     12  CB        14.3030   19.6550   11.4710 C.3   212  TRP212      0.0550
     13  CG        15.0570   19.3230   12.7320 C.ar  212  TRP212      0.0003
     14  CD1       15.5880   18.1190   13.0880 C.ar  212  TRP212      0.0946
     15  CD2       15.3240   20.2100   13.8180 C.ar  212  TRP212      0.0152
     16  NE1       16.1650   18.2030   14.3280 N.ar  212  TRP212     -0.2442
     17  CE2       16.0160   19.4790   14.7990 C.ar  212  TRP212      0.0810
     18  CE3       15.0390   21.5580   14.0580 C.ar  212  TRP212      0.0012
     19  CZ2       16.4320   20.0480   15.9960 C.ar  212  TRP212      0.0191
     20  CZ3       15.4510   22.1190   15.2560 C.ar  212  TRP212      0.0001
     21  CH2       16.1430   21.3670   16.2010 C.ar  212  TRP212      0.0015
     22  N         22.3560   14.5770   28.1180 N.3   229  TRP229     -0.1227
     23  CA        21.0890   15.1400   27.6210 C.3   229  TRP229      0.1737
     24  C         20.5850   14.3170   26.4550 C.2   229  TRP229      0.2595
     25  O         21.3790   13.7560   25.7090 O.2   229  TRP229     -0.2718
     26  CB        21.2120   16.6070   27.2040 C.3   229  TRP229      0.0564
     27  CG        21.4960   17.5290   28.3360 C.ar  229  TRP229      0.0003
     28  CD1       21.3320   17.2620   29.6540 C.ar  229  TRP229      0.0946
     29  CD2       21.9570   18.8910   28.2530 C.ar  229  TRP229      0.0152
     30  NE1       21.6870   18.3560   30.4080 N.ar  229  TRP229     -0.2442
     31  CE2       22.0760   19.3710   29.5760 C.ar  229  TRP229      0.0810
     32  CE3       22.3000   19.7420   27.1920 C.ar  229  TRP229      0.0012
     33  CZ2       22.5160   20.6700   29.8750 C.ar  229  TRP229      0.0191
     34  CZ3       22.7470   21.0380   27.4870 C.ar  229  TRP229      0.0001
     35  CH2       22.8550   21.4880   28.8220 C.ar  229  TRP229      0.0015
     36  N         19.2690   14.2090   26.3210 N.am  230  ILE230     -0.1966
     37  CA        18.7100   13.5930   25.1210 C.3   230  ILE230      0.1727
     38  C         19.0910   14.3880   23.8440 C.2   230  ILE230      0.2616
     39  O         19.1670   13.8130   22.7680 O.2   230  ILE230     -0.2715
     40  CB        17.1950   13.4500   25.2270 C.3   230  ILE230      0.0290
     41  CG1       16.6740   12.4280   24.2000 C.3   230  ILE230      0.0022
     42  CG2       16.5600   14.7960   25.0580 C.3   230  ILE230      0.0023
     43  CD1       15.3830   11.7630   24.6200 C.3   230  ILE230      0.0001
     44  N         19.3530   15.6890   23.9930 N.am  231  LEU231     -0.1977
     45  CA        19.8000   16.5300   22.9060 C.3   231  LEU231      0.1596
     46  C         20.9500   15.9020   22.1720 C.2   231  LEU231      0.2287
     47  O         20.9870   15.9450   20.9430 O.2   231  LEU231     -0.2864
     48  CB        20.2300   17.9130   23.4150 C.3   231  LEU231      0.0297
     49  CG        20.7570   18.9070   22.3650 C.3   231  LEU231      0.0022
     50  CD1       19.7440   19.0450   21.2760 C.3   231  LEU231      0.0001
     51  CD2       21.0850   20.2910   22.9730 C.3   231  LEU231      0.0001
     52  N         19.7540   13.0480   19.7650 N.3   234  LEU234     -0.1231
     53  CA        18.8930   13.4770   18.6750 C.3   234  LEU234      0.1693
     54  C         19.6110   14.4300   17.7240 C.2   234  LEU234      0.2592
     55  O         19.4790   14.3190   16.5090 O.2   234  LEU234     -0.2718
     56  CB        17.6230   14.1120   19.2360 C.3   234  LEU234      0.0284
     57  CG        16.5790   13.1780   19.8400 C.3   234  LEU234      0.0019
     58  CD1       15.4210   13.9700   20.3440 C.3   234  LEU234      0.0001
     59  CD2       16.0930   12.1790   18.7780 C.3   234  LEU234      0.0001
     60  N         20.4180   15.3270   18.2810 N.am  235  CYS235     -0.1970
     61  CA        21.0580   16.3930   17.5060 C.3   235  CYS235      0.1712
     62  C         22.5250   16.1430   17.1710 C.2   235  CYS235      0.2296
     63  O         22.9600   16.3310   16.0400 O.2   235  CYS235     -0.2864
     64  CB        20.9930   17.6540   18.3130 C.3   235  CYS235      0.0983
     65  SG        20.5390   19.0110   17.3700 S.3   235  CYS235     -0.0798
     66  N         24.1290   24.1650   17.3100 N.3   273  MET273     -0.1245
     67  CA        22.9720   24.0810   18.1940 C.3   273  MET273      0.1570
     68  C         23.4820   24.1860   19.6040 C.2   273  MET273      0.2261
     69  O         24.5330   23.6470   19.9250 O.2   273  MET273     -0.2867
     70  CB        22.2340   22.7460   18.0020 C.3   273  MET273      0.0387
     71  CG        21.4540   22.1990   19.2240 C.3   273  MET273      0.0595
     72  SD        19.8590   22.9410   19.5340 S.3   273  MET273     -0.1393
     73  CE        18.8040   21.9240   18.4970 C.3   273  MET273      0.0692
     74  N         17.5770   25.3910   21.8350 N.3   301  VAL301     -0.1231
     75  CA        16.5530   24.6020   22.5000 C.3   301  VAL301      0.1692
     76  C         16.7880   24.5240   24.0090 C.2   301  VAL301      0.2592
     77  O         17.8080   24.9450   24.5150 O.2   301  VAL301     -0.2718
     78  CB        16.5110   23.1570   21.8890 C.3   301  VAL301      0.0266
     79  CG1       17.6030   22.2620   22.5110 C.3   301  VAL301      0.0020
     80  CG2       15.0980   22.5220   22.0050 C.3   301  VAL301      0.0020
     81  N         15.8180   23.9830   24.7220 N.am  302  GLY302     -0.1957
     82  CA        15.9630   23.7240   26.1700 C.3   302  GLY302      0.1869
     83  C         15.7040   24.9000   27.1040 C.2   302  GLY302      0.2309
     84  O         15.9610   24.8090   28.3090 O.2   302  GLY302     -0.2863
     85  N         11.6720   23.3720   20.4020 N.3   325  TYR325     -0.1227
     86  CA        11.0640   23.0540   21.6830 C.3   325  TYR325      0.1736
     87  C         10.7560   21.5680   21.8270 C.2   325  TYR325      0.2596
     88  O         10.4860   20.8740   20.8360 O.2   325  TYR325     -0.2718
     89  CB         9.8000   23.8860   21.8280 C.3   325  TYR325      0.0548
     90  CG         8.8490   23.4610   22.9130 C.ar  325  TYR325     -0.0200
     91  CD1        9.1260   23.7070   24.2550 C.ar  325  TYR325     -0.0009
     92  CD2        7.6440   22.8460   22.5950 C.ar  325  TYR325     -0.0009
     93  CE1        8.2260   23.3280   25.2500 C.ar  325  TYR325      0.0417
     94  CE2        6.7640   22.4650   23.5750 C.ar  325  TYR325      0.0417
     95  CZ         7.0530   22.7210   24.8960 C.ar  325  TYR325      0.1957
     96  OH         6.1400   22.3550   25.8410 O.3   325  TYR325     -0.2866
     97  N         10.7920   21.0900   23.0700 N.am  326  GLY326     -0.1942
     98  CA        10.4060   19.7130   23.3820 C.3   326  GLY326      0.2014
     99  C         10.7780   19.3180   24.7900 C.2   326  GLY326      0.2639
    100  O         11.0940   20.1570   25.6000 O.2   326  GLY326     -0.2714
    101  N         10.7170   18.0220   25.0710 N.am  327  GLN327     -0.1963
    102  CA        11.1410   17.4600   26.3650 C.3   327  GLN327      0.1733
    103  C         11.6110   16.0220   26.1650 C.2   327  GLN327      0.2617
    104  O         11.3530   15.4180   25.1310 O.2   327  GLN327     -0.2715
    105  CB        10.0220   17.5420   27.4330 C.3   327  GLN327      0.0408
    106  CG         8.7510   16.7490   27.1460 C.3   327  GLN327      0.0908
    107  CD         7.6450   16.9020   28.2100 C.2   327  GLN327      0.2608
    108  OE1        6.7890   16.0180   28.3600 O.2   327  GLN327     -0.2717
    109  NE2        7.6610   18.0100   28.9520 N.am  327  GLN327     -0.0878
    110  N         12.3070   15.4880   27.1560 N.am  328  THR328     -0.1951
    111  CA        12.7900   14.1230   27.1160 C.3   328  THR328      0.1897
    112  C         11.7590   13.1360   26.6040 C.2   328  THR328      0.2313
    113  O         12.0930   12.2100   25.8690 O.2   328  THR328     -0.2863
    114  CB        13.2550   13.6570   28.5310 C.3   328  THR328      0.1794
    115  OG1       14.2490   14.5630   29.0270 O.3   328  THR328     -0.2208
    116  CG2       13.8240   12.2300   28.4910 C.3   328  THR328      0.0378
    117  N         10.7470   14.3940   22.5360 N.3   331  GLY331     -0.1210
    118  CA        11.7230   14.8170   21.5730 C.3   331  GLY331      0.1956
    119  C         11.3260   16.1210   20.9230 C.2   331  GLY331      0.2611
    120  O         10.6260   16.9470   21.5310 O.2   331  GLY331     -0.2717
    121  N         11.7780   16.3070   19.6820 N.am  332  LEU332     -0.1979
    122  CA        11.5450   17.5460   18.9500 C.3   332  LEU332      0.1596
    123  C         10.0600   17.6690   18.7240 C.2   332  LEU332      0.2287
    124  O          9.4700   16.8390   18.0320 O.2   332  LEU332     -0.2864
    125  CB        12.2840   17.5390   17.6110 C.3   332  LEU332      0.0297
    126  CG        12.0040   18.7110   16.6670 C.3   332  LEU332      0.0022
    127  CD1       12.8690   19.9200   17.0030 C.3   332  LEU332      0.0001
    128  CD2       12.2260   18.2710   15.2220 C.3   332  LEU332      0.0001
    129  N         14.0570   25.1080   35.0180 N.3   431  ASN431     -0.1240
    130  CA        14.8540   24.9810   33.8190 C.3   431  ASN431      0.1653
    131  C         15.9880   25.9580   33.8180 C.2   431  ASN431      0.2266
    132  O         15.7700   27.1170   33.4910 O.2   431  ASN431     -0.2867
    133  CB        13.9690   25.2280   32.6120 C.3   431  ASN431      0.1155
    134  CG        13.2880   23.9860   32.1580 C.2   431  ASN431      0.2627
    135  OD1       13.9500   22.9620   31.9460 O.2   431  ASN431     -0.2716
    136  ND2       11.9640   24.0360   32.0160 N.am  431  ASN431     -0.0877
    137  N         19.7120   24.8760   30.1620 N.3   434  GLY434     -0.1210
    138  CA        19.6080   23.5790   29.4630 C.3   434  GLY434      0.1956
    139  C         19.3700   22.3460   30.3530 C.2   434  GLY434      0.2612
    140  O         18.9440   21.2810   29.8690 O.2   434  GLY434     -0.2717
    141  N         19.6580   22.4780   31.6460 N.am  435  TYR435     -0.1962
    142  CA        19.4140   21.4100   32.5940 C.3   435  TYR435      0.1771
    143  C         17.9720   21.4700   33.0780 C.2   435  TYR435      0.2619
    144  O         17.3820   22.5430   33.1650 O.2   435  TYR435     -0.2715
    145  CB        20.3870   21.5110   33.7690 C.3   435  TYR435      0.0574
    146  CG        21.8050   21.1940   33.3680 C.ar  435  TYR435     -0.0198
    147  CD1       22.2430   19.8610   33.2860 C.ar  435  TYR435     -0.0009
    148  CD2       22.7110   22.2130   33.0500 C.ar  435  TYR435     -0.0009
    149  CE1       23.5440   19.5340   32.8900 C.ar  435  TYR435      0.0417
    150  CE2       24.0350   21.9100   32.6340 C.ar  435  TYR435      0.0417
    151  CZ        24.4400   20.5590   32.5500 C.ar  435  TYR435      0.1957
    152  OH        25.7200   20.2250   32.1320 O.3   435  TYR435     -0.2866
    153  N         17.4270   20.3000   33.3860 N.am  436  ARG436     -0.1977
    154  CA        16.0650   20.1190   33.8890 C.3   436  ARG436      0.1597
    155  C         16.1750   19.5680   35.3150 C.2   436  ARG436      0.2287
    156  O         16.5970   18.4210   35.5050 O.2   436  ARG436     -0.2864
    157  CB        15.2950   19.1280   32.9810 C.3   436  ARG436      0.0334
    158  CG        13.8280   18.9300   33.3580 C.3   436  ARG436      0.0492
    159  CD        13.1000   18.0190   32.3850 C.3   436  ARG436      0.2205
    160  NE        12.0930   17.1450   33.0160 N.pl3 436  ARG436     -0.0865
    161  CZ        11.2120   16.3780   32.3570 C.cat 436  ARG436      0.5346
    162  NH1       11.1670   16.3560   31.0120 N.pl3 436  ARG436      0.1354
    163  NH2       10.3650   15.6210   33.0450 N.pl3 436  ARG436      0.1354
@<TRIPOS>BOND
     1     8     9    1
     2     9    10    1
     3     9    12    1
     4    10    11    2
     5    12    13    1
     6    13    14   ar
     7    13    15   ar
     8    14    16   ar
     9    15    18   ar
    10    15    17   ar
    11    18    20   ar
    12    16    17   ar
    13    17    19   ar
    14   128   126    1
    15    20    21   ar
    16    19    21   ar
    17    63    62    2
    18    55    54    2
    19   126   127    1
    20   126   125    1
    21    62    61    1
    22    66    67    1
    23    65    64    1
    24    61    60    1
    25    61    64    1
    26   125   122    1
    27    54    60   am
    28    54    53    1
    29    70    67    1
    30    70    71    1
    31   124   123    2
    32    67    68    1
    33    73    72    1
    34    53    56    1
    35    53    52    1
    36   123   122    1
    37    59    57    1
    38   122   121    1
    39    71    72    1
    40    56    57    1
    41    68    69    2
    42   121   119   am
    43    57    58    1
    44    85    86    1
    45    88    87    2
    46   119   120    2
    47   119   118    1
    48    47    46    2
    49    50    49    1
    50   118   117    1
    51    86    87    1
    52    86    89    1
    53    87    97   am
    54    89    90    1
    55    74    75    1
    56    78    80    1
    57    78    75    1
    58    78    79    1
    59    46    45    1
    60    49    51    1
    61    49    48    1
    62    75    76    1
    63    92    90   ar
    64    92    94   ar
    65    39    38    2
    66    45    48    1
    67    45    44    1
    68    90    91   ar
    69    97    98    1
    70    98    99    1
    71    94    95   ar
    72    38    44   am
    73    38    37    1
    74    76    77    2
    75    76    81   am
    76    41    43    1
    77    41    40    1
    78    91    93   ar
    79    81    82    1
    80    99   101   am
    81    99   100    2
    82    95    93   ar
    83    95    96    1
    84    42    40    1
    85   101   102    1
    86    37    40    1
    87    37    36    1
    88   104   103    2
    89    25    24    2
    90   113   112    2
    91   103   102    1
    92   103   110   am
    93    82    83    1
    94    36    24   am
    95   102   105    1
    96    24    23    1
    97   112   111    1
    98    83    84    2
    99   111   110    1
   100   111   114    1
   101   106   105    1
   102   106   107    1
   103    32    34   ar
   104    32    29   ar
   105    26    23    1
   106    26    27    1
   107    34    35   ar
   108    23    22    1
   109   107   108    2
   110   107   109   am
   111    29    27   ar
   112    29    31   ar
   113    27    28   ar
   114   116   114    1
   115   114   115    1
   116    35    33   ar
   117   138   137    1
   118   138   139    1
   119    31    33   ar
   120    31    30   ar
   121    28    30   ar
   122   140   139    2
   123   139   141   am
   124   162   161    1
   125   141   142    1
   126   135   134    2
   127   136   134   am
   128   152   151    1
   129   134   133    1
   130   161   160    2
   131   161   163    1
   132   159   160    1
   133   159   158    1
   134     6     5    1
   135   151   150   ar
   136   151   149   ar
   137   142   143    1
   138   142   145    1
   139   133   130    1
   140   150   148   ar
   141     5     7    1
   142     5     2    1
   143   149   147   ar
   144   157   158    1
   145   157   154    1
   146   148   146   ar
   147   143   144    2
   148   143   153   am
   149   147   146   ar
   150   146   145    1
   151   153   154    1
   152   132   131    2
   153   131   130    1
   154   130   129    1
   155   154   155    1
   156     2     1    1
   157     2     3    1
   158     3     4    2
   159   155   156    2
