@<TRIPOS>MOLECULE
tmp/2wdaA07.pdb
 103 102 0 0 0
SMALL
GASTEIGER

@<TRIPOS>ATOM
      1  N         39.7760    8.7320   39.7430 N.3   414  ARG414     -0.1245
      2  CA        40.2290    7.3480   39.9380 C.3   414  ARG414      0.1563
      3  C         39.9210    6.4460   38.7310 C.2   414  ARG414      0.2260
      4  O         39.8720    5.2200   38.8640 O.2   414  ARG414     -0.2867
      5  CB        39.5530    6.8080   41.1860 C.3   414  ARG414      0.0307
      6  CG        40.2540    7.2720   42.4860 C.3   414  ARG414      0.0489
      7  CD        39.4910    7.0430   43.7990 C.3   414  ARG414      0.2205
      8  NE        39.9240    8.1740   44.6000 N.pl3 414  ARG414     -0.0865
      9  CZ        39.1700    8.8660   45.4540 C.cat 414  ARG414      0.5346
     10  NH1       37.8950    8.5040   45.7140 N.pl3 414  ARG414      0.1354
     11  NH2       39.7110    9.9320   46.0620 N.pl3 414  ARG414      0.1354
     12  N         30.1290    5.3050   42.1850 N.3   441  PRO441     -0.2102
     13  CA        30.5810    5.8100   43.4890 C.3   441  PRO441      0.1504
     14  C         30.9030    4.6910   44.5140 C.2   441  PRO441      0.2576
     15  O         31.4630    5.0010   45.5770 O.2   441  PRO441     -0.2718
     16  CB        29.3660    6.6210   44.0100 C.3   441  PRO441      0.0282
     17  CG        28.1600    6.0170   43.2690 C.3   441  PRO441      0.0208
     18  CD        28.7480    5.7080   41.8950 C.3   441  PRO441      0.0893
     19  N         30.5390    3.4430   44.2520 N.am  442  THR442     -0.1939
     20  CA        30.9230    2.3880   45.2230 C.3   442  THR442      0.2028
     21  C         31.9800    1.4270   44.7680 C.2   442  THR442      0.2642
     22  O         32.5500    0.7460   45.5940 O.2   442  THR442     -0.2714
     23  CB        29.7350    1.5960   45.7860 C.3   442  THR442      0.1808
     24  OG1       29.0520    0.9080   44.7500 O.3   442  THR442     -0.2208
     25  CG2       28.7480    2.5150   46.4640 C.3   442  THR442      0.0379
     26  N         32.2340    1.3460   43.4610 N.am  443  VAL443     -0.1963
     27  CA        33.1590    0.3630   42.9540 C.3   443  VAL443      0.1727
     28  C         34.5740    0.5350   43.4780 C.2   443  VAL443      0.2616
     29  O         35.0890    1.6350   43.5910 O.2   443  VAL443     -0.2715
     30  CB        33.1720    0.3720   41.3870 C.3   443  VAL443      0.0290
     31  CG1       33.8290    1.6440   40.8270 C.3   443  VAL443      0.0023
     32  CG2       33.8790   -0.8180   40.8350 C.3   443  VAL443      0.0023
     33  N         35.2330   -0.5750   43.7240 N.am  444  ASP444     -0.1957
     34  CA        36.6870   -0.6120   43.7830 C.3   444  ASP444      0.1840
     35  C         37.3150   -0.3060   42.4160 C.2   444  ASP444      0.2622
     36  O         37.4020   -1.1930   41.5270 O.2   444  ASP444     -0.2715
     37  CB        37.1330   -2.0200   44.1800 C.3   444  ASP444      0.1450
     38  CG        38.6160   -2.1060   44.4470 C.2   444  ASP444      0.3671
     39  OD1       39.3930   -1.2250   44.0660 O.co2 444  ASP444     -0.2456
     40  OD2       39.0350   -3.0890   45.0730 O.co2 444  ASP444     -0.2456
     41  N         37.8730    0.8980   42.2850 N.am  445  TRP445     -0.1960
     42  CA        38.5060    1.3320   41.0500 C.3   445  TRP445      0.1771
     43  C         39.7560    0.5570   40.7140 C.2   445  TRP445      0.2619
     44  O         40.3030    0.7590   39.6290 O.2   445  TRP445     -0.2715
     45  CB        38.8440    2.8450   41.1050 C.3   445  TRP445      0.0590
     46  CG        37.6140    3.6670   41.1790 C.ar  445  TRP445      0.0006
     47  CD1       36.9470    4.0290   42.3020 C.ar  445  TRP445      0.0946
     48  CD2       36.8790    4.2160   40.0760 C.ar  445  TRP445      0.0152
     49  NE1       35.7970    4.7650   41.9660 N.ar  445  TRP445     -0.2442
     50  CE2       35.7630    4.9140   40.6100 C.ar  445  TRP445      0.0810
     51  CE3       37.0910    4.2450   38.7040 C.ar  445  TRP445      0.0012
     52  CZ2       34.8430    5.5890   39.8120 C.ar  445  TRP445      0.0191
     53  CZ3       36.1890    4.9300   37.9130 C.ar  445  TRP445      0.0001
     54  CH2       35.0520    5.5740   38.4780 C.ar  445  TRP445      0.0015
     55  N         40.2170   -0.3270   41.6170 N.am  446  TYR446     -0.1974
     56  CA        41.3670   -1.2180   41.2980 C.3   446  TYR446      0.1639
     57  C         40.9410   -2.5510   40.7080 C.2   446  TYR446      0.2290
     58  O         41.7920   -3.2940   40.1470 O.2   446  TYR446     -0.2864
     59  CB        42.3280   -1.4070   42.5110 C.3   446  TYR446      0.0560
     60  CG        43.0170   -0.0810   42.9640 C.ar  446  TYR446     -0.0198
     61  CD1       44.2190    0.3060   42.4210 C.ar  446  TYR446     -0.0009
     62  CD2       42.4200    0.7530   43.8950 C.ar  446  TYR446     -0.0009
     63  CE1       44.8460    1.4910   42.8010 C.ar  446  TYR446      0.0417
     64  CE2       43.0430    1.9540   44.3190 C.ar  446  TYR446      0.0417
     65  CZ        44.2610    2.3230   43.7350 C.ar  446  TYR446      0.1957
     66  OH        44.9430    3.4990   44.1180 O.3   446  TYR446     -0.2866
     67  N         29.9980   -2.0710   50.0470 N.3   572  ARG572     -0.1231
     68  CA        30.8900   -0.9440   49.7950 C.3   572  ARG572      0.1694
     69  C         29.9970    0.2590   49.8240 C.2   572  ARG572      0.2592
     70  O         28.9030    0.2460   49.2330 O.2   572  ARG572     -0.2718
     71  CB        31.5670   -1.0320   48.4480 C.3   572  ARG572      0.0321
     72  CG        32.5120   -2.1920   48.3050 C.3   572  ARG572      0.0489
     73  CD        33.2350   -2.1560   46.9690 C.3   572  ARG572      0.2205
     74  NE        34.1960   -1.0550   46.9040 N.pl3 572  ARG572     -0.0865
     75  CZ        35.4460   -1.1180   47.4000 C.cat 572  ARG572      0.5346
     76  NH1       35.8820   -2.2380   48.0340 N.pl3 572  ARG572      0.1354
     77  NH2       36.2700   -0.0700   47.2660 N.pl3 572  ARG572      0.1354
     78  N         30.4400    1.2700   50.5610 N.am  573  THR573     -0.1953
     79  CA        29.6320    2.4570   50.7600 C.3   573  THR573      0.1897
     80  C         30.3690    3.6060   50.1130 C.2   573  THR573      0.2313
     81  O         31.5930    3.7240   50.2310 O.2   573  THR573     -0.2863
     82  CB        29.3780    2.7000   52.2790 C.3   573  THR573      0.1794
     83  OG1       28.5680    1.6120   52.8110 O.3   573  THR573     -0.2208
     84  CG2       28.6020    4.0550   52.5250 C.3   573  THR573      0.0378
     85  N         32.9520   11.4200   46.4290 N.3   578  ASP578     -0.1239
     86  CA        34.2280   10.7290   46.4230 C.3   578  ASP578      0.1674
     87  C         34.9430   10.7820   45.0530 C.2   578  ASP578      0.2266
     88  O         36.1350   10.5770   45.0020 O.2   578  ASP578     -0.2867
     89  CB        34.0770    9.2610   46.7960 C.3   578  ASP578      0.1410
     90  CG        33.5030    9.0420   48.2010 C.2   578  ASP578      0.3668
     91  OD1       33.5300    9.9670   49.0830 O.co2 578  ASP578     -0.2456
     92  OD2       33.0110    7.9130   48.3960 O.co2 578  ASP578     -0.2456
     93  N         25.9470    9.3770   50.9840 N.3   587  ARG587     -0.1245
     94  CA        26.5560    8.0610   50.9010 C.3   587  ARG587      0.1563
     95  C         25.5070    6.9610   50.8170 C.2   587  ARG587      0.2260
     96  O         24.5020    7.0040   51.5030 O.2   587  ARG587     -0.2867
     97  CB        27.4840    7.8080   52.0780 C.3   587  ARG587      0.0307
     98  CG        28.5680    8.8130   52.1780 C.3   587  ARG587      0.0489
     99  CD        29.5410    8.5680   53.3410 C.3   587  ARG587      0.2205
    100  NE        30.5850    7.6410   52.9230 N.pl3 587  ARG587     -0.0865
    101  CZ        31.4680    7.8770   51.9460 C.cat 587  ARG587      0.5346
    102  NH1       31.5140    9.0360   51.2870 N.pl3 587  ARG587      0.1354
    103  NH2       32.3420    6.9410   51.6430 N.pl3 587  ARG587      0.1354
@<TRIPOS>BOND
     1    53    54   ar
     2    53    51   ar
     3    54    52   ar
     4    51    48   ar
     5     3     4    2
     6     3     2    1
     7    44    43    2
     8     1     2    1
     9    52    50   ar
    10     2     5    1
    11    48    50   ar
    12    48    46   ar
    13    58    57    2
    14    50    49   ar
    15    57    56    1
    16    43    42    1
    17    43    55   am
    18    31    30    1
    19    32    30    1
    20    42    45    1
    21    42    41    1
    22    45    46    1
    23    46    47   ar
    24     5     6    1
    25    56    55    1
    26    56    59    1
    27    30    27    1
    28    36    35    2
    29    18    12    1
    30    18    17    1
    31    49    47   ar
    32    12    13    1
    33    41    35   am
    34    35    34    1
    35    61    63   ar
    36    61    60   ar
    37     6     7    1
    38    59    60    1
    39    63    65   ar
    40    27    26    1
    41    27    28    1
    42    60    62   ar
    43    17    16    1
    44    26    21   am
    45    28    29    2
    46    28    33   am
    47    13    16    1
    48    13    14    1
    49    33    34    1
    50    65    66    1
    51    65    64   ar
    52    34    37    1
    53     7     8    1
    54    62    64   ar
    55    39    38   ar
    56    37    38    1
    57    19    14   am
    58    19    20    1
    59    38    40   ar
    60    14    15    2
    61     8     9    2
    62    24    23    1
    63    21    20    1
    64    21    22    2
    65    88    87    2
    66    87    86    1
    67    20    23    1
    68     9    10    1
    69     9    11    1
    70    23    25    1
    71    86    85    1
    72    86    89    1
    73    89    90    1
    74    74    73    1
    75    74    75    2
    76    73    72    1
    77    77    75    1
    78    75    76    1
    79    90    92   ar
    80    90    91   ar
    81    72    71    1
    82    71    68    1
    83    70    69    2
    84    68    69    1
    85    68    67    1
    86    69    78   am
    87    80    81    2
    88    80    79    1
    89    78    79    1
    90    79    82    1
    91    95    94    1
    92    95    96    2
    93    94    93    1
    94    94    97    1
    95   102   101    1
    96   103   101    1
    97   101   100    2
    98    97    98    1
    99    98    99    1
   100    82    84    1
   101    82    83    1
   102   100    99    1
