@<TRIPOS>MOLECULE
tmp/2wdaA04.pdb
 93 88 0 0 0
SMALL
GASTEIGER

@<TRIPOS>ATOM
      1  N         34.9410   27.4810   29.3480 N.3   118  TRP118     -0.1241
      2  CA        33.6880   26.9100   28.8490 C.3   118  TRP118      0.1605
      3  C         32.4900   27.6930   29.4500 C.2   118  TRP118      0.2264
      4  O         31.4600   27.8830   28.7820 O.2   118  TRP118     -0.2867
      5  CB        33.5690   25.4210   29.2520 C.3   118  TRP118      0.0550
      6  CG        32.3290   24.7290   28.7220 C.ar  118  TRP118      0.0003
      7  CD1       32.2370   23.9850   27.5840 C.ar  118  TRP118      0.0946
      8  CD2       31.0110   24.7440   29.3080 C.ar  118  TRP118      0.0152
      9  NE1       30.9250   23.5420   27.4100 N.ar  118  TRP118     -0.2442
     10  CE2       30.1690   23.9710   28.4740 C.ar  118  TRP118      0.0810
     11  CE3       30.4910   25.2710   30.4770 C.ar  118  TRP118      0.0012
     12  CZ2       28.8330   23.7600   28.7520 C.ar  118  TRP118      0.0191
     13  CZ3       29.1410   25.0640   30.7580 C.ar  118  TRP118      0.0001
     14  CH2       28.3370   24.3120   29.9110 C.ar  118  TRP118      0.0015
     15  N         24.8290   30.7500   25.9440 N.3   126  ARG126     -0.1245
     16  CA        23.6650   30.0520   25.3240 C.3   126  ARG126      0.1563
     17  C         22.4270   30.3540   26.1750 C.2   126  ARG126      0.2260
     18  O         21.3040   30.5070   25.6580 O.2   126  ARG126     -0.2867
     19  CB        23.8940   28.5440   25.2030 C.3   126  ARG126      0.0307
     20  CG        24.9810   28.1660   24.2140 C.3   126  ARG126      0.0489
     21  CD        25.2070   26.5700   24.1320 C.3   126  ARG126      0.2205
     22  NE        25.3210   26.0090   25.4780 N.pl3 126  ARG126     -0.0865
     23  CZ        25.1680   24.7200   25.7750 C.cat 126  ARG126      0.5346
     24  NH1       24.9040   23.8490   24.8070 N.pl3 126  ARG126      0.1354
     25  NH2       25.2220   24.3320   27.0430 N.pl3 126  ARG126      0.1354
     26  N         32.0380   19.0960   19.3480 N.3   170  ALA170     -0.1231
     27  CA        30.9150   19.6100   20.1420 C.3   170  ALA170      0.1694
     28  C         31.1350   21.0650   20.5300 C.2   170  ALA170      0.2592
     29  O         30.1540   21.8110   20.6560 O.2   170  ALA170     -0.2718
     30  CB        30.7510   18.7780   21.4000 C.3   170  ALA170      0.0304
     31  N         32.3980   21.4570   20.7740 N.am  171  ASN171     -0.1974
     32  CA        32.6790   22.8420   21.2340 C.3   171  ASN171      0.1688
     33  C         32.4190   23.8490   20.1160 C.2   171  ASN171      0.2292
     34  O         31.7220   24.8430   20.3220 O.2   171  ASN171     -0.2864
     35  CB        34.0880   22.9980   21.7660 C.3   171  ASN171      0.1181
     36  CG        34.3160   22.2410   23.0460 C.2   171  ASN171      0.2629
     37  OD1       33.4280   22.1320   23.9040 O.2   171  ASN171     -0.2716
     38  ND2       35.5000   21.6680   23.1730 N.am  171  ASN171     -0.0877
     39  N         28.6890   24.2700   19.8260 N.3   174  ASP174     -0.1239
     40  CA        28.1790   25.0920   20.9270 C.3   174  ASP174      0.1674
     41  C         28.4940   26.5960   20.7240 C.2   174  ASP174      0.2266
     42  O         27.6730   27.4500   21.0340 O.2   174  ASP174     -0.2867
     43  CB        28.7880   24.6250   22.2320 C.3   174  ASP174      0.1410
     44  CG        27.9110   23.6150   22.9660 C.2   174  ASP174      0.3668
     45  OD1       26.6840   23.5660   22.7400 O.co2 174  ASP174     -0.2456
     46  OD2       28.4550   22.8860   23.8260 O.co2 174  ASP174     -0.2456
     47  N         26.2040   27.9740   18.2440 N.3   177  ARG177     -0.1245
     48  CA        24.8630   28.1290   18.7990 C.3   177  ARG177      0.1563
     49  C         24.6590   29.5780   19.2980 C.2   177  ARG177      0.2260
     50  O         23.6550   30.2310   18.9510 O.2   177  ARG177     -0.2867
     51  CB        24.6030   27.1150   19.9200 C.3   177  ARG177      0.0307
     52  CG        24.0770   25.7700   19.4740 C.3   177  ARG177      0.0489
     53  CD        23.9440   24.8320   20.6230 C.3   177  ARG177      0.2205
     54  NE        22.7780   25.0790   21.4700 N.pl3 177  ARG177     -0.0865
     55  CZ        22.1760   24.0960   22.1220 C.cat 177  ARG177      0.5346
     56  NH1       22.6270   22.8430   22.0000 N.pl3 177  ARG177      0.1354
     57  NH2       21.1740   24.3370   22.9160 N.pl3 177  ARG177      0.1354
     58  N         30.0220   14.4690   24.8920 N.3   230  TYR230     -0.1241
     59  CA        30.3380   15.3350   23.7820 C.3   230  TYR230      0.1605
     60  C         29.7000   15.0050   22.4570 C.2   230  TYR230      0.2264
     61  O         29.3560   15.9210   21.6990 O.2   230  TYR230     -0.2867
     62  CB        31.8490   15.4770   23.6390 C.3   230  TYR230      0.0534
     63  CG        32.4910   16.2200   24.8170 C.ar  230  TYR230     -0.0201
     64  CD1       32.4430   17.6450   24.8740 C.ar  230  TYR230     -0.0009
     65  CD2       33.1230   15.5160   25.8760 C.ar  230  TYR230     -0.0009
     66  CE1       33.0380   18.3690   25.9200 C.ar  230  TYR230      0.0417
     67  CE2       33.7670   16.2140   26.9520 C.ar  230  TYR230      0.0417
     68  CZ        33.7050   17.6600   26.9470 C.ar  230  TYR230      0.1957
     69  OH        34.2760   18.3760   27.9550 O.3   230  TYR230     -0.2866
     70  N         26.8250   13.6280   22.0020 N.3   232  GLN232     -0.1231
     71  CA        25.4390   14.0240   22.1810 C.3   232  GLN232      0.1698
     72  C         25.2690   15.5690   22.0880 C.2   232  GLN232      0.2592
     73  O         24.3390   16.0380   21.4670 O.2   232  GLN232     -0.2718
     74  CB        24.9540   13.5080   23.5530 C.3   232  GLN232      0.0381
     75  CG        23.5170   13.8490   23.9090 C.3   232  GLN232      0.0905
     76  CD        23.2850   15.3330   24.3480 C.2   232  GLN232      0.2608
     77  OE1       24.1140   15.9000   24.9910 O.2   232  GLN232     -0.2717
     78  NE2       22.1080   15.8730   24.0770 N.am  232  GLN232     -0.0878
     79  N         26.1580   16.3300   22.7110 N.am  233  VAL233     -0.1980
     80  CA        26.1980   17.7760   22.6410 C.3   233  VAL233      0.1595
     81  C         26.3170   18.1980   21.1950 C.2   233  VAL233      0.2287
     82  O         25.5490   19.0290   20.7240 O.2   233  VAL233     -0.2864
     83  CB        27.3620   18.3660   23.5030 C.3   233  VAL233      0.0276
     84  CG1       27.5130   19.8700   23.2480 C.3   233  VAL233      0.0022
     85  CG2       27.0730   18.0720   25.0120 C.3   233  VAL233      0.0022
     86  N         23.0110   17.2240   19.3810 N.3   236  ASP236     -0.1239
     87  CA        21.9670   18.1120   19.8580 C.3   236  ASP236      0.1674
     88  C         22.0550   19.5260   19.2140 C.2   236  ASP236      0.2266
     89  O         21.0880   20.0100   18.6640 O.2   236  ASP236     -0.2867
     90  CB        21.9780   18.1630   21.4250 C.3   236  ASP236      0.1410
     91  CG        21.0000   19.2630   22.0140 C.2   236  ASP236      0.3668
     92  OD1       19.8340   19.2630   21.5990 O.co2 236  ASP236     -0.2456
     93  OD2       21.3920   20.1090   22.9050 O.co2 236  ASP236     -0.2456
@<TRIPOS>BOND
     1    47    48    1
     2    89    88    2
     3    48    49    1
     4    48    51    1
     5    50    49    2
     6    88    87    1
     7    26    27    1
     8    86    87    1
     9    52    51    1
    10    52    53    1
    11    39    40    1
    12    87    90    1
    13    33    34    2
    14    33    32    1
    15    27    28    1
    16    27    30    1
    17    28    29    2
    18    28    31   am
    19    53    54    1
    20    41    40    1
    21    41    42    2
    22    82    81    2
    23    31    32    1
    24    40    43    1
    25    81    80    1
    26    32    35    1
    27    90    91    1
    28    73    72    2
    29    54    55    2
    30    92    91   ar
    31    61    60    2
    32    35    36    1
    33    56    55    1
    34    70    71    1
    35    91    93   ar
    36    72    71    1
    37    72    79   am
    38    55    57    1
    39    71    74    1
    40    43    44    1
    41    60    59    1
    42    80    79    1
    43    80    83    1
    44    45    44   ar
    45    44    46   ar
    46    36    38   am
    47    36    37    2
    48    84    83    1
    49    83    85    1
    50    74    75    1
    51    62    59    1
    52    62    63    1
    53    59    58    1
    54    75    76    1
    55    78    76   am
    56    21    20    1
    57    21    22    1
    58    20    19    1
    59    76    77    2
    60    24    23    1
    61    63    64   ar
    62    63    65   ar
    63    64    66   ar
    64    19    16    1
    65    16    15    1
    66    16    17    1
    67    22    23    2
    68    18    17    2
    69    23    25    1
    70    65    67   ar
    71    66    68   ar
    72    68    67   ar
    73    68    69    1
    74     9     7   ar
    75     9    10   ar
    76     7     6   ar
    77    10    12   ar
    78    10     8   ar
    79     6     5    1
    80     6     8   ar
    81    12    14   ar
    82     4     3    2
    83     2     5    1
    84     2     1    1
    85     2     3    1
    86     8    11   ar
    87    14    13   ar
    88    11    13   ar
