@<TRIPOS>MOLECULE
tmp/2wdaA08.pdb
 109 104 0 0 0
SMALL
GASTEIGER

@<TRIPOS>ATOM
      1  N         40.6130   11.3660   10.5610 N.3   207  THR207     -0.1203
      2  CA        41.4170   10.2020   10.8410 C.3   207  THR207      0.1994
      3  C         42.2700   10.4180   12.0810 C.2   207  THR207      0.2618
      4  O         42.8700    9.4870   12.5630 O.2   207  THR207     -0.2717
      5  CB        42.2950    9.7900    9.6540 C.3   207  THR207      0.1784
      6  OG1       43.1140   10.9010    9.2690 O.3   207  THR207     -0.2211
      7  CG2       41.3880    9.3650    8.4570 C.3   207  THR207      0.0376
      8  N         42.2970   11.6300   12.6120 N.am  208  LYS208     -0.1965
      9  CA        42.9200   11.8550   13.8910 C.3   208  LYS208      0.1728
     10  C         42.2340   13.0180   14.5590 C.2   208  LYS208      0.2616
     11  O         41.6090   13.8390   13.9200 O.2   208  LYS208     -0.2715
     12  CB        44.4420   12.1380   13.7820 C.3   208  LYS208      0.0311
     13  CG        44.8280   13.2310   12.7990 C.3   208  LYS208      0.0038
     14  CD        46.3380   13.3240   12.6730 C.3   208  LYS208      0.0206
     15  CE        46.7600   14.0990   11.4320 C.3   208  LYS208      0.1093
     16  NZ        46.3670   15.5330   11.4850 N.3   208  LYS208     -0.1314
     17  N         42.4020   13.1200   15.8640 N.am  209  GLY209     -0.1955
     18  CA        41.8610   14.2380   16.5650 C.3   209  GLY209      0.1869
     19  C         40.3610   14.1510   16.7580 C.2   209  GLY209      0.2309
     20  O         39.7400   13.0610   16.7340 O.2   209  GLY209     -0.2863
     21  N         34.5770    9.6310   12.8610 N.3   213  TYR213     -0.1241
     22  CA        35.4670    8.8350   11.9860 C.3   213  TYR213      0.1605
     23  C         34.6060    7.9450   11.1370 C.2   213  TYR213      0.2264
     24  O         33.4610    7.6100   11.5050 O.2   213  TYR213     -0.2867
     25  CB        36.3010    7.8950   12.8420 C.3   213  TYR213      0.0534
     26  CG        37.3750    8.6240   13.6230 C.ar  213  TYR213     -0.0201
     27  CD1       38.7130    8.4460   13.3150 C.ar  213  TYR213     -0.0009
     28  CD2       37.0310    9.5140   14.6850 C.ar  213  TYR213     -0.0009
     29  CE1       39.6960    9.1370   14.0340 C.ar  213  TYR213      0.0417
     30  CE2       37.9850   10.1350   15.3880 C.ar  213  TYR213      0.0417
     31  CZ        39.3220    9.9730   15.0510 C.ar  213  TYR213      0.1957
     32  OH        40.3100   10.6210   15.7920 O.3   213  TYR213     -0.2866
     33  N         35.5500   11.1260   18.7940 N.3   219  VAL219     -0.1245
     34  CA        36.5980   11.5740   19.6970 C.3   219  VAL219      0.1561
     35  C         36.4390   13.0500   20.0470 C.2   219  VAL219      0.2260
     36  O         36.2070   13.9210   19.1790 O.2   219  VAL219     -0.2867
     37  CB        37.9740   11.2860   19.0590 C.3   219  VAL219      0.0252
     38  CG1       39.1600   12.0570   19.8160 C.3   219  VAL219      0.0019
     39  CG2       38.2190    9.7990   19.0780 C.3   219  VAL219      0.0019
     40  N         40.8770   15.3710   21.7440 N.3   222  THR222     -0.1203
     41  CA        41.9170   14.7810   20.9610 C.3   222  THR222      0.1994
     42  C         42.2230   13.2620   21.1320 C.2   222  THR222      0.2617
     43  O         42.4890   12.5940   20.1730 O.2   222  THR222     -0.2717
     44  CB        43.1300   15.7730   20.7780 C.3   222  THR222      0.1784
     45  OG1       44.3780   15.0830   20.6900 O.3   222  THR222     -0.2211
     46  CG2       43.1740   16.7690   21.6860 C.3   222  THR222      0.0376
     47  N         42.0570   12.7380   22.3450 N.am  223  TRP223     -0.1975
     48  CA        42.3780   11.3940   22.6640 C.3   223  TRP223      0.1640
     49  C         41.2830   10.5960   23.3990 C.2   223  TRP223      0.2290
     50  O         41.5220    9.4580   23.7640 O.2   223  TRP223     -0.2864
     51  CB        43.6370   11.3780   23.5350 C.3   223  TRP223      0.0576
     52  CG        44.8060   12.0190   22.9080 C.ar  223  TRP223      0.0006
     53  CD1       45.5210   11.5830   21.8390 C.ar  223  TRP223      0.0946
     54  CD2       45.4280   13.1960   23.3470 C.ar  223  TRP223      0.0152
     55  NE1       46.5540   12.4270   21.5780 N.ar  223  TRP223     -0.2442
     56  CE2       46.5000   13.4460   22.4800 C.ar  223  TRP223      0.0810
     57  CE3       45.1680   14.0770   24.3810 C.ar  223  TRP223      0.0012
     58  CZ2       47.2910   14.5200   22.6050 C.ar  223  TRP223      0.0191
     59  CZ3       45.9570   15.1660   24.5060 C.ar  223  TRP223      0.0001
     60  CH2       47.0150   15.3830   23.6390 C.ar  223  TRP223      0.0015
     61  N         38.7510    3.3060   15.6670 N.3   380  ALA380     -0.1245
     62  CA        39.3860    4.6410   15.8670 C.3   380  ALA380      0.1562
     63  C         39.3060    5.1240   17.3090 C.2   380  ALA380      0.2260
     64  O         40.2240    5.8010   17.7960 O.2   380  ALA380     -0.2867
     65  CB        38.8220    5.6680   14.8850 C.3   380  ALA380      0.0290
     66  N         46.7400    6.2520   20.5550 N.3   401  ARG401     -0.1231
     67  CA        45.7330    7.2140   20.0670 C.3   401  ARG401      0.1694
     68  C         44.6970    7.5600   21.0990 C.2   401  ARG401      0.2591
     69  O         44.0970    8.6010   20.9850 O.2   401  ARG401     -0.2718
     70  CB        45.0140    6.7310   18.7870 C.3   401  ARG401      0.0321
     71  CG        45.9470    6.4580   17.5520 C.3   401  ARG401      0.0489
     72  CD        45.2710    5.4340   16.5730 C.3   401  ARG401      0.2205
     73  NE        45.2230    4.1030   17.1690 N.pl3 401  ARG401     -0.0865
     74  CZ        44.1470    3.5060   17.6840 C.cat 401  ARG401      0.5346
     75  NH1       42.9920    4.1310   17.6830 N.pl3 401  ARG401      0.1354
     76  NH2       44.2490    2.2840   18.2530 N.pl3 401  ARG401      0.1354
     77  N         44.4840    6.7360   22.1150 N.am  402  ILE402     -0.1980
     78  CA        43.2990    6.9090   22.9620 C.3   402  ILE402      0.1595
     79  C         43.6730    6.8320   24.4190 C.2   402  ILE402      0.2287
     80  O         44.2330    5.8260   24.8430 O.2   402  ILE402     -0.2864
     81  CB        42.2050    5.8450   22.6390 C.3   402  ILE402      0.0276
     82  CG1       41.6660    6.0010   21.2120 C.3   402  ILE402      0.0022
     83  CG2       41.0840    5.8120   23.6860 C.3   402  ILE402      0.0022
     84  CD1       40.8650    7.3580   20.9450 C.3   402  ILE402      0.0001
     85  N         48.7830   -0.5450   12.3660 N.3   690  ARG690     -0.1245
     86  CA        48.4770    0.6200   11.5410 C.3   690  ARG690      0.1563
     87  C         49.7550    1.2160   10.8850 C.2   690  ARG690      0.2260
     88  O         49.8620    2.4360   10.7180 O.2   690  ARG690     -0.2867
     89  CB        47.7000    1.6990   12.3380 C.3   690  ARG690      0.0307
     90  CG        46.2500    1.3980   12.5890 C.3   690  ARG690      0.0489
     91  CD        45.7410    2.3520   13.6450 C.3   690  ARG690      0.2205
     92  NE        44.3750    2.1670   14.1510 N.pl3 690  ARG690     -0.0865
     93  CZ        43.9670    1.3280   15.1310 C.cat 690  ARG690      0.5346
     94  NH1       44.7950    0.4300   15.6960 N.pl3 690  ARG690      0.1354
     95  NH2       42.6860    1.3830   15.5520 N.pl3 690  ARG690      0.1354
     96  N         45.8220    2.4760    7.3660 N.3   730  VAL730     -0.1231
     97  CA        46.3250    2.8820    8.6470 C.3   730  VAL730      0.1692
     98  C         45.2270    3.1980    9.6290 C.2   730  VAL730      0.2591
     99  O         45.4750    3.7600   10.6580 O.2   730  VAL730     -0.2718
    100  CB        47.2890    4.0760    8.5420 C.3   730  VAL730      0.0266
    101  CG1       48.4980    3.6860    7.6970 C.3   730  VAL730      0.0020
    102  CG2       46.6140    5.2970    7.9430 C.3   730  VAL730      0.0020
    103  N         44.0130    2.7840    9.3280 N.am  731  VAL731     -0.1980
    104  CA        42.9290    2.8900   10.3080 C.3   731  VAL731      0.1595
    105  C         42.3060    1.5630   10.8150 C.2   731  VAL731      0.2287
    106  O         41.2220    1.5530   11.3900 O.2   731  VAL731     -0.2864
    107  CB        41.8420    3.9000    9.8090 C.3   731  VAL731      0.0276
    108  CG1       42.5340    5.3000    9.5790 C.3   731  VAL731      0.0022
    109  CG2       41.0840    3.4170    8.5490 C.3   731  VAL731      0.0022
@<TRIPOS>BOND
     1    96    97    1
     2   101   100    1
     3   102   100    1
     4     7     5    1
     5   100    97    1
     6   109   107    1
     7    97    98    1
     8     6     5    1
     9   103    98   am
    10   103   104    1
    11   108   107    1
    12    98    99    2
    13     5     2    1
    14   107   104    1
    15   104   105    1
    16     1     2    1
    17    88    87    2
    18   105   106    2
    19     2     3    1
    20    87    86    1
    21    23    24    2
    22    23    22    1
    23    15    16    1
    24    15    14    1
    25    86    89    1
    26    86    85    1
    27    22    25    1
    28    22    21    1
    29     3     4    2
    30     3     8   am
    31    89    90    1
    32    90    91    1
    33     8     9    1
    34    14    13    1
    35    13    12    1
    36    25    26    1
    37    27    26   ar
    38    27    29   ar
    39    26    28   ar
    40    91    92    1
    41    12     9    1
    42     9    10    1
    43    11    10    2
    44    29    31   ar
    45    92    93    2
    46    10    17   am
    47    28    30   ar
    48    65    62    1
    49    31    30   ar
    50    31    32    1
    51    93    95    1
    52    93    94    1
    53    61    62    1
    54    17    18    1
    55    62    63    1
    56    18    19    1
    57    72    73    1
    58    72    71    1
    59    20    19    2
    60    73    74    2
    61    63    64    2
    62    71    70    1
    63    75    74    1
    64    74    76    1
    65    70    67    1
    66    33    34    1
    67    37    39    1
    68    37    34    1
    69    37    38    1
    70    36    35    2
    71    34    35    1
    72    67    66    1
    73    67    68    1
    74    43    42    2
    75    45    44    1
    76    44    41    1
    77    44    46    1
    78    84    82    1
    79    41    42    1
    80    41    40    1
    81    69    68    2
    82    68    77   am
    83    42    47   am
    84    82    81    1
    85    55    53   ar
    86    55    56   ar
    87    53    52   ar
    88    77    78    1
    89    47    48    1
    90    56    58   ar
    91    56    54   ar
    92    58    60   ar
    93    81    78    1
    94    81    83    1
    95    48    49    1
    96    48    51    1
    97    52    54   ar
    98    52    51    1
    99    78    79    1
   100    54    57   ar
   101    49    50    2
   102    60    59   ar
   103    57    59   ar
   104    79    80    2
