@<TRIPOS>MOLECULE
tmp/2wdaA02.pdb
 189 180 0 0 0
SMALL
GASTEIGER

@<TRIPOS>ATOM
      1  N         37.4090   28.5640   34.0830 N.3   116  ASN116     -0.1240
      2  CA        37.0310   27.7040   32.9610 C.3   116  ASN116      0.1653
      3  C         36.4030   28.4950   31.7970 C.2   116  ASN116      0.2266
      4  O         35.3070   29.0540   31.9220 O.2   116  ASN116     -0.2867
      5  CB        36.0340   26.6650   33.4840 C.3   116  ASN116      0.1155
      6  CG        35.6710   25.5870   32.4500 C.2   116  ASN116      0.2627
      7  OD1       36.2100   25.5530   31.3240 O.2   116  ASN116     -0.2716
      8  ND2       34.7270   24.7020   32.8330 N.am  116  ASN116     -0.0877
      9  N         34.9410   27.4810   29.3480 N.3   118  TRP118     -0.1227
     10  CA        33.6880   26.9100   28.8490 C.3   118  TRP118      0.1737
     11  C         32.4900   27.6930   29.4500 C.2   118  TRP118      0.2595
     12  O         31.4600   27.8830   28.7820 O.2   118  TRP118     -0.2718
     13  CB        33.5690   25.4210   29.2520 C.3   118  TRP118      0.0564
     14  CG        32.3290   24.7290   28.7220 C.ar  118  TRP118      0.0003
     15  CD1       32.2370   23.9850   27.5840 C.ar  118  TRP118      0.0946
     16  CD2       31.0110   24.7440   29.3080 C.ar  118  TRP118      0.0152
     17  NE1       30.9250   23.5420   27.4100 N.ar  118  TRP118     -0.2442
     18  CE2       30.1690   23.9710   28.4740 C.ar  118  TRP118      0.0810
     19  CE3       30.4910   25.2710   30.4770 C.ar  118  TRP118      0.0012
     20  CZ2       28.8330   23.7600   28.7520 C.ar  118  TRP118      0.0191
     21  CZ3       29.1410   25.0640   30.7580 C.ar  118  TRP118      0.0001
     22  CH2       28.3370   24.3120   29.9110 C.ar  118  TRP118      0.0015
     23  N         32.6170   28.1130   30.7120 N.am  119  GLU119     -0.1979
     24  CA        31.5020   28.8360   31.3660 C.3   119  GLU119      0.1602
     25  C         31.1360   30.1440   30.6610 C.2   119  GLU119      0.2287
     26  O         29.9570   30.4720   30.5670 O.2   119  GLU119     -0.2864
     27  CB        31.7920   29.0880   32.8400 C.3   119  GLU119      0.0415
     28  CG        32.1050   27.8150   33.6240 C.3   119  GLU119      0.1163
     29  CD        30.8600   26.8980   33.8080 C.2   119  GLU119      0.3649
     30  OE1       29.7270   27.3080   33.4440 O.co2 119  GLU119     -0.2457
     31  OE2       31.0160   25.7390   34.2980 O.co2 119  GLU119     -0.2457
     32  N         24.8290   30.7500   25.9440 N.3   126  ARG126     -0.1245
     33  CA        23.6650   30.0520   25.3240 C.3   126  ARG126      0.1563
     34  C         22.4270   30.3540   26.1750 C.2   126  ARG126      0.2260
     35  O         21.3040   30.5070   25.6580 O.2   126  ARG126     -0.2867
     36  CB        23.8940   28.5440   25.2030 C.3   126  ARG126      0.0307
     37  CG        24.9810   28.1660   24.2140 C.3   126  ARG126      0.0489
     38  CD        25.2070   26.5700   24.1320 C.3   126  ARG126      0.2205
     39  NE        25.3210   26.0090   25.4780 N.pl3 126  ARG126     -0.0865
     40  CZ        25.1680   24.7200   25.7750 C.cat 126  ARG126      0.5346
     41  NH1       24.9040   23.8490   24.8070 N.pl3 126  ARG126      0.1354
     42  NH2       25.2220   24.3320   27.0430 N.pl3 126  ARG126      0.1354
     43  N         34.3430    9.4500   23.0800 N.3   226  TYR226     -0.1241
     44  CA        33.4150   10.3790   23.7030 C.3   226  TYR226      0.1605
     45  C         32.0430   10.5170   23.0860 C.2   226  TYR226      0.2264
     46  O         31.3750   11.5360   23.2950 O.2   226  TYR226     -0.2867
     47  CB        34.0830   11.7950   23.8320 C.3   226  TYR226      0.0534
     48  CG        34.3270   12.2360   25.2760 C.ar  226  TYR226     -0.0201
     49  CD1       35.4740   12.9040   25.6170 C.ar  226  TYR226     -0.0009
     50  CD2       33.3980   11.9800   26.2730 C.ar  226  TYR226     -0.0009
     51  CE1       35.7390   13.2950   26.8860 C.ar  226  TYR226      0.0417
     52  CE2       33.6460   12.3780   27.5810 C.ar  226  TYR226      0.0417
     53  CZ        34.8330   13.0270   27.8670 C.ar  226  TYR226      0.1957
     54  OH        35.0830   13.3840   29.1390 O.3   226  TYR226     -0.2866
     55  N         28.7650   11.7280   25.4950 N.3   229  THR229     -0.1203
     56  CA        28.4810   13.0250   26.1140 C.3   229  THR229      0.1994
     57  C         28.7730   14.1880   25.1500 C.2   229  THR229      0.2617
     58  O         27.8630   14.7480   24.5940 O.2   229  THR229     -0.2717
     59  CB        29.1700   13.2160   27.4720 C.3   229  THR229      0.1784
     60  OG1       30.5650   13.0460   27.3230 O.3   229  THR229     -0.2211
     61  CG2       28.6250   12.2270   28.4880 C.3   229  THR229      0.0376
     62  N         30.0220   14.4690   24.8920 N.am  230  TYR230     -0.1975
     63  CA        30.3380   15.3350   23.7820 C.3   230  TYR230      0.1639
     64  C         29.7000   15.0050   22.4570 C.2   230  TYR230      0.2290
     65  O         29.3560   15.9210   21.6990 O.2   230  TYR230     -0.2864
     66  CB        31.8490   15.4770   23.6390 C.3   230  TYR230      0.0560
     67  CG        32.4910   16.2200   24.8170 C.ar  230  TYR230     -0.0198
     68  CD1       32.4430   17.6450   24.8740 C.ar  230  TYR230     -0.0009
     69  CD2       33.1230   15.5160   25.8760 C.ar  230  TYR230     -0.0009
     70  CE1       33.0380   18.3690   25.9200 C.ar  230  TYR230      0.0417
     71  CE2       33.7670   16.2140   26.9520 C.ar  230  TYR230      0.0417
     72  CZ        33.7050   17.6600   26.9470 C.ar  230  TYR230      0.1957
     73  OH        34.2760   18.3760   27.9550 O.3   230  TYR230     -0.2866
     74  N         26.8250   13.6280   22.0020 N.3   232  GLN232     -0.1231
     75  CA        25.4390   14.0240   22.1810 C.3   232  GLN232      0.1698
     76  C         25.2690   15.5690   22.0880 C.2   232  GLN232      0.2592
     77  O         24.3390   16.0380   21.4670 O.2   232  GLN232     -0.2718
     78  CB        24.9540   13.5080   23.5530 C.3   232  GLN232      0.0381
     79  CG        23.5170   13.8490   23.9090 C.3   232  GLN232      0.0905
     80  CD        23.2850   15.3330   24.3480 C.2   232  GLN232      0.2608
     81  OE1       24.1140   15.9000   24.9910 O.2   232  GLN232     -0.2717
     82  NE2       22.1080   15.8730   24.0770 N.am  232  GLN232     -0.0878
     83  N         26.1580   16.3300   22.7110 N.am  233  VAL233     -0.1980
     84  CA        26.1980   17.7760   22.6410 C.3   233  VAL233      0.1595
     85  C         26.3170   18.1980   21.1950 C.2   233  VAL233      0.2287
     86  O         25.5490   19.0290   20.7240 O.2   233  VAL233     -0.2864
     87  CB        27.3620   18.3660   23.5030 C.3   233  VAL233      0.0276
     88  CG1       27.5130   19.8700   23.2480 C.3   233  VAL233      0.0022
     89  CG2       27.0730   18.0720   25.0120 C.3   233  VAL233      0.0022
     90  N         34.8180   11.3850   31.5060 N.3   284  ARG284     -0.1231
     91  CA        34.7830   11.7640   32.9370 C.3   284  ARG284      0.1694
     92  C         33.3380   11.8500   33.4800 C.2   284  ARG284      0.2591
     93  O         33.1250   11.8470   34.7250 O.2   284  ARG284     -0.2718
     94  CB        35.5900   13.0490   33.2000 C.3   284  ARG284      0.0321
     95  CG        34.9390   14.3480   32.6960 C.3   284  ARG284      0.0489
     96  CD        35.8460   15.6040   32.8080 C.3   284  ARG284      0.2205
     97  NE        35.0420   16.8320   32.7190 N.pl3 284  ARG284     -0.0865
     98  CZ        34.7200   17.4090   31.5590 C.cat 284  ARG284      0.5346
     99  NH1       35.1010   16.8560   30.3770 N.pl3 284  ARG284      0.1354
    100  NH2       33.9750   18.5170   31.5530 N.pl3 284  ARG284      0.1354
    101  N         32.3480   11.9220   32.5850 N.am  285  ALA285     -0.1980
    102  CA        30.9710   12.1320   33.0590 C.3   285  ALA285      0.1597
    103  C         30.4150   10.9420   33.8720 C.2   285  ALA285      0.2287
    104  O         29.3540   11.0430   34.5410 O.2   285  ALA285     -0.2864
    105  CB        30.0220   12.4450   31.8570 C.3   285  ALA285      0.0319
    106  N         29.6990   11.8090   37.6070 N.3   288  ARG288     -0.1245
    107  CA        28.8290   12.9230   38.0480 C.3   288  ARG288      0.1563
    108  C         27.7370   12.5810   39.0080 C.2   288  ARG288      0.2260
    109  O         27.6550   13.1560   40.0850 O.2   288  ARG288     -0.2867
    110  CB        28.2700   13.6890   36.8560 C.3   288  ARG288      0.0307
    111  CG        29.4160   14.3360   36.0810 C.3   288  ARG288      0.0489
    112  CD        28.9860   15.1550   34.8970 C.3   288  ARG288      0.2205
    113  NE        30.1630   15.7470   34.3170 N.pl3 288  ARG288     -0.0865
    114  CZ        30.3170   16.1160   33.0670 C.cat 288  ARG288      0.5346
    115  NH1       29.3490   16.0010   32.1530 N.pl3 288  ARG288      0.1354
    116  NH2       31.4490   16.6450   32.7300 N.pl3 288  ARG288      0.1354
    117  N         24.6960   16.1050   40.9040 N.3   291  LEU291     -0.1245
    118  CA        25.5610   17.3030   40.9580 C.3   291  LEU291      0.1561
    119  C         25.0980   18.3100   42.0120 C.2   291  LEU291      0.2260
    120  O         23.8900   18.5860   42.1020 O.2   291  LEU291     -0.2867
    121  CB        25.5900   17.9820   39.5870 C.3   291  LEU291      0.0270
    122  CG        26.1860   17.0670   38.5120 C.3   291  LEU291      0.0019
    123  CD1       25.8190   17.5900   37.1460 C.3   291  LEU291      0.0001
    124  CD2       27.7300   16.9280   38.7200 C.3   291  LEU291      0.0001
    125  N         22.8760   11.7460   37.1370 N.3   300  ARG300     -0.1245
    126  CA        23.5220   11.4750   35.8680 C.3   300  ARG300      0.1563
    127  C         23.9730   10.0060   35.8820 C.2   300  ARG300      0.2260
    128  O         24.2510    9.4300   36.9550 O.2   300  ARG300     -0.2867
    129  CB        24.7170   12.4060   35.7010 C.3   300  ARG300      0.0307
    130  CG        24.4210   13.6480   34.9360 C.3   300  ARG300      0.0489
    131  CD        23.5970   14.6060   35.7820 C.3   300  ARG300      0.2205
    132  NE        23.3570   15.8350   35.0840 N.pl3 300  ARG300     -0.0865
    133  CZ        22.2490   16.5420   35.2070 C.cat 300  ARG300      0.5346
    134  NH1       21.2810   16.1510   36.0110 N.pl3 300  ARG300      0.1354
    135  NH2       22.1200   17.6670   34.5290 N.pl3 300  ARG300      0.1354
    136  N         20.7030    8.4410   31.8850 N.3   304  PHE304     -0.1227
    137  CA        20.5060    9.8790   31.7360 C.3   304  PHE304      0.1736
    138  C         21.1890   10.3110   30.4470 C.2   304  PHE304      0.2595
    139  O         20.6190   10.9930   29.6030 O.2   304  PHE304     -0.2718
    140  CB        21.0850   10.6440   32.9990 C.3   304  PHE304      0.0547
    141  CG        21.1740   12.1480   32.7950 C.ar  304  PHE304     -0.0202
    142  CD1       20.1940   12.9950   33.3020 C.ar  304  PHE304     -0.0042
    143  CD2       22.2370   12.7030   32.1250 C.ar  304  PHE304     -0.0042
    144  CE1       20.2520   14.3730   33.0930 C.ar  304  PHE304     -0.0003
    145  CE2       22.3470   14.1050   31.9230 C.ar  304  PHE304     -0.0003
    146  CZ        21.3140   14.9510   32.3840 C.ar  304  PHE304     -0.0000
    147  N         22.4220    9.8600   30.2530 N.am  305  HIS305     -0.1975
    148  CA        23.1400   10.2250   29.0720 C.3   305  HIS305      0.1656
    149  C         22.4970    9.6600   27.8160 C.2   305  HIS305      0.2291
    150  O         22.3510   10.3810   26.7810 O.2   305  HIS305     -0.2864
    151  CB        24.6440    9.8890   29.1660 C.3   305  HIS305      0.0771
    152  CG        25.3490   10.6440   30.2520 C.ar  305  HIS305      0.0820
    153  ND1       25.3150   12.0330   30.3370 N.ar  305  HIS305     -0.2267
    154  CD2       26.0930   10.2180   31.3070 C.ar  305  HIS305      0.1154
    155  CE1       26.0400   12.4190   31.3790 C.ar  305  HIS305      0.1986
    156  NE2       26.4850   11.3440   32.0030 N.ar  305  HIS305     -0.2212
    157  N         19.4170   11.7080   26.9090 N.3   308  GLN308     -0.1245
    158  CA        19.8180   12.9550   26.2550 C.3   308  GLN308      0.1566
    159  C         20.1940   12.7100   24.8310 C.2   308  GLN308      0.2260
    160  O         19.9490   13.5720   23.9950 O.2   308  GLN308     -0.2867
    161  CB        20.9900   13.6380   26.9300 C.3   308  GLN308      0.0367
    162  CG        20.8190   13.9960   28.4130 C.3   308  GLN308      0.0905
    163  CD        19.6090   14.8930   28.6550 C.2   308  GLN308      0.2608
    164  OE1       18.4750   14.4300   28.7740 O.2   308  GLN308     -0.2717
    165  NE2       19.8670   16.1760   28.8040 N.am  308  GLN308     -0.0878
    166  N         38.5280   19.1020   35.8420 N.3   409  ASN409     -0.1240
    167  CA        37.5270   19.8580   36.6050 C.3   409  ASN409      0.1653
    168  C         37.0620   19.1790   37.8710 C.2   409  ASN409      0.2266
    169  O         35.8890   19.3220   38.2750 O.2   409  ASN409     -0.2867
    170  CB        36.3160   20.1890   35.7370 C.3   409  ASN409      0.1155
    171  CG        36.6150   21.2740   34.6800 C.2   409  ASN409      0.2627
    172  OD1       37.7200   21.8360   34.6170 O.2   409  ASN409     -0.2716
    173  ND2       35.6560   21.4960   33.7950 N.am  409  ASN409     -0.0877
    174  N         36.7800   15.8930   38.2450 N.3   411  GLU411     -0.1245
    175  CA        35.8990   14.7500   37.9510 C.3   411  GLU411      0.1567
    176  C         36.7110   13.5180   37.5800 C.2   411  GLU411      0.2260
    177  O         37.7520   13.6230   36.8810 O.2   411  GLU411     -0.2867
    178  CB        34.9350   15.0900   36.7920 C.3   411  GLU411      0.0388
    179  CG        34.3010   16.5140   36.9050 C.3   411  GLU411      0.1160
    180  CD        33.0910   16.6660   35.9910 C.2   411  GLU411      0.3649
    181  OE1       33.3370   16.9510   34.7880 O.co2 411  GLU411     -0.2457
    182  OE2       31.9290   16.5100   36.5040 O.co2 411  GLU411     -0.2457
    183  N         32.2710   18.1560   42.2150 N.3   582  THR582     -0.1218
    184  CA        31.0520   18.9550   42.0250 C.3   582  THR582      0.1862
    185  C         29.7890   18.2040   42.3880 C.2   582  THR582      0.2287
    186  O         28.6600   18.6730   42.0970 O.2   582  THR582     -0.2866
    187  CB        30.9220   19.5160   40.5740 C.3   582  THR582      0.1770
    188  OG1       30.7530   18.4260   39.6620 O.3   582  THR582     -0.2211
    189  CG2       32.2140   20.3110   40.0960 C.3   582  THR582      0.0375
@<TRIPOS>BOND
     1    86    85    2
     2    85    84    1
     3    77    76    2
     4    65    64    2
     5    74    75    1
     6    76    75    1
     7    76    83   am
     8    75    78    1
     9    64    63    1
    10    84    83    1
    11    84    87    1
    12    43    44    1
    13    45    46    2
    14    45    44    1
    15    88    87    1
    16    87    89    1
    17    78    79    1
    18    66    63    1
    19    66    67    1
    20    44    47    1
    21    63    62    1
    22    47    48    1
    23    79    80    1
    24   160   159    2
    25    82    80   am
    26    38    37    1
    27    38    39    1
    28    37    36    1
    29    80    81    2
    30    58    57    2
    31    41    40    1
    32    67    68   ar
    33    67    69   ar
    34   159   158    1
    35    68    70   ar
    36    62    57   am
    37    57    56    1
    38    36    33    1
    39    48    49   ar
    40    48    50   ar
    41    33    32    1
    42    33    34    1
    43    39    40    2
    44    55    56    1
    45    49    51   ar
    46    35    34    2
    47    40    42    1
    48    69    71   ar
    49    70    72   ar
    50    56    59    1
    51   158   157    1
    52   158   161    1
    53    50    52   ar
    54   150   149    2
    55    51    53   ar
    56   161   162    1
    57    72    71   ar
    58    72    73    1
    59    60    59    1
    60    17    15   ar
    61    17    18   ar
    62    59    61    1
    63    52    53   ar
    64    15    14   ar
    65   149   148    1
    66    53    54    1
    67   162   163    1
    68    18    20   ar
    69    18    16   ar
    70   163   164    2
    71   163   165   am
    72    14    13    1
    73    14    16   ar
    74    20    22   ar
    75    12    11    2
    76    10    13    1
    77    10     9    1
    78    10    11    1
    79   148   151    1
    80   148   147    1
    81   151   152    1
    82    16    19   ar
    83    11    23   am
    84   139   138    2
    85    22    21   ar
    86   152   153   ar
    87   152   154   ar
    88   147   138   am
    89   153   155   ar
    90    99    98    1
    91   138   137    1
    92    19    21   ar
    93    26    25    2
    94    25    24    1
    95    23    24    1
    96   154   156   ar
    97     7     6    2
    98    24    27    1
    99   155   156   ar
   100    90    91    1
   101   100    98    1
   102    98    97    2
   103   137   136    1
   104   137   140    1
   105     3     4    2
   106     3     2    1
   107   105   102    1
   108   145   143   ar
   109   145   146   ar
   110   143   141   ar
   111   115   114    1
   112   146   144   ar
   113     6     8   am
   114     6     5    1
   115   101   102    1
   116   101    92   am
   117    95    96    1
   118    95    94    1
   119    97    96    1
   120   116   114    1
   121   141   140    1
   122   141   142   ar
   123    27    28    1
   124    91    94    1
   125    91    92    1
   126     2     5    1
   127     2     1    1
   128   102   103    1
   129   114   113    2
   130   144   142   ar
   131    30    29   ar
   132    92    93    2
   133    28    29    1
   134   173   171   am
   135    29    31   ar
   136   103   104    2
   137   113   112    1
   138   135   133    1
   139   172   171    2
   140   171   170    1
   141   181   180   ar
   142   112   111    1
   143   130   129    1
   144   130   131    1
   145   132   133    2
   146   132   131    1
   147   133   134    1
   148   129   126    1
   149   170   167    1
   150   166   167    1
   151   126   127    1
   152   126   125    1
   153   127   128    2
   154   180   182   ar
   155   180   179    1
   156   111   110    1
   157   167   168    1
   158   178   179    1
   159   178   175    1
   160   110   107    1
   161   177   176    2
   162   123   122    1
   163   176   175    1
   164   106   107    1
   165   168   169    2
   166   175   174    1
   167   107   108    1
   168   122   124    1
   169   122   121    1
   170   108   109    2
   171   121   118    1
   172   188   187    1
   173   189   187    1
   174   187   184    1
   175   117   118    1
   176   118   119    1
   177   119   120    2
   178   184   183    1
   179   184   185    1
   180   186   185    2
