@<TRIPOS>MOLECULE
tmp/2wdaA05.pdb
 88 84 0 0 0
SMALL
GASTEIGER

@<TRIPOS>ATOM
      1  N         21.4510  -13.3090   23.9460 N.3   390  ALA390     -0.1245
      2  CA        21.5100  -13.3830   25.4090 C.3   390  ALA390      0.1562
      3  C         22.1350  -12.1460   26.1000 C.2   390  ALA390      0.2260
      4  O         21.9720  -11.9670   27.3130 O.2   390  ALA390     -0.2867
      5  CB        22.2250  -14.6400   25.8630 C.3   390  ALA390      0.0290
      6  N         22.8310   -8.6050   30.8250 N.3   427  ALA427     -0.1231
      7  CA        22.0350   -9.8070   30.3960 C.3   427  ALA427      0.1694
      8  C         20.8010   -9.2400   29.6820 C.2   427  ALA427      0.2592
      9  O         20.0710   -8.3770   30.2540 O.2   427  ALA427     -0.2718
     10  CB        21.6510  -10.6940   31.6640 C.3   427  ALA427      0.0304
     11  N         20.5850   -9.6290   28.4230 N.am  428  ASN428     -0.1974
     12  CA        19.4370   -9.0580   27.6810 C.3   428  ASN428      0.1688
     13  C         18.1150   -9.5210   28.3470 C.2   428  ASN428      0.2292
     14  O         18.0720  -10.5700   29.0390 O.2   428  ASN428     -0.2864
     15  CB        19.4590   -9.3810   26.1610 C.3   428  ASN428      0.1181
     16  CG        20.5130   -8.5740   25.3660 C.2   428  ASN428      0.2629
     17  OD1       21.0300   -7.5200   25.8000 O.2   428  ASN428     -0.2716
     18  ND2       20.8080   -9.0580   24.1670 N.am  428  ASN428     -0.0877
     19  N         16.8150   -8.3060   30.9390 N.3   430  THR430     -0.1218
     20  CA        16.7190   -7.9730   32.3550 C.3   430  THR430      0.1862
     21  C         16.8960   -6.4680   32.5190 C.2   430  THR430      0.2287
     22  O         17.3070   -5.7700   31.5920 O.2   430  THR430     -0.2866
     23  CB        17.7250   -8.7320   33.2050 C.3   430  THR430      0.1770
     24  OG1       17.3110   -8.6770   34.5720 O.3   430  THR430     -0.2211
     25  CG2       19.0810   -8.0960   33.0780 C.3   430  THR430      0.0375
     26  N         28.8240  -19.1670   38.6760 N.3   551  HIS551     -0.1241
     27  CA        27.6390  -18.5780   38.0770 C.3   551  HIS551      0.1621
     28  C         27.0110  -17.6440   39.1100 C.2   551  HIS551      0.2264
     29  O         26.9020  -17.9660   40.3300 O.2   551  HIS551     -0.2867
     30  CB        26.6460  -19.6680   37.6800 C.3   551  HIS551      0.0745
     31  CG        25.4360  -19.1500   36.9590 C.ar  551  HIS551      0.0817
     32  ND1       24.3040  -18.7160   37.6270 N.ar  551  HIS551     -0.2268
     33  CD2       25.2070  -18.9300   35.6390 C.ar  551  HIS551      0.1154
     34  CE1       23.4230  -18.2710   36.7450 C.ar  551  HIS551      0.1986
     35  NE2       23.9320  -18.4170   35.5310 N.ar  551  HIS551     -0.2212
     36  N         23.5840  -15.6190   39.9070 N.3   553  GLU553     -0.1231
     37  CA        22.1770  -15.6820   39.6300 C.3   553  GLU553      0.1699
     38  C         21.6450  -14.2970   39.1460 C.2   553  GLU553      0.2593
     39  O         21.8950  -13.2560   39.7990 O.2   553  GLU553     -0.2718
     40  CB        21.4720  -16.1510   40.9400 C.3   553  GLU553      0.0402
     41  CG        19.9760  -16.2690   40.8340 C.3   553  GLU553      0.1161
     42  CD        19.2580  -16.3090   42.1750 C.2   553  GLU553      0.3649
     43  OE1       19.8860  -16.1590   43.2760 O.co2 553  GLU553     -0.2457
     44  OE2       18.0150  -16.4930   42.1160 O.co2 553  GLU553     -0.2457
     45  N         20.9120  -14.2740   38.0340 N.am  554  GLY554     -0.1942
     46  CA        20.3490  -13.0200   37.5280 C.3   554  GLY554      0.2014
     47  C         21.3070  -12.3570   36.5400 C.2   554  GLY554      0.2639
     48  O         20.8720  -11.4560   35.8050 O.2   554  GLY554     -0.2714
     49  N         22.5870  -12.8260   36.4990 N.am  555  HIS555     -0.1959
     50  CA        23.6450  -12.1620   35.7640 C.3   555  HIS555      0.1787
     51  C         24.2390  -13.0210   34.6620 C.2   555  HIS555      0.2620
     52  O         24.1380  -12.6790   33.5210 O.2   555  HIS555     -0.2715
     53  CB        24.7760  -11.7570   36.7260 C.3   555  HIS555      0.0785
     54  CG        24.4700  -10.5320   37.5490 C.ar  555  HIS555      0.0821
     55  ND1       23.4760  -10.5130   38.5220 N.ar  555  HIS555     -0.2267
     56  CD2       25.0520   -9.3060   37.5810 C.ar  555  HIS555      0.1154
     57  CE1       23.4530   -9.3260   39.1040 C.ar  555  HIS555      0.1986
     58  NE2       24.3860   -8.5700   38.5420 N.ar  555  HIS555     -0.2212
     59  N         24.8900  -14.1320   35.0040 N.am  556  GLY556     -0.1954
     60  CA        25.4660  -14.9890   34.0000 C.3   556  GLY556      0.1869
     61  C         26.5880  -15.7580   34.7010 C.2   556  GLY556      0.2309
     62  O         26.5880  -15.8630   35.9280 O.2   556  GLY556     -0.2863
     63  N         24.2180  -13.5860   30.7030 N.3   615  GLY615     -0.1210
     64  CA        22.8810  -13.9980   30.4410 C.3   615  GLY615      0.1956
     65  C         22.6410  -15.5140   30.4840 C.2   615  GLY615      0.2612
     66  O         21.5080  -15.9510   30.2800 O.2   615  GLY615     -0.2717
     67  N         23.6740  -16.3110   30.7210 N.am  616  ALA616     -0.1965
     68  CA        23.5110  -17.7930   30.6780 C.3   616  ALA616      0.1728
     69  C         23.0220  -18.4000   31.9800 C.2   616  ALA616      0.2617
     70  O         23.3140  -17.8970   33.0810 O.2   616  ALA616     -0.2715
     71  CB        24.8170  -18.4870   30.2090 C.3   616  ALA616      0.0334
     72  N         22.3060  -19.5090   31.8720 N.am  617  SER617     -0.1936
     73  CA        21.8960  -20.2700   33.0320 C.3   617  SER617      0.2055
     74  C         23.0540  -21.0300   33.6830 C.2   617  SER617      0.2642
     75  O         24.0460  -21.2750   33.0540 O.2   617  SER617     -0.2714
     76  CB        20.8000  -21.2450   32.6090 C.3   617  SER617      0.2130
     77  OG        21.3810  -22.1980   31.7440 O.3   617  SER617     -0.2179
     78  N         22.9190  -21.3830   34.9470 N.am  618  ARG618     -0.1977
     79  CA        23.8760  -22.2330   35.6700 C.3   618  ARG618      0.1597
     80  C         24.1630  -23.5480   34.8960 C.2   618  ARG618      0.2287
     81  O         25.3290  -24.0060   34.7990 O.2   618  ARG618     -0.2864
     82  CB        23.3170  -22.5170   37.0740 C.3   618  ARG618      0.0334
     83  CG        24.2880  -23.1900   38.0480 C.3   618  ARG618      0.0492
     84  CD        23.6870  -24.4510   38.7350 C.3   618  ARG618      0.2205
     85  NE        22.9420  -24.1500   39.9650 N.pl3 618  ARG618     -0.0865
     86  CZ        22.9790  -24.8930   41.0970 C.cat 618  ARG618      0.5346
     87  NH1       23.7410  -25.9980   41.1900 N.pl3 618  ARG618      0.1354
     88  NH2       22.2460  -24.5260   42.1640 N.pl3 618  ARG618      0.1354
@<TRIPOS>BOND
     1     1     2    1
     2    18    16   am
     3    16    17    2
     4    16    15    1
     5     2     5    1
     6     2     3    1
     7     3     4    2
     8    15    12    1
     9    12    13    1
    10    12    11    1
    11    13    14    2
    12    11     8   am
    13     8     9    2
    14     8     7    1
    15    71    68    1
    16    66    65    2
    17     7     6    1
    18     7    10    1
    19    64    65    1
    20    64    63    1
    21    65    67   am
    22    68    67    1
    23    68    69    1
    24    19    20    1
    25    22    21    2
    26    77    76    1
    27    72    69   am
    28    72    73    1
    29    69    70    2
    30    20    21    1
    31    20    23    1
    32    76    73    1
    33    73    74    1
    34    75    74    2
    35    25    23    1
    36    23    24    1
    37    52    51    2
    38    74    78   am
    39    60    61    1
    40    60    59    1
    41    51    59   am
    42    51    50    1
    43    61    62    2
    44    81    80    2
    45    80    79    1
    46    78    79    1
    47    35    33   ar
    48    35    34   ar
    49    33    31   ar
    50    79    82    1
    51    50    49    1
    52    50    53    1
    53    48    47    2
    54    49    47   am
    55    47    46    1
    56    53    54    1
    57    34    32   ar
    58    31    32   ar
    59    31    30    1
    60    82    83    1
    61    46    45    1
    62    54    56   ar
    63    54    55   ar
    64    56    58   ar
    65    30    27    1
    66    45    38   am
    67    83    84    1
    68    27    26    1
    69    27    28    1
    70    55    57   ar
    71    58    57   ar
    72    84    85    1
    73    28    29    2
    74    38    37    1
    75    38    39    2
    76    37    36    1
    77    37    40    1
    78    85    86    2
    79    41    40    1
    80    41    42    1
    81    86    87    1
    82    86    88    1
    83    44    42   ar
    84    42    43   ar
