@<TRIPOS>MOLECULE
tmp/2wdqI01.pdb
 113 106 0 0 0
SMALL
GASTEIGER

@<TRIPOS>ATOM
      1  N         16.1090  -35.4900  -77.4540 N.3    49  ALA49      -0.1231
      2  CA        15.1050  -34.4450  -77.5780 C.3    49  ALA49       0.1694
      3  C         15.8250  -33.0880  -77.6020 C.2    49  ALA49       0.2592
      4  O         16.8890  -32.9300  -76.9980 O.2    49  ALA49      -0.2718
      5  CB        14.0400  -34.5400  -76.4220 C.3    49  ALA49       0.0304
      6  N         15.2760  -32.1250  -78.3280 N.am   50  GLN50      -0.1966
      7  CA        16.0270  -30.8800  -78.5910 C.3    50  GLN50       0.1733
      8  C         15.3440  -29.6270  -78.0790 C.2    50  GLN50       0.2617
      9  O         15.8900  -28.9280  -77.2100 O.2    50  GLN50      -0.2715
     10  CB        16.3230  -30.7000  -80.0920 C.3    50  GLN50       0.0408
     11  CG        17.1410  -31.8360  -80.7440 C.3    50  GLN50       0.0908
     12  CD        17.2800  -31.6380  -82.2560 C.2    50  GLN50       0.2608
     13  OE1       16.9380  -30.5720  -82.7920 O.2    50  GLN50      -0.2717
     14  NE2       17.7780  -32.6330  -82.9370 N.am   50  GLN50      -0.0878
     15  N         14.1700  -29.3250  -78.6130 N.am   51  GLY51      -0.1940
     16  CA        13.6700  -27.9560  -78.5250 C.3    51  GLY51       0.2014
     17  C         13.2660  -27.4840  -77.1450 C.2    51  GLY51       0.2639
     18  O         13.4500  -26.3140  -76.8010 O.2    51  GLY51      -0.2714
     19  N         12.6820  -28.3740  -76.3480 N.am   52  GLY52      -0.1954
     20  CA        12.4020  -27.9950  -74.9780 C.3    52  GLY52       0.1869
     21  C         11.1500  -28.5810  -74.3920 C.2    52  GLY52       0.2309
     22  O         10.5780  -29.5270  -74.9530 O.2    52  GLY52      -0.2863
     23  N          7.1860  -21.9190  -80.0990 N.3   119  PHE119     -0.1241
     24  CA         7.1580  -23.2670  -80.6240 C.3   119  PHE119      0.1605
     25  C          5.8150  -23.4240  -81.3360 C.2   119  PHE119      0.2264
     26  O          4.9530  -22.5480  -81.2340 O.2   119  PHE119     -0.2867
     27  CB         7.3030  -24.2930  -79.4830 C.3   119  PHE119      0.0534
     28  CG         8.3380  -25.3760  -79.7290 C.ar  119  PHE119     -0.0203
     29  CD1        9.6870  -25.0670  -79.7520 C.ar  119  PHE119     -0.0042
     30  CD2        7.9550  -26.7200  -79.8590 C.ar  119  PHE119     -0.0042
     31  CE1       10.6580  -26.0570  -79.9230 C.ar  119  PHE119     -0.0003
     32  CE2        8.9190  -27.7470  -80.0710 C.ar  119  PHE119     -0.0003
     33  CZ        10.2900  -27.4050  -80.1060 C.ar  119  PHE119     -0.0000
     34  N          7.2140  -35.3640  -87.9390 N.3   242  HIS242     -0.1241
     35  CA         7.7880  -34.0610  -87.6610 C.3   242  HIS242      0.1621
     36  C          8.0610  -33.4230  -89.0180 C.2   242  HIS242      0.2264
     37  O          8.5210  -34.1130  -89.9230 O.2   242  HIS242     -0.2867
     38  CB         9.0890  -34.2070  -86.8870 C.3   242  HIS242      0.0745
     39  CG         9.5820  -32.9260  -86.2860 C.ar  242  HIS242      0.0817
     40  ND1       10.0500  -31.8710  -87.0440 N.ar  242  HIS242     -0.2268
     41  CD2        9.6730  -32.5280  -84.9890 C.ar  242  HIS242      0.1154
     42  CE1       10.4140  -30.8840  -86.2420 C.ar  242  HIS242      0.1986
     43  NE2       10.2020  -31.2590  -84.9890 N.ar  242  HIS242     -0.2212
     44  N         16.5640  -35.3940  -86.9090 N.3   252  LEU252     -0.1245
     45  CA        15.7540  -34.2200  -86.6080 C.3   252  LEU252      0.1561
     46  C         16.5320  -32.8960  -86.5420 C.2   252  LEU252      0.2260
     47  O         17.6210  -32.8320  -85.9440 O.2   252  LEU252     -0.2867
     48  CB        15.0930  -34.4200  -85.2420 C.3   252  LEU252      0.0270
     49  CG        14.3100  -33.2030  -84.7250 C.3   252  LEU252      0.0019
     50  CD1       13.0430  -33.1150  -85.4930 C.3   252  LEU252      0.0001
     51  CD2       14.0200  -33.2890  -83.2380 C.3   252  LEU252      0.0001
     52  N         15.4100  -29.1830  -84.8730 N.3   254  THR254     -0.1203
     53  CA        14.3190  -28.8350  -83.9710 C.3   254  THR254      0.1994
     54  C         13.3490  -27.7970  -84.5410 C.2   254  THR254      0.2617
     55  O         13.7300  -26.9100  -85.3390 O.2   254  THR254     -0.2717
     56  CB        14.8470  -28.3270  -82.6050 C.3   254  THR254      0.1784
     57  OG1       13.7380  -27.9440  -81.7680 O.3   254  THR254     -0.2211
     58  CG2       15.7670  -27.1230  -82.8350 C.3   254  THR254      0.0376
     59  N         12.0920  -27.9340  -84.1240 N.am  255  GLU255     -0.1979
     60  CA        11.0750  -26.9460  -84.3830 C.3   255  GLU255      0.1602
     61  C         11.4900  -25.6130  -83.7580 C.2   255  GLU255      0.2287
     62  O         10.9460  -24.5790  -84.0940 O.2   255  GLU255     -0.2864
     63  CB         9.7520  -27.4170  -83.7850 C.3   255  GLU255      0.0415
     64  CG         8.5540  -26.5250  -84.0270 C.3   255  GLU255      0.1163
     65  CD         7.2590  -27.3350  -83.9620 C.2   255  GLU255      0.3649
     66  OE1        7.1160  -28.2810  -84.7970 O.co2 255  GLU255     -0.2457
     67  OE2        6.4020  -27.0560  -83.0720 O.co2 255  GLU255     -0.2457
     68  N          2.0100  -29.4050  -86.2350 N.3   286  ARG286     -0.1245
     69  CA         2.8920  -30.2040  -87.0610 C.3   286  ARG286      0.1563
     70  C          2.1430  -30.9580  -88.1520 C.2   286  ARG286      0.2260
     71  O          2.6620  -31.1500  -89.2450 O.2   286  ARG286     -0.2867
     72  CB         3.6870  -31.1730  -86.1990 C.3   286  ARG286      0.0307
     73  CG         4.6910  -30.4610  -85.3230 C.3   286  ARG286      0.0489
     74  CD         5.3630  -31.3860  -84.3240 C.3   286  ARG286      0.2205
     75  NE         6.4650  -30.6610  -83.6970 N.pl3 286  ARG286     -0.0865
     76  CZ         7.2360  -31.1440  -82.7270 C.cat 286  ARG286      0.5346
     77  NH1        7.0260  -32.3770  -82.2390 N.pl3 286  ARG286      0.1354
     78  NH2        8.2190  -30.3910  -82.2580 N.pl3 286  ARG286      0.1354
     79  N          8.1520  -39.5580  -86.3660 N.3   354  HIS354     -0.1241
     80  CA         8.7600  -38.9230  -85.1880 C.3   354  HIS354      0.1621
     81  C          8.2150  -39.3710  -83.8380 C.2   354  HIS354      0.2264
     82  O          8.9640  -39.6550  -82.9340 O.2   354  HIS354     -0.2867
     83  CB         8.5830  -37.4110  -85.3120 C.3   354  HIS354      0.0745
     84  CG         9.1600  -36.6430  -84.1580 C.ar  354  HIS354      0.0817
     85  ND1       10.5040  -36.6720  -83.8510 N.ar  354  HIS354     -0.2268
     86  CD2        8.5790  -35.8170  -83.2530 C.ar  354  HIS354      0.1154
     87  CE1       10.7310  -35.8770  -82.8190 C.ar  354  HIS354      0.1986
     88  NE2        9.5800  -35.3520  -82.4330 N.ar  354  HIS354     -0.2212
     89  N          0.3600  -34.2040  -81.5240 N.3   399  ARG399     -0.1245
     90  CA         1.0800  -33.6710  -80.3590 C.3   399  ARG399      0.1563
     91  C          1.7010  -32.2940  -80.6230 C.2   399  ARG399      0.2260
     92  O          2.2740  -32.0400  -81.6940 O.2   399  ARG399     -0.2867
     93  CB         2.1640  -34.6400  -79.8790 C.3   399  ARG399      0.0307
     94  CG         2.9530  -34.0740  -78.7130 C.3   399  ARG399      0.0489
     95  CD         3.8180  -35.1090  -78.0560 C.3   399  ARG399      0.2205
     96  NE         4.9890  -35.4420  -78.8570 N.pl3 399  ARG399     -0.0865
     97  CZ         6.0080  -34.6140  -79.0520 C.cat 399  ARG399      0.5346
     98  NH1        5.9820  -33.3860  -78.5270 N.pl3 399  ARG399      0.1354
     99  NH2        7.0480  -35.0060  -79.7820 N.pl3 399  ARG399      0.1354
    100  N          4.6860  -29.7210  -80.0830 N.3   401  GLY401     -0.1210
    101  CA         6.0860  -29.6880  -79.6810 C.3   401  GLY401      0.1956
    102  C          6.2490  -29.2710  -78.2310 C.2   401  GLY401      0.2612
    103  O          5.5600  -28.3780  -77.7450 O.2   401  GLY401     -0.2717
    104  N          7.1770  -29.9130  -77.5350 N.am  402  GLY402     -0.1956
    105  CA         7.4370  -29.6150  -76.1430 C.3   402  GLY402      0.1869
    106  C          6.4820  -30.2920  -75.1590 C.2   402  GLY402      0.2309
    107  O          6.7630  -30.3100  -73.9370 O.2   402  GLY402     -0.2863
    108  N          5.6260  -33.5720  -75.0970 N.3   404  SER404     -0.1217
    109  CA         6.0020  -34.9070  -74.6920 C.3   404  SER404      0.1889
    110  C          6.8900  -34.8680  -73.4480 C.2   404  SER404      0.2288
    111  O          6.6310  -35.5960  -72.4740 O.2   404  SER404     -0.2866
    112  CB         6.6940  -35.6900  -75.8130 C.3   404  SER404      0.2089
    113  OG         7.1900  -36.9100  -75.2660 O.3   404  SER404     -0.2183
@<TRIPOS>BOND
     1    37    36    2
     2    71    70    2
     3    36    35    1
     4    70    69    1
     5    34    35    1
     6    35    38    1
     7    69    68    1
     8    69    72    1
     9    40    39   ar
    10    40    42   ar
    11    44    45    1
    12    38    39    1
    13    45    46    1
    14    45    48    1
    15    46    47    2
    16    79    80    1
    17    39    41   ar
    18    42    43   ar
    19    72    73    1
    20    50    49    1
    21    55    54    2
    22    73    74    1
    23    83    80    1
    24    83    84    1
    25    48    49    1
    26    80    81    1
    27    41    43   ar
    28    52    53    1
    29    66    65   ar
    30    49    51    1
    31    54    59   am
    32    54    53    1
    33    60    59    1
    34    60    63    1
    35    60    61    1
    36    74    75    1
    37    84    85   ar
    38    84    86   ar
    39    62    61    2
    40    64    65    1
    41    64    63    1
    42    53    56    1
    43    65    67   ar
    44    85    87   ar
    45    81    82    2
    46    75    76    2
    47    86    88   ar
    48    14    12   am
    49    58    56    1
    50    87    88   ar
    51    13    12    2
    52    76    78    1
    53    76    77    1
    54    56    57    1
    55    12    11    1
    56    92    91    2
    57    89    90    1
    58    25    26    2
    59    25    24    1
    60    11    10    1
    61    24    23    1
    62    24    27    1
    63    91    90    1
    64    90    93    1
    65    33    32   ar
    66    33    31   ar
    67    10     7    1
    68   100   101    1
    69    32    30   ar
    70    31    29   ar
    71    93    94    1
    72    30    28   ar
    73    99    97    1
    74    29    28   ar
    75    28    27    1
    76   101   102    1
    77    97    96    2
    78    97    98    1
    79    96    95    1
    80    94    95    1
    81    15    16    1
    82    15     8   am
    83     7     6    1
    84     7     8    1
    85    16    17    1
    86     6     3   am
    87   102   103    2
    88   102   104   am
    89     8     9    2
    90     3     2    1
    91     3     4    2
    92     2     1    1
    93     2     5    1
    94   104   105    1
    95    17    18    2
    96    17    19   am
    97    19    20    1
    98   105   106    1
    99   112   113    1
   100   112   109    1
   101   106   107    2
   102   108   109    1
   103    20    21    1
   104    22    21    2
   105   109   110    1
   106   110   111    2
