@<TRIPOS>MOLECULE
tmp/2wduA02.pdb
 89 82 0 0 0
SMALL
GASTEIGER

@<TRIPOS>ATOM
      1  N         -3.1580    7.6000   38.0480 N.3    99  GLY99      -0.1210
      2  CA        -4.5410    7.8810   38.5000 C.3    99  GLY99       0.1956
      3  C         -4.6190    9.2520   39.1890 C.2    99  GLY99       0.2611
      4  O         -5.4910   10.0830   38.8970 O.2    99  GLY99      -0.2717
      5  N         -3.6690    9.5070   40.0950 N.am  100  GLU100     -0.1979
      6  CA        -3.6400   10.7680   40.8230 C.3   100  GLU100      0.1602
      7  C         -3.4420   11.9510   39.8360 C.2   100  GLU100      0.2287
      8  O         -4.1130   12.9690   39.8990 O.2   100  GLU100     -0.2864
      9  CB        -2.5220   10.7170   41.8660 C.3   100  GLU100      0.0415
     10  CG        -2.8720    9.6900   42.9510 C.3   100  GLU100      0.1163
     11  CD        -1.7440    9.3460   43.9260 C.2   100  GLU100      0.3649
     12  OE1       -0.5950    9.7500   43.6910 O.co2 100  GLU100     -0.2457
     13  OE2       -2.0450    8.6230   44.9120 O.co2 100  GLU100     -0.2457
     14  N         -6.4870   12.9790   37.7130 N.3   103  ASP103     -0.1239
     15  CA        -7.3620   13.9250   38.4360 C.3   103  ASP103      0.1674
     16  C         -6.8240   15.3570   38.3670 C.2   103  ASP103      0.2266
     17  O         -7.5870   16.2880   38.1460 O.2   103  ASP103     -0.2867
     18  CB        -7.5260   13.5100   39.9020 C.3   103  ASP103      0.1410
     19  CG        -8.4020   12.2570   40.0880 C.2   103  ASP103      0.3668
     20  OD1       -9.1380   11.8390   39.1500 O.co2 103  ASP103     -0.2456
     21  OD2       -8.3530   11.6740   41.2020 O.co2 103  ASP103     -0.2456
     22  N         -7.2360   16.8630   34.9520 N.3   106  ARG106     -0.1231
     23  CA        -8.5850   17.3430   34.6910 C.3   106  ARG106      0.1694
     24  C         -8.8760   18.6730   35.3700 C.2   106  ARG106      0.2591
     25  O         -9.5230   19.5520   34.7810 O.2   106  ARG106     -0.2718
     26  CB        -9.6230   16.3110   35.1420 C.3   106  ARG106      0.0321
     27  CG       -10.9450   16.5470   34.4620 C.3   106  ARG106      0.0489
     28  CD       -10.7110   16.3750   32.9590 C.3   106  ARG106      0.2205
     29  NE       -11.7030   17.0450   32.1230 N.pl3 106  ARG106     -0.0865
     30  CZ       -11.6390   17.0880   30.7940 C.cat 106  ARG106      0.5346
     31  NH1      -10.6250   16.5080   30.1590 N.pl3 106  ARG106      0.1354
     32  NH2      -12.5820   17.7150   30.0970 N.pl3 106  ARG106      0.1354
     33  N         -8.4190   18.8130   36.6100 N.am  107  GLU107     -0.1979
     34  CA        -8.5950   20.0620   37.3720 C.3   107  GLU107      0.1602
     35  C         -7.9930   21.2580   36.6320 C.2   107  GLU107      0.2287
     36  O         -8.6210   22.3240   36.4930 O.2   107  GLU107     -0.2864
     37  CB        -7.9430   19.9400   38.7570 C.3   107  GLU107      0.0415
     38  CG        -8.5950   18.9040   39.6850 C.3   107  GLU107      0.1163
     39  CD        -9.6920   19.4810   40.5550 C.2   107  GLU107      0.3649
     40  OE1      -10.0680   20.6540   40.3570 O.co2 107  GLU107     -0.2457
     41  OE2      -10.1770   18.7460   41.4450 O.co2 107  GLU107     -0.2457
     42  N        -10.2060   28.3260   44.2280 N.3   125  GLU125     -0.1245
     43  CA       -10.8300   27.0670   44.6100 C.3   125  GLU125      0.1567
     44  C         -9.8080   25.9200   44.5640 C.2   125  GLU125      0.2260
     45  O         -9.6800   25.1180   45.5020 O.2   125  GLU125     -0.2867
     46  CB       -12.0150   26.7770   43.6740 C.3   125  GLU125      0.0388
     47  CG       -12.8310   25.5440   44.0550 C.3   125  GLU125      0.1160
     48  CD       -13.9930   25.2180   43.0840 C.2   125  GLU125      0.3649
     49  OE1      -14.8450   24.3810   43.4690 O.co2 125  GLU125     -0.2457
     50  OE2      -14.0620   25.7620   41.9440 O.co2 125  GLU125     -0.2457
     51  N         -8.5420   23.7710   47.9480 N.3   129  ASN129     -0.1225
     52  CA        -9.3310   22.5580   48.1590 C.3   129  ASN129      0.1785
     53  C         -8.7320   21.3310   47.4560 C.2   129  ASN129      0.2597
     54  O         -7.8790   20.6520   48.0090 O.2   129  ASN129     -0.2718
     55  CB       -10.7920   22.8270   47.7410 C.3   129  ASN129      0.1169
     56  CG       -11.7860   21.7890   48.2820 C.2   129  ASN129      0.2627
     57  OD1      -11.4080   20.7920   48.9050 O.2   129  ASN129     -0.2716
     58  ND2      -13.0870   22.0360   48.0360 N.am  129  ASN129     -0.0877
     59  N         -9.1430   21.0840   46.2110 N.am  130  ASN130     -0.1974
     60  CA        -8.6810   19.8870   45.5040 C.3   130  ASN130      0.1688
     61  C         -7.2010   19.8520   45.1540 C.2   130  ASN130      0.2292
     62  O         -6.6000   18.7800   45.1190 O.2   130  ASN130     -0.2864
     63  CB        -9.5140   19.6750   44.2450 C.3   130  ASN130      0.1181
     64  CG       -10.9450   19.2280   44.5660 C.2   130  ASN130      0.2629
     65  OD1      -11.2790   18.9280   45.7250 O.2   130  ASN130     -0.2716
     66  ND2      -11.7950   19.1920   43.5430 N.am  130  ASN130     -0.0877
     67  N         -5.1250   18.5820   48.0980 N.3   133  THR133     -0.1203
     68  CA        -5.4510   17.1930   48.3720 C.3   133  THR133      0.1994
     69  C         -4.7550   16.2840   47.3650 C.2   133  THR133      0.2617
     70  O         -4.1280   15.3030   47.7470 O.2   133  THR133     -0.2717
     71  CB        -6.9540   16.9230   48.3200 C.3   133  THR133      0.1784
     72  OG1       -7.4290   17.2070   47.0030 O.3   133  THR133     -0.2211
     73  CG2       -7.6700   17.8000   49.3270 C.3   133  THR133      0.0376
     74  N         -4.8470   16.6360   46.0840 N.am  134  LEU134     -0.1979
     75  CA        -4.2410   15.8330   45.0250 C.3   134  LEU134      0.1596
     76  C         -2.7250   15.8570   45.0970 C.2   134  LEU134      0.2287
     77  O         -2.0410   14.7950   44.9680 O.2   134  LEU134     -0.2864
     78  CB        -4.7250   16.3570   43.6560 C.3   134  LEU134      0.0297
     79  CG        -6.2130   16.0500   43.4050 C.3   134  LEU134      0.0022
     80  CD1       -6.7060   16.7430   42.1400 C.3   134  LEU134      0.0001
     81  CD2       -6.3960   14.5360   43.3570 C.3   134  LEU134      0.0001
     82  N         -1.2110   13.7850   47.8380 N.3   137  LEU137     -0.1245
     83  CA        -1.1740   12.3920   47.4150 C.3   137  LEU137      0.1561
     84  C          0.0040   12.1490   46.5040 C.2   137  LEU137      0.2260
     85  O          0.7590   11.2110   46.6990 O.2   137  LEU137     -0.2867
     86  CB        -2.4550   12.0420   46.6650 C.3   137  LEU137      0.0270
     87  CG        -3.6790   11.6910   47.5130 C.3   137  LEU137      0.0019
     88  CD1       -4.9070   11.7210   46.6180 C.3   137  LEU137      0.0001
     89  CD2       -3.5190   10.2790   48.1340 C.3   137  LEU137      0.0001
@<TRIPOS>BOND
     1    32    30    1
     2    31    30    1
     3    30    29    2
     4    29    28    1
     5    28    27    1
     6    27    26    1
     7    23    22    1
     8    23    26    1
     9    23    24    1
    10    25    24    2
    11    24    33   am
    12    36    35    2
    13    33    34    1
    14    35    34    1
    15    34    37    1
    16    14    15    1
    17     1     2    1
    18    17    16    2
    19    16    15    1
    20    15    18    1
    21     2     3    1
    22    37    38    1
    23     4     3    2
    24    20    19   ar
    25     3     5   am
    26    38    39    1
    27     7     8    2
    28     7     6    1
    29    18    19    1
    30    19    21   ar
    31     5     6    1
    32    40    39   ar
    33    39    41   ar
    34     6     9    1
    35     9    10    1
    36    50    48   ar
    37    80    79    1
    38    10    11    1
    39    48    49   ar
    40    48    47    1
    41    81    79    1
    42    79    78    1
    43    66    64   am
    44    78    75    1
    45    46    47    1
    46    46    43    1
    47    12    11   ar
    48    11    13   ar
    49    42    43    1
    50    63    64    1
    51    63    60    1
    52    44    43    1
    53    44    45    2
    54    64    65    2
    55    77    76    2
    56    75    76    1
    57    75    74    1
    58    62    61    2
    59    61    60    1
    60    60    59    1
    61    74    69   am
    62    59    53   am
    63    84    85    2
    64    84    83    1
    65    88    87    1
    66    86    83    1
    67    86    87    1
    68    72    71    1
    69    69    70    2
    70    69    68    1
    71    83    82    1
    72    53    54    2
    73    53    52    1
    74    87    89    1
    75    55    52    1
    76    55    56    1
    77    51    52    1
    78    58    56   am
    79    67    68    1
    80    56    57    2
    81    71    68    1
    82    71    73    1
