@<TRIPOS>MOLECULE
tmp/2wduA01.pdb
 113 112 0 0 0
SMALL
GASTEIGER

@<TRIPOS>ATOM
      1  N         -1.9650   14.9660   16.3030 N.3     9  TYR9       -0.1227
      2  CA        -2.6070   15.8590   17.3100 C.3     9  TYR9        0.1736
      3  C         -2.7270   17.3140   16.8870 C.2     9  TYR9        0.2595
      4  O         -2.1880   17.7280   15.8580 O.2     9  TYR9       -0.2718
      5  CB        -1.8250   15.7900   18.6450 C.3     9  TYR9        0.0548
      6  CG        -2.6480   16.1590   19.8670 C.ar    9  TYR9       -0.0200
      7  CD1       -3.8040   15.4250   20.2160 C.ar    9  TYR9       -0.0009
      8  CD2       -2.2550   17.2100   20.6890 C.ar    9  TYR9       -0.0009
      9  CE1       -4.5590   15.7570   21.3610 C.ar    9  TYR9        0.0417
     10  CE2       -2.9880   17.5440   21.8320 C.ar    9  TYR9        0.0417
     11  CZ        -4.1540   16.8180   22.1440 C.ar    9  TYR9        0.1957
     12  OH        -4.8900   17.1310   23.2840 O.3     9  TYR9       -0.2866
     13  N         -3.4200   18.1070   17.7030 N.am   10  PHE10      -0.1976
     14  CA        -3.3570   19.5480   17.5660 C.3    10  PHE10       0.1639
     15  C         -1.9400   20.0900   17.9290 C.2    10  PHE10       0.2290
     16  O         -1.0470   19.3150   18.3610 O.2    10  PHE10      -0.2864
     17  CB        -4.4030   20.2000   18.4670 C.3    10  PHE10       0.0560
     18  CG        -5.8280   19.8540   18.1020 C.ar   10  PHE10      -0.0200
     19  CD1       -6.5220   20.6580   17.1850 C.ar   10  PHE10      -0.0042
     20  CD2       -6.4680   18.7290   18.6350 C.ar   10  PHE10      -0.0042
     21  CE1       -7.8460   20.3660   16.8220 C.ar   10  PHE10      -0.0003
     22  CE2       -7.7980   18.4140   18.2610 C.ar   10  PHE10      -0.0003
     23  CZ        -8.4820   19.2570   17.3650 C.ar   10  PHE10      -0.0000
     24  N         -3.2180   16.0170   25.6020 N.3    15  ARG15      -0.1245
     25  CA        -3.2110   14.5630   25.7670 C.3    15  ARG15       0.1563
     26  C         -2.0690   13.8380   25.0230 C.2    15  ARG15       0.2260
     27  O         -1.7470   12.7000   25.3520 O.2    15  ARG15      -0.2867
     28  CB        -4.5740   13.9360   25.3630 C.3    15  ARG15       0.0307
     29  CG        -5.7980   14.4820   26.1440 C.3    15  ARG15       0.0489
     30  CD        -5.6550   14.2430   27.6570 C.3    15  ARG15       0.2205
     31  NE        -5.7440   12.8310   28.0060 N.pl3  15  ARG15      -0.0865
     32  CZ        -5.5530   12.3080   29.2240 C.cat  15  ARG15       0.5346
     33  NH1       -5.6600   10.9940   29.3850 N.pl3  15  ARG15       0.1354
     34  NH2       -5.2550   13.0810   30.2770 N.pl3  15  ARG15       0.1354
     35  N         -8.1150   21.0770   11.0130 N.3    40  TRP40      -0.1241
     36  CA        -8.8270   19.9780   11.6870 C.3    40  TRP40       0.1605
     37  C        -10.1710   19.5620   11.0440 C.2    40  TRP40       0.2264
     38  O        -10.4290   18.3620   10.8980 O.2    40  TRP40      -0.2867
     39  CB        -8.9700   20.2820   13.1880 C.3    40  TRP40       0.0550
     40  CG        -9.8120   19.3140   13.9790 C.ar   40  TRP40       0.0003
     41  CD1      -10.9410   19.6170   14.7090 C.ar   40  TRP40       0.0946
     42  CD2       -9.5900   17.9040   14.1470 C.ar   40  TRP40       0.0152
     43  NE1      -11.4230   18.4760   15.3160 N.ar   40  TRP40      -0.2442
     44  CE2      -10.6250   17.4110   14.9740 C.ar   40  TRP40       0.0810
     45  CE3       -8.6260   16.9910   13.6460 C.ar   40  TRP40       0.0012
     46  CZ2      -10.7130   16.0500   15.3390 C.ar   40  TRP40       0.0191
     47  CZ3       -8.7060   15.6400   14.0010 C.ar   40  TRP40       0.0001
     48  CH2       -9.7590   15.1730   14.8330 C.ar   40  TRP40       0.0015
     49  N        -10.6370   15.5270   10.6570 N.3    44  LYS44      -0.1245
     50  CA       -11.6090   14.8550   11.5250 C.3    44  LYS44       0.1561
     51  C        -12.4370   13.7180   10.8870 C.2    44  LYS44       0.2260
     52  O        -12.5000   12.6070   11.4310 O.2    44  LYS44      -0.2867
     53  CB       -12.5550   15.8960   12.1550 C.3    44  LYS44       0.0271
     54  CG       -13.5310   15.3280   13.1430 C.3    44  LYS44       0.0035
     55  CD       -14.2550   16.4540   13.9220 C.3    44  LYS44       0.0206
     56  CE       -15.3210   15.8870   14.8340 C.3    44  LYS44       0.1093
     57  NZ       -14.7680   15.3430   16.1170 N.3    44  LYS44      -0.1314
     58  N        -13.0720   10.1680   15.2090 N.3    50  GLY50      -0.1210
     59  CA       -13.0760   11.6210   15.0160 C.3    50  GLY50       0.1956
     60  C        -12.3830   12.4270   16.1080 C.2    50  GLY50       0.2612
     61  O        -12.6710   13.6040   16.2840 O.2    50  GLY50      -0.2717
     62  N        -11.4640   11.7760   16.8330 N.am   51  ARG51      -0.1965
     63  CA       -10.7260   12.4560   17.8760 C.3    51  ARG51       0.1729
     64  C         -9.2220   12.1260   17.8080 C.2    51  ARG51       0.2616
     65  O         -8.8110   11.1220   17.2200 O.2    51  ARG51      -0.2715
     66  CB       -11.2930   12.1080   19.2650 C.3    51  ARG51       0.0348
     67  CG       -12.7240   12.6700   19.4700 C.3    51  ARG51       0.0492
     68  CD       -12.8760   13.5690   20.7120 C.3    51  ARG51       0.2205
     69  NE       -12.8350   12.8180   21.9500 N.pl3  51  ARG51      -0.0865
     70  CZ       -13.4690   13.1500   23.0760 C.cat  51  ARG51       0.5346
     71  NH1      -13.3380   12.3730   24.1320 N.pl3  51  ARG51       0.1354
     72  NH2      -14.2360   14.2370   23.1480 N.pl3  51  ARG51       0.1354
     73  N         -8.4260   13.0010   18.4300 N.am   52  VAL52      -0.1964
     74  CA        -6.9810   12.7800   18.5480 C.3    52  VAL52       0.1712
     75  C         -6.5970   12.8020   20.0580 C.2    52  VAL52       0.2458
     76  O         -7.3420   13.3760   20.8650 O.2    52  VAL52      -0.2730
     77  CB        -6.2060   13.8420   17.6860 C.3    52  VAL52       0.0289
     78  CG1       -6.3400   13.4640   16.1820 C.3    52  VAL52       0.0023
     79  CG2       -6.7190   15.2650   17.9210 C.3    52  VAL52       0.0023
     80  N         -5.4250   12.2410   20.4340 N.am   53  PRO53      -0.2727
     81  CA        -4.3480   11.6650   19.6250 C.3    53  PRO53       0.1402
     82  C         -4.7010   10.3900   18.9410 C.2    53  PRO53       0.2269
     83  O         -5.5380    9.6030   19.4260 O.2    53  PRO53      -0.2865
     84  CB        -3.2320   11.3670   20.6440 C.3    53  PRO53       0.0296
     85  CG        -3.6050   12.2010   21.8840 C.3    53  PRO53       0.0237
     86  CD        -5.0980   12.2090   21.8780 C.3    53  PRO53       0.0939
     87  N         -6.7890    6.6180   21.9430 N.3    69  GLU69      -0.1231
     88  CA        -6.8090    6.8520   23.3940 C.3    69  GLU69       0.1699
     89  C         -5.4080    7.0350   23.9740 C.2    69  GLU69       0.2592
     90  O         -4.6810    6.0450   24.1430 O.2    69  GLU69      -0.2718
     91  CB        -7.5450    5.7300   24.0820 C.3    69  GLU69       0.0402
     92  CG        -7.8540    6.0200   25.5470 C.3    69  GLU69       0.1161
     93  CD        -8.8030    7.1950   25.7450 C.2    69  GLU69       0.3649
     94  OE1       -9.6850    7.4400   24.8960 O.co2  69  GLU69      -0.2457
     95  OE2       -8.6310    7.8910   26.7580 O.co2  69  GLU69      -0.2457
     96  N         -5.1060    8.2840   24.3190 N.am   70  SER70      -0.1952
     97  CA        -3.7110    8.7500   24.5890 C.3    70  SER70       0.1924
     98  C         -2.9800    7.8120   25.5790 C.2    70  SER70       0.2314
     99  O         -1.8620    7.3580   25.2960 O.2    70  SER70      -0.2863
    100  CB        -3.6800   10.1950   25.1160 C.3    70  SER70       0.2116
    101  OG        -4.2660   10.3210   26.3940 O.3    70  SER70      -0.2180
    102  N         -6.9400   21.4330   33.3640 N.3   109  TYR109     -0.1241
    103  CA        -7.5270   21.6310   32.0440 C.3   109  TYR109      0.1605
    104  C         -8.8340   22.4310   32.1390 C.2   109  TYR109      0.2264
    105  O         -9.0890   23.3310   31.3180 O.2   109  TYR109     -0.2867
    106  CB        -7.7460   20.3110   31.3390 C.3   109  TYR109      0.0534
    107  CG        -8.4750   20.4570   30.0340 C.ar  109  TYR109     -0.0201
    108  CD1       -7.8130   20.9340   28.9040 C.ar  109  TYR109     -0.0009
    109  CD2       -9.8220   20.1500   29.9370 C.ar  109  TYR109     -0.0009
    110  CE1       -8.4830   21.0750   27.6850 C.ar  109  TYR109      0.0417
    111  CE2      -10.5080   20.2970   28.7240 C.ar  109  TYR109      0.0417
    112  CZ        -9.8300   20.7520   27.6120 C.ar  109  TYR109      0.1957
    113  OH       -10.5070   20.9030   26.4140 O.3   109  TYR109     -0.2866
@<TRIPOS>BOND
     1    49    50    1
     2    51    52    2
     3    51    50    1
     4    38    37    2
     5    35    36    1
     6    37    36    1
     7    50    53    1
     8    36    39    1
     9    53    54    1
    10    54    55    1
    11    39    40    1
    12    45    47   ar
    13    45    42   ar
    14    55    56    1
    15    40    42   ar
    16    40    41   ar
    17    47    48   ar
    18    42    44   ar
    19    41    43   ar
    20    48    46   ar
    21    56    57    1
    22    44    43   ar
    23    44    46   ar
    24    59    58    1
    25    59    60    1
    26     4     3    2
    27    60    61    2
    28    60    62   am
    29    78    77    1
    30     1     2    1
    31    21    19   ar
    32    21    23   ar
    33    62    63    1
    34     3     2    1
    35     3    13   am
    36    19    18   ar
    37    65    64    2
    38     2     5    1
    39    23    22   ar
    40    14    13    1
    41    14    15    1
    42    14    17    1
    43    77    79    1
    44    77    74    1
    45    64    63    1
    46    64    73   am
    47    63    66    1
    48    15    16    2
    49    18    17    1
    50    18    20   ar
    51    22    20   ar
    52    73    74    1
    53    74    75    1
    54     5     6    1
    55    82    83    2
    56    82    81    1
    57    66    67    1
    58    67    68    1
    59    81    80    1
    60    81    84    1
    61     6     7   ar
    62     6     8   ar
    63    75    80   am
    64    75    76    2
    65     7     9   ar
    66    80    86    1
    67    84    85    1
    68     8    10   ar
    69    68    69    1
    70     9    11   ar
    71    10    11   ar
    72    86    85    1
    73    87    88    1
    74    69    70    2
    75    11    12    1
    76    70    72    1
    77    70    71    1
    78    88    89    1
    79    88    91    1
    80    89    90    2
    81    89    96   am
    82    91    92    1
    83    96    97    1
    84    97   100    1
    85    97    98    1
    86    94    93   ar
    87    26    27    2
    88    26    25    1
    89   100   101    1
    90    99    98    2
    91    28    25    1
    92    28    29    1
    93    92    93    1
    94    24    25    1
    95    93    95   ar
    96    29    30    1
    97   113   112    1
    98   112   110   ar
    99   112   111   ar
   100    30    31    1
   101   110   108   ar
   102    31    32    2
   103   111   109   ar
   104   108   107   ar
   105    32    33    1
   106    32    34    1
   107   109   107   ar
   108   107   106    1
   109   105   104    2
   110   106   103    1
   111   103   104    1
   112   103   102    1
