@<TRIPOS>MOLECULE
tmp/2wdzD02.pdb
 121 114 0 0 0
SMALL
GASTEIGER

@<TRIPOS>ATOM
      1  N         15.4000   41.9890   47.1120 N.3    96  ALA96      -0.1245
      2  CA        15.9230   43.1420   47.8600 C.3    96  ALA96       0.1562
      3  C         17.1950   43.6880   47.2010 C.2    96  ALA96       0.2260
      4  O         18.0390   42.9250   46.6930 O.2    96  ALA96      -0.2867
      5  CB        16.1780   42.7940   49.3600 C.3    96  ALA96       0.0290
      6  N         19.9990   46.8650   48.0140 N.3    98  LEU98      -0.1245
      7  CA        20.5110   48.0240   48.7180 C.3    98  LEU98       0.1561
      8  C         20.6550   49.2300   47.7610 C.2    98  LEU98       0.2260
      9  O         20.9190   49.0920   46.5700 O.2    98  LEU98      -0.2867
     10  CB        21.8060   47.6850   49.4750 C.3    98  LEU98       0.0270
     11  CG        21.6300   46.5580   50.5310 C.3    98  LEU98       0.0019
     12  CD1       22.9500   46.3040   51.2640 C.3    98  LEU98       0.0001
     13  CD2       20.5020   46.8580   51.5320 C.3    98  LEU98       0.0001
     14  N          7.0260   41.4590   55.6890 N.3   144  SER144     -0.1202
     15  CA         8.3710   41.6870   56.2720 C.3   144  SER144      0.2020
     16  C          8.2030   42.6750   57.4210 C.2   144  SER144      0.2619
     17  O          7.3120   43.5460   57.3640 O.2   144  SER144     -0.2717
     18  CB         9.3820   42.2410   55.2280 C.3   144  SER144      0.2103
     19  OG        10.6480   42.6020   55.7980 O.3   144  SER144     -0.2182
     20  N          9.0260   42.5450   58.4620 N.am  145  MET145     -0.1965
     21  CA         9.1550   43.6620   59.4200 C.3   145  MET145      0.1736
     22  C          9.3550   45.0050   58.6890 C.2   145  MET145      0.2617
     23  O          8.8710   46.0120   59.1700 O.2   145  MET145     -0.2715
     24  CB        10.2860   43.4430   60.4130 C.3   145  MET145      0.0427
     25  CG        11.6650   43.2490   59.7910 C.3   145  MET145      0.0599
     26  SD        12.8290   43.0560   61.1420 S.3   145  MET145     -0.1393
     27  CE        14.3650   43.0030   60.2750 C.3   145  MET145      0.0692
     28  N         10.0850   44.9900   57.5560 N.am  146  SER146     -0.1950
     29  CA        10.2870   46.1690   56.6650 C.3   146  SER146      0.1924
     30  C          8.9640   46.7830   56.1160 C.2   146  SER146      0.2314
     31  O          8.9950   47.8740   55.5340 O.2   146  SER146     -0.2863
     32  CB        11.2010   45.8010   55.4740 C.3   146  SER146      0.2116
     33  OG        12.3840   45.0980   55.8810 O.3   146  SER146     -0.2180
     34  N         14.5290   49.1690   58.2320 N.3   151  ASN151     -0.1240
     35  CA        15.7860   48.4610   58.5170 C.3   151  ASN151      0.1653
     36  C         16.9050   49.4320   58.8150 C.2   151  ASN151      0.2266
     37  O         16.8500   50.6280   58.4200 O.2   151  ASN151     -0.2867
     38  CB        16.2390   47.6280   57.3060 C.3   151  ASN151      0.1155
     39  CG        15.4950   46.3400   57.1770 C.2   151  ASN151      0.2627
     40  OD1       16.0230   45.2620   57.4940 O.2   151  ASN151     -0.2716
     41  ND2       14.2510   46.4280   56.7170 N.am  151  ASN151     -0.0877
     42  N         21.6990   49.6290   56.7940 N.3   154  GLN154     -0.1245
     43  CA        21.6130   49.6500   55.3300 C.3   154  GLN154      0.1566
     44  C         20.3710   50.3780   54.7720 C.2   154  GLN154      0.2260
     45  O         19.3280   50.4770   55.4660 O.2   154  GLN154     -0.2867
     46  CB        21.6770   48.1990   54.8140 C.3   154  GLN154      0.0367
     47  CG        20.3950   47.3330   55.0350 C.3   154  GLN154      0.0905
     48  CD        20.2160   46.7250   56.4360 C.2   154  GLN154      0.2608
     49  OE1       19.2730   45.9650   56.6740 O.2   154  GLN154     -0.2717
     50  NE2       21.0930   47.0630   57.3600 N.am  154  GLN154     -0.0878
     51  N         17.3880   50.6740   51.7100 N.3   156  ALA156     -0.1245
     52  CA        16.6850   50.0400   50.6230 C.3   156  ALA156      0.1562
     53  C         15.2440   50.5600   50.6740 C.2   156  ALA156      0.2260
     54  O         14.3450   49.8020   50.9940 O.2   156  ALA156     -0.2867
     55  CB        16.7310   48.5540   50.8100 C.3   156  ALA156      0.0290
     56  N         12.4600   48.6220   49.0560 N.3   159  TYR159     -0.1227
     57  CA        12.1050   47.4540   49.8030 C.3   159  TYR159      0.1736
     58  C         11.0810   47.7790   50.9090 C.2   159  TYR159      0.2595
     59  O         10.1180   47.0410   51.0640 O.2   159  TYR159     -0.2718
     60  CB        13.3280   46.7280   50.3750 C.3   159  TYR159      0.0548
     61  CG        13.0020   45.3420   50.9300 C.ar  159  TYR159     -0.0200
     62  CD1       12.9970   44.2300   50.0900 C.ar  159  TYR159     -0.0009
     63  CD2       12.7200   45.1470   52.2940 C.ar  159  TYR159     -0.0009
     64  CE1       12.6910   42.9450   50.5580 C.ar  159  TYR159      0.0417
     65  CE2       12.4130   43.8330   52.8000 C.ar  159  TYR159      0.0417
     66  CZ        12.4160   42.7330   51.8990 C.ar  159  TYR159      0.1957
     67  OH        12.1130   41.4400   52.3100 O.3   159  TYR159     -0.2866
     68  N         11.2830   48.8550   51.6620 N.am  160  MET160     -0.1979
     69  CA        10.3180   49.2440   52.7080 C.3   160  MET160      0.1605
     70  C          8.9680   49.5700   52.0910 C.2   160  MET160      0.2287
     71  O          7.9000   49.1630   52.5930 O.2   160  MET160     -0.2864
     72  CB        10.8000   50.4350   53.5700 C.3   160  MET160      0.0413
     73  CG        12.2600   50.3940   54.0120 C.3   160  MET160      0.0598
     74  SD        12.7100   48.9290   54.9160 S.3   160  MET160     -0.1393
     75  CE        14.3560   48.6850   54.2390 C.3   160  MET160      0.0692
     76  N          8.4040   38.4180   58.4900 N.3   189  PRO189     -0.2102
     77  CA         9.6170   37.9100   59.1090 C.3   189  PRO189      0.1504
     78  C         10.5980   39.0200   59.4810 C.2   189  PRO189      0.2576
     79  O         10.6790   40.0480   58.7960 O.2   189  PRO189     -0.2718
     80  CB        10.2990   37.1210   57.9640 C.3   189  PRO189      0.0282
     81  CG         9.2920   36.9040   56.9660 C.3   189  PRO189      0.0208
     82  CD         8.2640   37.9550   57.0880 C.3   189  PRO189      0.0893
     83  N         11.3890   38.7570   60.5170 N.am  190  GLY190     -0.1943
     84  CA        12.6100   39.5510   60.7680 C.3   190  GLY190      0.2014
     85  C         13.7210   38.9820   59.9000 C.2   190  GLY190      0.2638
     86  O         13.4360   38.3420   58.8840 O.2   190  GLY190     -0.2714
     87  N         14.9750   39.1890   60.3000 N.am  191  TYR191     -0.1973
     88  CA        16.1000   38.5810   59.5750 C.3   191  TYR191      0.1639
     89  C         16.0940   37.0590   59.5810 C.2   191  TYR191      0.2290
     90  O         15.9600   36.4090   60.6270 O.2   191  TYR191     -0.2864
     91  CB        17.4620   39.1220   60.0440 C.3   191  TYR191      0.0560
     92  CG        17.5830   40.6000   59.8500 C.ar  191  TYR191     -0.0198
     93  CD1       17.6490   41.1470   58.5550 C.ar  191  TYR191     -0.0009
     94  CD2       17.6050   41.4650   60.9580 C.ar  191  TYR191     -0.0009
     95  CE1       17.7550   42.5160   58.3510 C.ar  191  TYR191      0.0417
     96  CE2       17.7020   42.8390   60.7750 C.ar  191  TYR191      0.0417
     97  CZ        17.7730   43.3590   59.4690 C.ar  191  TYR191      0.1957
     98  OH        17.8540   44.7210   59.3000 O.3   191  TYR191     -0.2866
     99  N         18.9050   35.1760   50.1830 N.3   196  MET196     -0.1230
    100  CA        18.6750   36.6210   49.9760 C.3   196  MET196      0.1702
    101  C         19.5650   37.5290   50.8580 C.2   196  MET196      0.2593
    102  O         19.9350   38.6550   50.4550 O.2   196  MET196     -0.2718
    103  CB        17.1940   36.9540   50.2330 C.3   196  MET196      0.0401
    104  CG        16.8350   38.4640   50.2600 C.3   196  MET196      0.0596
    105  SD        15.0520   38.8020   50.3790 S.3   196  MET196     -0.1393
    106  CE        14.4780   38.0740   48.8350 C.3   196  MET196      0.0692
    107  N         19.8940   37.0210   52.0500 N.am  197  THR197     -0.1953
    108  CA        20.5960   37.7750   53.0970 C.3   197  THR197      0.1897
    109  C         22.0440   37.3190   53.3560 C.2   197  THR197      0.2313
    110  O         22.6860   37.8200   54.2750 O.2   197  THR197     -0.2863
    111  CB        19.8040   37.6920   54.4190 C.3   197  THR197      0.1794
    112  OG1       19.3870   36.3390   54.6340 O.3   197  THR197     -0.2208
    113  CG2       18.5730   38.5940   54.3680 C.3   197  THR197      0.0378
    114  N         25.0050   39.8590   52.7540 N.3   200  MET200     -0.1245
    115  CA        24.8430   40.8480   53.8330 C.3   200  MET200      0.1570
    116  C         25.2830   40.3440   55.2160 C.2   200  MET200      0.2261
    117  O         25.9260   41.0740   55.9670 O.2   200  MET200     -0.2867
    118  CB        23.3940   41.3470   53.8970 C.3   200  MET200      0.0387
    119  CG        22.9290   42.1530   52.6900 C.3   200  MET200      0.0595
    120  SD        21.2500   42.8090   52.8880 S.3   200  MET200     -0.1393
    121  CE        20.2800   41.3110   52.9940 C.3   200  MET200      0.0692
@<TRIPOS>BOND
     1     9     8    2
     2     4     3    2
     3     1     2    1
     4     3     2    1
     5     8     7    1
     6     2     5    1
     7     6     7    1
     8     7    10    1
     9   106   105    1
    10    56    57    1
    11    10    11    1
    12    57    60    1
    13    57    58    1
    14   100    99    1
    15   100   103    1
    16   100   101    1
    17    62    64   ar
    18    62    61   ar
    19   103   104    1
    20   104   105    1
    21    60    61    1
    22   102   101    2
    23    11    12    1
    24    11    13    1
    25    64    66   ar
    26    52    53    1
    27    52    55    1
    28    52    51    1
    29    53    54    2
    30   101   107   am
    31    58    59    2
    32    58    68   am
    33    61    63   ar
    34    68    69    1
    35    66    67    1
    36    66    65   ar
    37   107   108    1
    38    70    71    2
    39    70    69    1
    40    63    65   ar
    41   119   120    1
    42   119   118    1
    43    69    72    1
    44   114   115    1
    45   120   121    1
    46   108   109    1
    47   108   111    1
    48   109   110    2
    49    72    73    1
    50   115   118    1
    51   115   116    1
    52    73    74    1
    53    75    74    1
    54   113   111    1
    55   111   112    1
    56    44    43    1
    57    44    45    2
    58    46    47    1
    59    46    43    1
    60    47    48    1
    61   116   117    2
    62    18    19    1
    63    18    15    1
    64    43    42    1
    65    32    33    1
    66    32    29    1
    67    31    30    2
    68    14    15    1
    69    30    29    1
    70    15    16    1
    71    48    49    2
    72    48    50   am
    73    29    28    1
    74    41    39   am
    75    81    82    1
    76    81    80    1
    77    82    76    1
    78    39    38    1
    79    39    40    2
    80    38    35    1
    81    17    16    2
    82    16    20   am
    83    28    22   am
    84    80    77    1
    85    34    35    1
    86    95    93   ar
    87    95    97   ar
    88    37    36    2
    89    20    21    1
    90    76    77    1
    91    35    36    1
    92    93    92   ar
    93    22    23    2
    94    22    21    1
    95    79    78    2
    96    86    85    2
    97    77    78    1
    98    98    97    1
    99    21    24    1
   100    97    96   ar
   101    78    83   am
   102    88    89    1
   103    88    91    1
   104    88    87    1
   105    89    90    2
   106    25    24    1
   107    25    26    1
   108    92    91    1
   109    92    94   ar
   110    85    87   am
   111    85    84    1
   112    27    26    1
   113    83    84    1
   114    96    94   ar
