@<TRIPOS>MOLECULE
tmp/2we1A00.pdb
 136 131 0 0 0
SMALL
GASTEIGER

@<TRIPOS>ATOM
      1  N          4.9420   -0.2260   -4.6000 N.3    57  LEU57      -0.1245
      2  CA         5.8330    0.7200   -5.2590 C.3    57  LEU57       0.1561
      3  C          7.1080    0.7620   -4.4290 C.2    57  LEU57       0.2260
      4  O          7.0610    0.9430   -3.1790 O.2    57  LEU57      -0.2867
      5  CB         5.2070    2.1190   -5.2820 C.3    57  LEU57       0.0270
      6  CG         6.0470    3.3060   -5.7490 C.3    57  LEU57       0.0019
      7  CD1        6.1860    3.2650   -7.2510 C.3    57  LEU57       0.0001
      8  CD2        5.3630    4.6540   -5.3250 C.3    57  LEU57       0.0001
      9  N         11.0030    4.6850    1.0270 N.3    68  HIS68      -0.1241
     10  CA         9.7470    4.1270    1.5370 C.3    68  HIS68       0.1621
     11  C          9.1830    3.0560    0.5440 C.2    68  HIS68       0.2264
     12  O          9.2050    3.2520   -0.6570 O.2    68  HIS68      -0.2867
     13  CB         8.7330    5.2500    1.7240 C.3    68  HIS68       0.0745
     14  CG         7.4320    4.7750    2.2990 C.ar   68  HIS68       0.0817
     15  ND1        6.2330    4.8550    1.6230 N.ar   68  HIS68      -0.2268
     16  CD2        7.1680    4.1290    3.4530 C.ar   68  HIS68       0.1154
     17  CE1        5.2690    4.3240    2.3650 C.ar   68  HIS68       0.1986
     18  NE2        5.8120    3.8810    3.4840 N.ar   68  HIS68      -0.2212
     19  N          5.9340    1.6950   -0.8140 N.3    70  GLY70      -0.1210
     20  CA         4.5710    2.1860   -0.8210 C.3    70  GLY70       0.1956
     21  C          3.5320    1.1420   -1.1000 C.2    70  GLY70       0.2612
     22  O          3.6790    0.3740   -2.0460 O.2    70  GLY70      -0.2717
     23  N          2.5180    1.0650   -0.2300 N.am   71  ILE71      -0.1965
     24  CA         1.3470    0.1930   -0.4790 C.3    71  ILE71       0.1727
     25  C          0.2800    1.0640   -1.1580 C.2    71  ILE71       0.2616
     26  O         -0.1730    2.0800   -0.5910 O.2    71  ILE71      -0.2715
     27  CB         0.8000   -0.4490    0.8270 C.3    71  ILE71       0.0290
     28  CG1        1.8440   -1.4210    1.4500 C.3    71  ILE71       0.0022
     29  CG2       -0.5690   -1.2400    0.5620 C.3    71  ILE71       0.0023
     30  CD1        1.9390   -2.7950    0.7190 C.3    71  ILE71       0.0001
     31  N         -0.1160    0.6660   -2.3640 N.am   72  ILE72      -0.1963
     32  CA        -1.0270    1.4640   -3.1830 C.3    72  ILE72       0.1727
     33  C         -2.4380    0.8300   -3.1230 C.2    72  ILE72       0.2616
     34  O         -2.6480   -0.3110   -3.5360 O.2    72  ILE72      -0.2715
     35  CB        -0.5660    1.6020   -4.6630 C.3    72  ILE72       0.0290
     36  CG1        0.9430    1.9480   -4.8320 C.3    72  ILE72       0.0022
     37  CG2       -1.4190    2.6270   -5.3900 C.3    72  ILE72       0.0023
     38  CD1        1.4530    3.1110   -3.9970 C.3    72  ILE72       0.0001
     39  N         -3.3810    1.5710   -2.5710 N.am   73  ASP73      -0.1971
     40  CA        -4.7420    1.0760   -2.4170 C.3    73  ASP73       0.1709
     41  C         -5.5200    1.0390   -3.7060 C.2    73  ASP73       0.2293
     42  O         -5.3260    1.8960   -4.5420 O.2    73  ASP73      -0.2864
     43  CB        -5.4600    1.8950   -1.3820 C.3    73  ASP73       0.1436
     44  CG        -4.7310    1.8300   -0.0650 C.2    73  ASP73       0.3671
     45  OD1       -4.6070    0.7070    0.4800 O.co2  73  ASP73      -0.2456
     46  OD2       -4.2030    2.8590    0.3530 O.co2  73  ASP73      -0.2456
     47  N         -7.1720    4.1070   -5.3470 N.3    76  TYR76      -0.1241
     48  CA        -6.3250    5.3000   -5.4780 C.3    76  TYR76       0.1605
     49  C         -6.1500    5.6680   -6.9540 C.2    76  TYR76       0.2264
     50  O         -5.5330    4.9210   -7.7370 O.2    76  TYR76      -0.2867
     51  CB        -4.9750    5.0730   -4.7960 C.3    76  TYR76       0.0534
     52  CG        -4.0750    6.2940   -4.7770 C.ar   76  TYR76      -0.0201
     53  CD1       -4.1770    7.2450   -3.7440 C.ar   76  TYR76      -0.0009
     54  CD2       -3.0970    6.4710   -5.7630 C.ar   76  TYR76      -0.0009
     55  CE1       -3.3400    8.3660   -3.7000 C.ar   76  TYR76       0.0417
     56  CE2       -2.2590    7.5940   -5.7290 C.ar   76  TYR76       0.0417
     57  CZ        -2.3870    8.5230   -4.6980 C.ar   76  TYR76       0.1957
     58  OH        -1.5690    9.6020   -4.7110 O.3    76  TYR76      -0.2866
     59  N         -1.8330   10.6380   -8.3300 N.3    79  GLU79      -0.1231
     60  CA        -0.4760   10.4410   -8.8490 C.3    79  GLU79       0.1699
     61  C          0.3380    9.6040   -7.8440 C.2    79  GLU79       0.2592
     62  O          0.1420    9.7280   -6.6270 O.2    79  GLU79      -0.2718
     63  CB         0.1760   11.8160   -9.1020 C.3    79  GLU79       0.0402
     64  CG         1.5480   11.6990   -9.8410 C.3    79  GLU79       0.1161
     65  CD         2.2060   13.0500  -10.0790 C.2    79  GLU79       0.3649
     66  OE1        1.5440   14.0580   -9.8120 O.co2  79  GLU79      -0.2457
     67  OE2        3.3610   13.1140  -10.5540 O.co2  79  GLU79      -0.2457
     68  N          1.2460    8.7530   -8.3400 N.am   80  LEU80      -0.1966
     69  CA         2.1470    7.9870   -7.4700 C.3    80  LEU80       0.1728
     70  C          3.4060    8.7740   -7.1930 C.2    80  LEU80       0.2616
     71  O          3.9370    9.4190   -8.1010 O.2    80  LEU80      -0.2715
     72  CB         2.5170    6.6430   -8.1150 C.3    80  LEU80       0.0311
     73  CG         1.3090    5.7250   -8.3230 C.3    80  LEU80       0.0022
     74  CD1        1.6590    4.5130   -9.2000 C.3    80  LEU80       0.0001
     75  CD2        0.8070    5.2760   -6.9380 C.3    80  LEU80       0.0001
     76  N          3.8760    8.7160   -5.9470 N.am   81  ARG81      -0.1963
     77  CA         5.1030    9.4030   -5.5570 C.3    81  ARG81       0.1729
     78  C          6.0150    8.4480   -4.8530 C.2    81  ARG81       0.2616
     79  O          5.5330    7.5910   -4.1060 O.2    81  ARG81      -0.2715
     80  CB         4.8480   10.4880   -4.5310 C.3    81  ARG81       0.0348
     81  CG         3.9820   11.5530   -4.9640 C.3    81  ARG81       0.0492
     82  CD         3.9800   12.6280   -3.8760 C.3    81  ARG81       0.2205
     83  NE         3.1690   12.3550   -2.6840 N.pl3  81  ARG81      -0.0865
     84  CZ         3.0300   13.2370   -1.6860 C.cat  81  ARG81       0.5346
     85  NH1        3.6660   14.4210   -1.7460 N.pl3  81  ARG81       0.1354
     86  NH2        2.2810   12.9330   -0.6210 N.pl3  81  ARG81       0.1354
     87  N          7.3270    8.6340   -5.0440 N.am   82  LEU82      -0.1963
     88  CA         8.3300    7.8300   -4.3470 C.3    82  LEU82       0.1728
     89  C          8.9350    8.7510   -3.2930 C.2    82  LEU82       0.2616
     90  O          9.3200    9.8720   -3.5970 O.2    82  LEU82      -0.2715
     91  CB         9.4360    7.3660   -5.3160 C.3    82  LEU82       0.0311
     92  CG        10.3750    6.2970   -4.7640 C.3    82  LEU82       0.0022
     93  CD1        9.6160    4.9580   -4.5670 C.3    82  LEU82       0.0001
     94  CD2       11.5280    6.0760   -5.7620 C.3    82  LEU82       0.0001
     95  N          8.9930    8.2590   -2.0680 N.am   83  ILE83      -0.1977
     96  CA         9.4850    9.0280   -0.9320 C.3    83  ILE83       0.1596
     97  C         10.8600    8.4890   -0.5400 C.2    83  ILE83       0.2287
     98  O         11.0330    7.2650   -0.2350 O.2    83  ILE83      -0.2864
     99  CB         8.4990    8.9480    0.2640 C.3    83  ILE83       0.0276
    100  CG1        7.1380    9.4710   -0.1570 C.3    83  ILE83       0.0022
    101  CG2        9.0640    9.7640    1.4860 C.3    83  ILE83       0.0022
    102  CD1        6.0000    9.0090    0.7420 C.3    83  ILE83       0.0001
    103  N          5.3210    0.4850    6.2940 N.3   159  GLY159     -0.1210
    104  CA         5.1080    1.8310    6.7810 C.3   159  GLY159      0.1956
    105  C          3.9480    2.5160    6.0880 C.2   159  GLY159      0.2612
    106  O          3.4180    2.0190    5.0840 O.2   159  GLY159     -0.2717
    107  N          3.6200    3.7140    6.5610 N.am  160  ARG160     -0.1965
    108  CA         2.7230    4.6070    5.8500 C.3   160  ARG160      0.1729
    109  C          3.4200    5.8800    5.3830 C.2   160  ARG160      0.2617
    110  O          4.4660    6.2920    5.9390 O.2   160  ARG160     -0.2715
    111  CB         1.4810    4.9350    6.7150 C.3   160  ARG160      0.0348
    112  CG         0.5390    3.6880    6.8410 C.3   160  ARG160      0.0492
    113  CD        -0.9420    4.0320    7.0330 C.3   160  ARG160      0.2205
    114  NE        -1.7280    3.5780    5.8840 N.pl3 160  ARG160     -0.0865
    115  CZ        -2.5850    2.5510    5.8730 C.cat 160  ARG160      0.5346
    116  NH1       -2.8530    1.8330    6.9650 N.pl3 160  ARG160      0.1354
    117  NH2       -3.2100    2.2530    4.7490 N.pl3 160  ARG160      0.1354
    118  N          2.8290    6.5330    4.3700 N.am  161  SER161     -0.1936
    119  CA         3.4840    7.6880    3.7060 C.3   161  SER161      0.2055
    120  C          3.6220    8.9560    4.5940 C.2   161  SER161      0.2643
    121  O          4.6260    9.7010    4.5110 O.2   161  SER161     -0.2714
    122  CB         2.8080    7.9360    2.3340 C.3   161  SER161      0.2130
    123  OG         1.5660    8.5430    2.5440 O.3   161  SER161     -0.2179
    124  N          2.6450    9.1820    5.4630 N.am  162  GLY162     -0.1954
    125  CA         2.6190   10.3430    6.3720 C.3   162  GLY162      0.1869
    126  C          3.8670   10.4340    7.2390 C.2   162  GLY162      0.2309
    127  O          4.5440   11.4840    7.2860 O.2   162  GLY162     -0.2863
    128  N          1.4640   -0.5070    9.2330 N.3   202  GLN202     -0.1245
    129  CA         0.2430   -1.1520    8.7670 C.3   202  GLN202      0.1566
    130  C          0.4920   -2.6430    8.5450 C.2   202  GLN202      0.2260
    131  O          1.5550   -3.0650    8.0840 O.2   202  GLN202     -0.2867
    132  CB        -0.3180   -0.4850    7.5000 C.3   202  GLN202      0.0367
    133  CG         0.5950   -0.4960    6.2830 C.3   202  GLN202      0.0905
    134  CD        -0.0270    0.0990    5.0160 C.2   202  GLN202      0.2608
    135  OE1        0.6310    0.8300    4.2680 O.2   202  GLN202     -0.2717
    136  NE2       -1.2790   -0.2460    4.7540 N.am  202  GLN202     -0.0878
@<TRIPOS>BOND
     1    67    65   ar
     2    65    64    1
     3    65    66   ar
     4    64    63    1
     5    74    73    1
     6    63    60    1
     7    60    59    1
     8    60    61    1
     9    68    61   am
    10    68    69    1
    11    73    72    1
    12    73    75    1
    13    72    69    1
    14    71    70    2
    15    61    62    2
    16    50    49    2
    17    69    70    1
    18     7     6    1
    19    70    76   am
    20    49    48    1
    21    76    77    1
    22    54    56   ar
    23    54    52   ar
    24    94    92    1
    25     6     8    1
    26     6     5    1
    27    56    57   ar
    28    77    78    1
    29    77    80    1
    30    48    47    1
    31    48    51    1
    32    37    35    1
    33    91    92    1
    34    91    88    1
    35     5     2    1
    36     2     1    1
    37     2     3    1
    38    87    78   am
    39    87    88    1
    40    81    80    1
    41    81    82    1
    42    78    79    2
    43    36    35    1
    44    36    38    1
    45    51    52    1
    46    52    53   ar
    47    92    93    1
    48    58    57    1
    49    57    55   ar
    50    35    32    1
    51    42    41    2
    52     3     4    2
    53    88    89    1
    54    82    83    1
    55    53    55   ar
    56    41    40    1
    57    90    89    2
    58    34    33    2
    59    89    95   am
    60    32    33    1
    61    32    31    1
    62    33    39   am
    63    83    84    2
    64    39    40    1
    65    40    43    1
    66    31    25   am
    67    95    96    1
    68    22    21    2
    69    85    84    1
    70    84    86    1
    71    43    44    1
    72    25    26    2
    73    25    24    1
    74    21    20    1
    75    21    23   am
    76    96    97    1
    77    96    99    1
    78    20    19    1
    79    12    11    2
    80    97    98    2
    81    24    23    1
    82    24    27    1
    83   100    99    1
    84   100   102    1
    85    44    46   ar
    86    44    45   ar
    87    99   101    1
    88    11    10    1
    89    29    27    1
    90    30    28    1
    91    27    28    1
    92     9    10    1
    93    10    13    1
    94    15    14   ar
    95    15    17   ar
    96    13    14    1
    97    14    16   ar
    98   122   123    1
    99   122   119    1
   100    17    18   ar
   101    16    18   ar
   102   119   118    1
   103   119   120    1
   104   135   134    2
   105   118   109   am
   106   121   120    2
   107   120   124   am
   108   117   115    1
   109   136   134   am
   110   134   133    1
   111   106   105    2
   112   109   108    1
   113   109   110    2
   114   124   125    1
   115   108   107    1
   116   108   111    1
   117   115   114    2
   118   115   116    1
   119   114   113    1
   120   105   107   am
   121   105   104    1
   122   133   132    1
   123   103   104    1
   124   125   126    1
   125   111   112    1
   126   112   113    1
   127   126   127    2
   128   132   129    1
   129   131   130    2
   130   130   129    1
   131   129   128    1
