@<TRIPOS>MOLECULE
tmp/2we3A00.pdb
 143 136 0 0 0
SMALL
GASTEIGER

@<TRIPOS>ATOM
      1  N         27.2880   10.4230    0.1670 N.3    57  LEU57      -0.1245
      2  CA        26.4710   11.0530   -0.8620 C.3    57  LEU57       0.1561
      3  C         27.3900   11.5520   -1.9400 C.2    57  LEU57       0.2260
      4  O         28.3860   12.2210   -1.6450 O.2    57  LEU57      -0.2867
      5  CB        25.7240   12.2590   -0.2950 C.3    57  LEU57       0.0270
      6  CG        24.8870   13.1640   -1.2010 C.3    57  LEU57       0.0019
      7  CD1       23.6370   12.4400   -1.6940 C.3    57  LEU57       0.0001
      8  CD2       24.4690   14.3980   -0.3550 C.3    57  LEU57       0.0001
      9  N         31.1930   17.3330   -4.7190 N.3    68  HIS68      -0.1241
     10  CA        31.7560   17.0690   -3.4050 C.3    68  HIS68       0.1621
     11  C         31.3030   15.6520   -3.0090 C.2    68  HIS68       0.2264
     12  O         30.1460   15.2950   -3.2220 O.2    68  HIS68      -0.2867
     13  CB        31.2450   18.1280   -2.4080 C.3    68  HIS68       0.0745
     14  CG        31.5010   17.7880   -0.9750 C.ar   68  HIS68       0.0817
     15  ND1       32.7740   17.6560   -0.4690 N.ar   68  HIS68      -0.2268
     16  CD2       30.6570   17.5350    0.0540 C.ar   68  HIS68       0.1154
     17  CE1       32.7090   17.3440    0.8130 C.ar   68  HIS68       0.1986
     18  NE2       31.4360   17.2850    1.1640 N.ar   68  HIS68      -0.2212
     19  N         30.1410   13.6220   -0.0910 N.3    70  GLY70      -0.1210
     20  CA        29.6490   13.9890    1.2380 C.3    70  GLY70       0.1956
     21  C         29.6690   12.7970    2.1950 C.2    70  GLY70       0.2612
     22  O         29.2620   11.6750    1.7960 O.2    70  GLY70      -0.2717
     23  N         30.1850   13.0100    3.4170 N.am   71  ILE71      -0.1965
     24  CA        30.0460   12.0410    4.5180 C.3    71  ILE71       0.1727
     25  C         28.8330   12.4840    5.3540 C.2    71  ILE71       0.2616
     26  O         28.8380   13.6060    5.9220 O.2    71  ILE71      -0.2715
     27  CB        31.3320   11.9380    5.4250 C.3    71  ILE71       0.0290
     28  CG1       32.5930   11.5030    4.6510 C.3    71  ILE71       0.0022
     29  CG2       31.0900   11.0120    6.6250 C.3    71  ILE71       0.0023
     30  CD1       32.6190   10.0440    4.1560 C.3    71  ILE71       0.0001
     31  N         27.7990   11.6340    5.4270 N.am   72  ILE72      -0.1963
     32  CA        26.6120   11.9120    6.2570 C.3    72  ILE72       0.1727
     33  C         26.7420   11.2480    7.6340 C.2    72  ILE72       0.2616
     34  O         26.8260   10.0140    7.7350 O.2    72  ILE72      -0.2715
     35  CB        25.2960   11.4450    5.5540 C.3    72  ILE72       0.0290
     36  CG1       25.2960   11.8040    4.0590 C.3    72  ILE72       0.0022
     37  CG2       24.0280   11.9760    6.2520 C.3    72  ILE72       0.0023
     38  CD1       25.5830   13.2480    3.7020 C.3    72  ILE72       0.0001
     39  N         26.7660   12.0720    8.6760 N.am   73  ASP73      -0.1971
     40  CA        26.9060   11.6250   10.0620 C.3    73  ASP73       0.1709
     41  C         25.5990   11.0870   10.6720 C.2    73  ASP73       0.2293
     42  O         24.5250   11.5860   10.3530 O.2    73  ASP73      -0.2864
     43  CB        27.3920   12.7830   10.9550 C.3    73  ASP73       0.1436
     44  CG        28.7180   13.3650   10.4970 C.2    73  ASP73       0.3671
     45  OD1       29.7540   12.6460   10.4910 O.co2  73  ASP73      -0.2456
     46  OD2       28.7200   14.5560   10.1190 O.co2  73  ASP73      -0.2456
     47  N         23.0190   13.5930   11.9170 N.3    76  TYR76      -0.1241
     48  CA        22.4290   14.5700   10.9900 C.3    76  TYR76       0.1605
     49  C         20.9630   14.2760   10.7640 C.2    76  TYR76       0.2264
     50  O         20.6230   13.1790   10.4030 O.2    76  TYR76      -0.2867
     51  CB        23.1690   14.5520    9.6570 C.3    76  TYR76       0.0534
     52  CG        22.8040   15.6910    8.7670 C.ar   76  TYR76      -0.0201
     53  CD1       23.3350   16.9780    8.9860 C.ar   76  TYR76      -0.0009
     54  CD2       21.9000   15.5130    7.7190 C.ar   76  TYR76      -0.0009
     55  CE1       23.0010   18.0430    8.1540 C.ar   76  TYR76       0.0417
     56  CE2       21.5520   16.5560    6.9030 C.ar   76  TYR76       0.0417
     57  CZ        22.1210   17.8380    7.1290 C.ar   76  TYR76       0.1957
     58  OH        21.8020   18.8640    6.2860 O.3    76  TYR76      -0.2866
     59  N         19.3140   16.4530    3.1880 N.3    80  LEU80      -0.1231
     60  CA        20.5590   16.3430    2.4560 C.3    80  LEU80       0.1693
     61  C         20.6760   17.3340    1.3110 C.2    80  LEU80       0.2592
     62  O         19.7240   17.5720    0.5600 O.2    80  LEU80      -0.2718
     63  CB        20.7260   14.9200    1.9030 C.3    80  LEU80       0.0284
     64  CG        20.8230   13.8970    3.0200 C.3    80  LEU80       0.0019
     65  CD1       20.9060   12.4600    2.4750 C.3    80  LEU80       0.0001
     66  CD2       22.0450   14.2360    3.8670 C.3    80  LEU80       0.0001
     67  N         21.8670   17.9040    1.1700 N.am   81  ARG81      -0.1966
     68  CA        22.1670   18.7860    0.0540 C.3    81  ARG81       0.1729
     69  C         23.4280   18.3180   -0.6790 C.2    81  ARG81       0.2616
     70  O         24.4350   17.9380   -0.0370 O.2    81  ARG81      -0.2715
     71  CB        22.4000   20.2010    0.5730 C.3    81  ARG81       0.0348
     72  CG        22.0610   21.2460   -0.4370 C.3    81  ARG81       0.0492
     73  CD        21.3320   22.4120    0.2000 C.3    81  ARG81       0.2205
     74  NE        22.3060   23.3990    0.5830 N.pl3  81  ARG81      -0.0865
     75  CZ        22.3100   24.6890    0.2640 C.cat  81  ARG81       0.5346
     76  NH1       21.3550   25.2590   -0.4470 N.pl3  81  ARG81       0.1354
     77  NH2       23.3130   25.4170    0.7070 N.pl3  81  ARG81       0.1354
     78  N         23.3830   18.3780   -2.0100 N.am   82  LEU82      -0.1963
     79  CA        24.5160   17.9820   -2.8600 C.3    82  LEU82       0.1728
     80  C         25.2650   19.2330   -3.2680 C.2    82  LEU82       0.2616
     81  O         24.6410   20.2850   -3.5680 O.2    82  LEU82      -0.2715
     82  CB        24.0250   17.2500   -4.1110 C.3    82  LEU82       0.0311
     83  CG        25.0260   16.7570   -5.1640 C.3    82  LEU82       0.0022
     84  CD1       25.7700   15.5560   -4.6580 C.3    82  LEU82       0.0001
     85  CD2       24.2460   16.3860   -6.3990 C.3    82  LEU82       0.0001
     86  N         26.5950   19.1310   -3.2610 N.am   83  ILE83      -0.1977
     87  CA        27.4470   20.2600   -3.5830 C.3    83  ILE83       0.1596
     88  C         28.2220   19.9530   -4.8680 C.2    83  ILE83       0.2287
     89  O         28.8820   18.9270   -4.9390 O.2    83  ILE83      -0.2864
     90  CB        28.4250   20.6020   -2.3840 C.3    83  ILE83       0.0276
     91  CG1       27.6170   21.0090   -1.1600 C.3    83  ILE83       0.0022
     92  CG2       29.4160   21.7070   -2.8110 C.3    83  ILE83       0.0022
     93  CD1       28.3570   20.9680    0.2010 C.3    83  ILE83       0.0001
     94  N         29.6070   12.0470   14.9320 N.3   115  ASP115     -0.1239
     95  CA        30.2580   12.1310   13.6100 C.3   115  ASP115      0.1674
     96  C         31.1740   10.9680   13.1810 C.2   115  ASP115      0.2266
     97  O         31.8440   10.3180   14.0030 O.2   115  ASP115     -0.2867
     98  CB        31.0780   13.4210   13.5150 C.3   115  ASP115      0.1410
     99  CG        30.2550   14.6710   13.7910 C.2   115  ASP115      0.3668
    100  OD1       29.0000   14.6090   13.7280 O.co2 115  ASP115     -0.2456
    101  OD2       30.8850   15.7330   14.0590 O.co2 115  ASP115     -0.2456
    102  N         38.3230   15.7720   12.0810 N.3   119  ASP119     -0.1239
    103  CA        38.7950   16.8260   11.1990 C.3   119  ASP119      0.1674
    104  C         40.2970   16.9810   11.3760 C.2   119  ASP119      0.2266
    105  O         40.8140   16.7960   12.4640 O.2   119  ASP119     -0.2867
    106  CB        38.0030   18.1230   11.4410 C.3   119  ASP119      0.1410
    107  CG        36.5030   17.9500   11.1250 C.2   119  ASP119      0.3668
    108  OD1       36.1700   17.1040   10.2780 O.co2 119  ASP119     -0.2456
    109  OD2       35.6380   18.6200   11.7320 O.co2 119  ASP119     -0.2456
    110  N         36.5980   15.3060    2.0860 N.3   154  GLY154     -0.1210
    111  CA        36.5160   16.7590    2.3200 C.3   154  GLY154      0.1956
    112  C         35.4270   17.1100    3.3050 C.2   154  GLY154      0.2612
    113  O         34.6370   16.2480    3.6890 O.2   154  GLY154     -0.2717
    114  N         35.3810   18.3840    3.7140 N.am  155  ARG155     -0.1965
    115  CA        34.3470   18.8860    4.5780 C.3   155  ARG155      0.1729
    116  C         33.3810   19.7630    3.7620 C.2   155  ARG155      0.2617
    117  O         33.8150   20.4610    2.8260 O.2   155  ARG155     -0.2715
    118  CB        34.9780   19.6960    5.7310 C.3   155  ARG155      0.0348
    119  CG        35.8120   18.8640    6.7320 C.3   155  ARG155      0.0492
    120  CD        36.3770   19.7540    7.8380 C.3   155  ARG155      0.2205
    121  NE        35.3020   20.2300    8.7390 N.pl3 155  ARG155     -0.0865
    122  CZ        35.4560   21.2210    9.6090 C.cat 155  ARG155      0.5346
    123  NH1       36.6210   21.8470    9.6510 N.pl3 155  ARG155      0.1354
    124  NH2       34.4530   21.6000   10.4170 N.pl3 155  ARG155      0.1354
    125  N         32.0970   19.7860    4.1190 N.am  156  SER156     -0.1936
    126  CA        31.1070   20.6410    3.3620 C.3   156  SER156      0.2055
    127  C         31.3370   22.1510    3.4400 C.2   156  SER156      0.2643
    128  O         31.0830   22.8650    2.4750 O.2   156  SER156     -0.2714
    129  CB        29.6400   20.3590    3.7660 C.3   156  SER156      0.2130
    130  OG        29.4160   18.9380    3.7510 O.3   156  SER156     -0.2179
    131  N         31.7390   22.6470    4.6040 N.am  157  GLY157     -0.1954
    132  CA        32.0030   24.0810    4.7590 C.3   157  GLY157      0.1869
    133  C         33.0020   24.6250    3.7440 C.2   157  GLY157      0.2309
    134  O         32.6840   25.5700    3.0070 O.2   157  GLY157     -0.2863
    135  N         38.8290   15.6410    6.6050 N.3   197  GLN197     -0.1245
    136  CA        38.4720   14.7490    7.6910 C.3   197  GLN197      0.1566
    137  C         38.9750   13.3120    7.4470 C.2   197  GLN197      0.2260
    138  O         39.0630   12.8500    6.3150 O.2   197  GLN197     -0.2867
    139  CB        36.9820   14.8120    7.9670 C.3   197  GLN197      0.0367
    140  CG        36.1140   14.3320    6.7670 C.3   197  GLN197      0.0905
    141  CD        34.6470   14.3980    7.0630 C.2   197  GLN197      0.2608
    142  OE1       33.8250   14.8250    6.2190 O.2   197  GLN197     -0.2717
    143  NE2       34.2950   14.0310    8.2650 N.am  197  GLN197     -0.0878
@<TRIPOS>BOND
     1    85    83    1
     2    83    84    1
     3    83    82    1
     4    89    88    2
     5    88    87    1
     6     9    10    1
     7    82    79    1
     8    87    86    1
     9    87    90    1
    10    81    80    2
    11    10    11    1
    12    10    13    1
    13    80    86   am
    14    80    79    1
    15    12    11    2
    16    79    78    1
    17    92    90    1
    18    13    14    1
    19    90    91    1
    20    78    69   am
    21     3     4    2
    22     3     2    1
    23     7     6    1
    24     6     8    1
    25     6     5    1
    26    91    93    1
    27    14    15   ar
    28    14    16   ar
    29     2     5    1
    30     2     1    1
    31    69    70    2
    32    69    68    1
    33    15    17   ar
    34    76    75    1
    35    72    73    1
    36    72    71    1
    37    19    20    1
    38    16    18   ar
    39    68    71    1
    40    68    67    1
    41    73    74    1
    42    75    74    2
    43    75    77    1
    44    62    61    2
    45    17    18   ar
    46    67    61   am
    47    20    21    1
    48    61    60    1
    49    22    21    2
    50    63    60    1
    51    63    64    1
    52   110   111    1
    53    21    23   am
    54   111   112    1
    55    60    59    1
    56   128   127    2
    57    65    64    1
    58   117   116    2
    59   134   133    2
    60    64    66    1
    61   112   113    2
    62   112   114   am
    63   126   127    1
    64   126   129    1
    65   126   125    1
    66    23    24    1
    67   127   131   am
    68    38    36    1
    69   114   115    1
    70   133   132    1
    71   130   129    1
    72   116   125   am
    73   116   115    1
    74    36    35    1
    75    30    28    1
    76    24    25    1
    77    24    27    1
    78   115   118    1
    79   131   132    1
    80    28    27    1
    81    25    31   am
    82    25    26    2
    83    27    29    1
    84    31    32    1
    85    35    37    1
    86    35    32    1
    87   118   119    1
    88   142   141    2
    89    32    33    1
    90    58    57    1
    91   138   137    2
    92   135   136    1
    93   119   120    1
    94   140   141    1
    95   140   139    1
    96    56    57   ar
    97    56    54   ar
    98   141   143   am
    99    57    55   ar
   100   137   136    1
   101    33    34    2
   102    33    39   am
   103   136   139    1
   104    54    52   ar
   105   120   121    1
   106    55    53   ar
   107    39    40    1
   108   121   122    2
   109    52    53   ar
   110    52    51    1
   111   122   123    1
   112   122   124    1
   113    51    48    1
   114    40    41    1
   115    40    43    1
   116    46    44   ar
   117   108   107   ar
   118    42    41    2
   119    50    49    2
   120    45    44   ar
   121    44    43    1
   122    49    48    1
   123    48    47    1
   124   107   106    1
   125   107   109   ar
   126   103   104    1
   127   103   106    1
   128   103   102    1
   129   104   105    2
   130    96    95    1
   131    96    97    2
   132    98    95    1
   133    98    99    1
   134    95    94    1
   135   100    99   ar
   136    99   101   ar
