@<TRIPOS>MOLECULE
tmp/2we5C00.pdb
 149 145 0 0 0
SMALL
GASTEIGER

@<TRIPOS>ATOM
      1  N         40.8540   87.9900   15.6470 N.3     9  GLY9       -0.1210
      2  CA        40.9380   89.4180   15.4180 C.3     9  GLY9        0.1956
      3  C         42.3370   89.9480   15.6780 C.2     9  GLY9        0.2612
      4  O         43.3150   89.1960   15.6620 O.2     9  GLY9       -0.2717
      5  N         42.4330   91.2490   15.9290 N.am   10  GLY10      -0.1942
      6  CA        43.7260   91.8630   16.1760 C.3    10  GLY10       0.2014
      7  C         44.4910   91.2360   17.3240 C.2    10  GLY10       0.2638
      8  O         45.7140   91.1130   17.2730 O.2    10  GLY10      -0.2714
      9  N         43.7580   90.8380   18.3580 N.am   11  ASN11      -0.1972
     10  CA        44.3380   90.2260   19.5480 C.3    11  ASN11       0.1688
     11  C         45.0910   88.9250   19.2380 C.2    11  ASN11       0.2292
     12  O         45.9470   88.4980   20.0140 O.2    11  ASN11      -0.2864
     13  CB        43.2200   89.9850   20.5730 C.3    11  ASN11       0.1181
     14  CG        43.7200   89.3700   21.8620 C.2    11  ASN11       0.2629
     15  OD1       43.9330   88.1620   21.9470 O.2    11  ASN11      -0.2716
     16  ND2       43.9130   90.2050   22.8780 N.am   11  ASN11      -0.0877
     17  N         35.1580   91.1250    8.6290 N.3   208  LYS208     -0.1231
     18  CA        35.6120   89.7590    8.8580 C.3   208  LYS208      0.1693
     19  C         34.5960   88.9090    9.6050 C.2   208  LYS208      0.2592
     20  O         34.4960   87.7030    9.3780 O.2   208  LYS208     -0.2718
     21  CB        36.9310   89.7670    9.6350 C.3   208  LYS208      0.0285
     22  CG        36.7710   90.1210   11.1050 C.3   208  LYS208      0.0035
     23  CD        38.1010   90.1420   11.8330 C.3   208  LYS208      0.0206
     24  CE        37.8940   90.1510   13.3350 C.3   208  LYS208      0.1093
     25  NZ        37.2600   88.8900   13.8200 N.3   208  LYS208     -0.1314
     26  N         33.8430   89.5290   10.5010 N.am  209  ASP209     -0.1974
     27  CA        32.8680   88.7720   11.2630 C.3   209  ASP209      0.1709
     28  C         31.6460   88.4350   10.4260 C.2   209  ASP209      0.2293
     29  O         31.0610   87.3680   10.5920 O.2   209  ASP209     -0.2864
     30  CB        32.5080   89.5250   12.5430 C.3   209  ASP209      0.1436
     31  CG        33.7150   89.7110   13.4450 C.2   209  ASP209      0.3671
     32  OD1       34.4780   88.7340   13.6080 O.co2 209  ASP209     -0.2456
     33  OD2       33.9070   90.8200   13.9850 O.co2 209  ASP209     -0.2456
     34  N         36.6830   85.5970   18.6030 N.3   227  LEU227     -0.1231
     35  CA        37.6670   85.8420   19.6460 C.3   227  LEU227      0.1693
     36  C         38.2240   87.2390   19.4350 C.2   227  LEU227      0.2593
     37  O         38.7970   87.5490   18.3890 O.2   227  LEU227     -0.2718
     38  CB        38.7680   84.7800   19.5850 C.3   227  LEU227      0.0284
     39  CG        38.2360   83.3580   19.7970 C.3   227  LEU227      0.0019
     40  CD1       39.3870   82.3690   19.7820 C.3   227  LEU227      0.0001
     41  CD2       37.4840   83.2800   21.1190 C.3   227  LEU227      0.0001
     42  N         38.0510   88.0830   20.4460 N.am  228  THR228     -0.1939
     43  CA        38.4690   89.4670   20.3560 C.3   228  THR228      0.2028
     44  C         39.2530   89.9440   21.5860 C.2   228  THR228      0.2643
     45  O         39.8060   89.1270   22.3210 O.2   228  THR228     -0.2714
     46  CB        37.2130   90.3420   20.0930 C.3   228  THR228      0.1808
     47  OG1       37.6070   91.6840   19.8110 O.3   228  THR228     -0.2208
     48  CG2       36.2680   90.3060   21.2880 C.3   228  THR228      0.0379
     49  N         39.2920   91.2580   21.8080 N.am  229  GLY229     -0.1939
     50  CA        40.0550   91.8140   22.9190 C.3   229  GLY229      0.2014
     51  C         39.4330   91.8800   24.3030 C.2   229  GLY229      0.2638
     52  O         40.0090   92.4940   25.2070 O.2   229  GLY229     -0.2714
     53  N         38.2660   91.2690   24.4790 N.am  230  VAL230     -0.1977
     54  CA        37.6000   91.2550   25.7790 C.3   230  VAL230      0.1596
     55  C         37.1180   89.8420   26.0830 C.2   230  VAL230      0.2287
     56  O         36.7760   89.0890   25.1700 O.2   230  VAL230     -0.2864
     57  CB        36.3870   92.2230   25.8160 C.3   230  VAL230      0.0276
     58  CG1       36.8620   93.6540   25.6500 C.3   230  VAL230      0.0022
     59  CG2       35.3870   91.8630   24.7200 C.3   230  VAL230      0.0022
     60  N         34.4590   89.1860   27.8210 N.3   232  TYR232     -0.1227
     61  CA        33.0050   89.2560   27.7150 C.3   232  TYR232      0.1736
     62  C         32.5610   90.5890   27.1410 C.2   232  TYR232      0.2595
     63  O         33.2080   91.6150   27.3500 O.2   232  TYR232     -0.2718
     64  CB        32.3400   89.1000   29.0890 C.3   232  TYR232      0.0548
     65  CG        32.6730   87.8190   29.8120 C.ar  232  TYR232     -0.0200
     66  CD1       33.8840   87.6710   30.4850 C.ar  232  TYR232     -0.0009
     67  CD2       31.7940   86.7390   29.7890 C.ar  232  TYR232     -0.0009
     68  CE1       34.2140   86.4710   31.1150 C.ar  232  TYR232      0.0417
     69  CE2       32.1130   85.5370   30.4150 C.ar  232  TYR232      0.0417
     70  CZ        33.3260   85.4090   31.0730 C.ar  232  TYR232      0.1957
     71  OH        33.6550   84.2090   31.6650 O.3   232  TYR232     -0.2866
     72  N         31.4560   90.5670   26.4050 N.am  233  VAL233     -0.1966
     73  CA        30.9030   91.7930   25.8580 C.3   233  VAL233      0.1727
     74  C         30.3140   92.4760   27.0860 C.2   233  VAL233      0.2616
     75  O         29.8540   91.7980   28.0050 O.2   233  VAL233     -0.2715
     76  CB        29.7730   91.5070   24.8500 C.3   233  VAL233      0.0290
     77  CG1       29.1660   92.8160   24.3660 C.3   233  VAL233      0.0023
     78  CG2       30.3140   90.7060   23.6750 C.3   233  VAL233      0.0023
     79  N         30.3350   93.8020   27.1140 N.am  234  CYS234     -0.1968
     80  CA        29.8020   94.5320   28.2600 C.3   234  CYS234      0.1712
     81  C         28.7570   95.5640   27.8790 C.2   234  CYS234      0.2296
     82  O         28.5640   95.8820   26.7070 O.2   234  CYS234     -0.2864
     83  CB        30.9190   95.2770   28.9970 C.3   234  CYS234      0.0983
     84  SG        32.2620   94.2810   29.6480 S.3   234  CYS234     -0.0798
     85  N         30.2990   99.7690   28.7970 N.3   237  TYR237     -0.1241
     86  CA        31.7120   99.4440   28.6440 C.3   237  TYR237      0.1605
     87  C         32.6070  100.6460   28.9280 C.2   237  TYR237      0.2264
     88  O         32.4380  101.7140   28.3370 O.2   237  TYR237     -0.2867
     89  CB        31.9770   98.9320   27.2250 C.3   237  TYR237      0.0534
     90  CG        33.4130   98.5340   26.9680 C.ar  237  TYR237     -0.0201
     91  CD1       33.9800   97.4370   27.6160 C.ar  237  TYR237     -0.0009
     92  CD2       34.2070   99.2600   26.0810 C.ar  237  TYR237     -0.0009
     93  CE1       35.3060   97.0710   27.3860 C.ar  237  TYR237      0.0417
     94  CE2       35.5360   98.9020   25.8450 C.ar  237  TYR237      0.0417
     95  CZ        36.0760   97.8080   26.5000 C.ar  237  TYR237      0.1957
     96  OH        37.3870   97.4550   26.2730 O.3   237  TYR237     -0.2866
     97  N         25.1690  100.4750   23.6200 N.3   261  HIS261     -0.1226
     98  CA        26.2720   99.8850   24.3770 C.3   261  HIS261      0.1752
     99  C         27.3790   99.3230   23.4950 C.2   261  HIS261      0.2596
    100  O         28.5240   99.1980   23.9270 O.2   261  HIS261     -0.2718
    101  CB        25.7550   98.7590   25.2740 C.3   261  HIS261      0.0759
    102  CG        24.8380   99.2240   26.3600 C.ar  261  HIS261      0.0818
    103  ND1       25.2280  100.1270   27.3260 N.ar  261  HIS261     -0.2268
    104  CD2       23.5520   98.9060   26.6370 C.ar  261  HIS261      0.1154
    105  CE1       24.2200  100.3450   28.1520 C.ar  261  HIS261      0.1986
    106  NE2       23.1910   99.6160   27.7560 N.ar  261  HIS261     -0.2212
    107  N         27.0390   98.9880   22.2580 N.am  262  PHE262     -0.1962
    108  CA        28.0080   98.4010   21.3420 C.3   262  PHE262      0.1771
    109  C         28.5560   99.4060   20.3360 C.2   262  PHE262      0.2619
    110  O         27.8940   99.7570   19.3590 O.2   262  PHE262     -0.2715
    111  CB        27.3490   97.2180   20.6370 C.3   262  PHE262      0.0574
    112  CG        26.6410   96.2820   21.5810 C.ar  262  PHE262     -0.0200
    113  CD1       25.3820   95.7790   21.2710 C.ar  262  PHE262     -0.0042
    114  CD2       27.2270   95.9190   22.7930 C.ar  262  PHE262     -0.0042
    115  CE1       24.7150   94.9320   22.1530 C.ar  262  PHE262     -0.0003
    116  CE2       26.5710   95.0730   23.6810 C.ar  262  PHE262     -0.0003
    117  CZ        25.3100   94.5770   23.3620 C.ar  262  PHE262     -0.0000
    118  N         29.7800   99.8580   20.5890 N.am  263  ALA263     -0.1977
    119  CA        30.4440  100.8340   19.7360 C.3   263  ALA263      0.1597
    120  C         30.5020  100.4000   18.2770 C.2   263  ALA263      0.2287
    121  O         30.8950   99.2770   17.9630 O.2   263  ALA263     -0.2864
    122  CB        31.8510  101.1020   20.2560 C.3   263  ALA263      0.0319
    123  N         31.6770   99.9200   14.4020 N.3   265  GLY265     -0.1210
    124  CA        32.9920   99.6430   13.8540 C.3   265  GLY265      0.1956
    125  C         33.8130   98.6170   14.6130 C.2   265  GLY265      0.2613
    126  O         34.6280   97.9140   14.0110 O.2   265  GLY265     -0.2717
    127  N         33.6160   98.5250   15.9250 N.am  266  SER266     -0.1938
    128  CA        34.3680   97.5620   16.7230 C.3   266  SER266      0.2055
    129  C         33.5140   96.3960   17.2210 C.2   266  SER266      0.2642
    130  O         33.5370   95.3120   16.6350 O.2   266  SER266     -0.2714
    131  CB        35.0500   98.2610   17.9100 C.3   266  SER266      0.2130
    132  OG        34.1120   98.9130   18.7520 O.3   266  SER266     -0.2179
    133  N         32.7510   96.6180   18.2870 N.am  267  MET267     -0.1976
    134  CA        31.9220   95.5600   18.8530 C.3   267  MET267      0.1605
    135  C         30.5740   95.3660   18.1650 C.2   267  MET267      0.2287
    136  O         30.0670   94.2450   18.0990 O.2   267  MET267     -0.2864
    137  CB        31.7020   95.8120   20.3490 C.3   267  MET267      0.0413
    138  CG        30.8960   94.7290   21.0600 C.3   267  MET267      0.0598
    139  SD        31.5910   93.0700   20.8700 S.3   267  MET267     -0.1393
    140  CE        32.8930   93.1070   22.0950 C.3   267  MET267      0.0692
    141  N         30.3040   92.5900   15.6000 N.3   270  LYS270     -0.1245
    142  CA        30.3710   91.2720   16.2170 C.3   270  LYS270      0.1561
    143  C         29.0090   90.8760   16.7680 C.2   270  LYS270      0.2260
    144  O         28.5770   89.7300   16.6230 O.2   270  LYS270     -0.2867
    145  CB        31.4180   91.2590   17.3340 C.3   270  LYS270      0.0271
    146  CG        32.8030   91.6170   16.8430 C.3   270  LYS270      0.0035
    147  CD        33.8400   91.5140   17.9410 C.3   270  LYS270      0.0206
    148  CE        35.1820   92.0080   17.4440 C.3   270  LYS270      0.1093
    149  NZ        35.6030   91.2880   16.2040 N.3   270  LYS270     -0.1314
@<TRIPOS>BOND
     1    17    18    1
     2    18    19    1
     3    18    21    1
     4    20    19    2
     5    19    26   am
     6    21    22    1
     7    28    29    2
     8    28    27    1
     9    26    27    1
    10    22    23    1
    11    27    30    1
    12    23    24    1
    13    30    31    1
    14    24    25    1
    15    31    32   ar
    16    31    33   ar
    17   124   123    1
    18   124   125    1
    19   126   125    2
    20   125   127   am
    21     2     1    1
    22     2     3    1
    23   141   142    1
    24     4     3    2
    25     3     5   am
    26   127   128    1
    27     5     6    1
    28     6     7    1
    29   149   148    1
    30   142   143    1
    31   142   145    1
    32   144   143    2
    33   130   129    2
    34   128   129    1
    35   128   131    1
    36   146   145    1
    37   146   147    1
    38   129   133   am
    39     8     7    2
    40     7     9   am
    41   148   147    1
    42   131   132    1
    43   121   120    2
    44   136   135    2
    45   135   134    1
    46   120   119    1
    47   133   134    1
    48     9    10    1
    49    37    36    2
    50    34    35    1
    51   134   137    1
    52    11    10    1
    53    11    12    2
    54   110   109    2
    55    36    35    1
    56    36    42   am
    57    10    13    1
    58    38    35    1
    59    38    39    1
    60   119   122    1
    61   119   118    1
    62    40    39    1
    63    39    41    1
    64    47    46    1
    65    46    43    1
    66    46    48    1
    67   109   118   am
    68   109   108    1
    69   137   138    1
    70    43    42    1
    71    43    44    1
    72    13    14    1
    73   111   108    1
    74   111   112    1
    75   139   138    1
    76   139   140    1
    77   113   112   ar
    78   113   115   ar
    79   108   107    1
    80   112   114   ar
    81    44    49   am
    82    44    45    2
    83    49    50    1
    84    14    15    2
    85    14    16   am
    86   115   117   ar
    87   107    99   am
    88   114   116   ar
    89    50    51    1
    90   117   116   ar
    91    99   100    2
    92    99    98    1
    93    97    98    1
    94    78    76    1
    95    51    53   am
    96    51    52    2
    97    77    76    1
    98    98   101    1
    99    53    54    1
   100    59    57    1
   101    76    73    1
   102    56    55    2
   103   101   102    1
   104    58    57    1
   105    54    57    1
   106    54    55    1
   107    94    92   ar
   108    94    95   ar
   109    73    72    1
   110    73    74    1
   111    92    90   ar
   112    96    95    1
   113   102   104   ar
   114   102   103   ar
   115    72    62   am
   116    95    93   ar
   117   104   106   ar
   118    82    81    2
   119    90    89    1
   120    90    91   ar
   121    74    79   am
   122    74    75    2
   123    79    80    1
   124    62    63    2
   125    62    61    1
   126    89    86    1
   127   103   105   ar
   128    93    91   ar
   129    61    60    1
   130    61    64    1
   131   106   105   ar
   132    81    80    1
   133    80    83    1
   134    88    87    2
   135    86    85    1
   136    86    87    1
   137    83    84    1
   138    64    65    1
   139    67    65   ar
   140    67    69   ar
   141    65    66   ar
   142    69    70   ar
   143    66    68   ar
   144    70    68   ar
   145    70    71    1
