@<TRIPOS>MOLECULE
tmp/2webA01.pdb
 219 204 0 0 0
SMALL
GASTEIGER

@<TRIPOS>ATOM
      1  N         18.6220    6.6590   11.6040 N.3    16  GLU16      -0.1245
      2  CA        19.8100    7.4920   11.7240 C.3    16  GLU16       0.1567
      3  C         20.1360    8.0330   10.3490 C.2    16  GLU16       0.2260
      4  O         19.6120    7.5350    9.3450 O.2    16  GLU16      -0.2867
      5  CB        20.9940    6.7350   12.3160 C.3    16  GLU16       0.0388
      6  CG        21.4520    5.5460   11.4970 C.3    16  GLU16       0.1160
      7  CD        22.5610    4.7700   12.1980 C.2    16  GLU16       0.3649
      8  OE1       23.7020    5.2700   12.2530 O.co2  16  GLU16      -0.2457
      9  OE2       22.2930    3.6500   12.6730 O.co2  16  GLU16      -0.2457
     10  N         27.7140    9.0250   11.4070 N.3    31  ASN31      -0.1240
     11  CA        26.4650    9.5920   11.8930 C.3    31  ASN31       0.1653
     12  C         26.8130   10.9570   12.4970 C.2    31  ASN31       0.2266
     13  O         27.5280   11.0130   13.4890 O.2    31  ASN31      -0.2867
     14  CB        25.9690    8.6380   12.9790 C.3    31  ASN31       0.1155
     15  CG        24.6830    9.0700   13.6030 C.2    31  ASN31       0.2627
     16  OD1       24.1670   10.1490   13.3210 O.2    31  ASN31      -0.2716
     17  ND2       24.1530    8.2270   14.4890 N.am   31  ASN31      -0.0877
     18  N         26.3830   14.1090   14.6640 N.3    33  ASP33      -0.1239
     19  CA        25.6400   14.2320   15.8950 C.3    33  ASP33       0.1674
     20  C         25.8820   15.5560   16.5910 C.2    33  ASP33       0.2266
     21  O         26.9240   15.7810   17.1820 O.2    33  ASP33      -0.2867
     22  CB        26.1580   13.1160   16.8140 C.3    33  ASP33       0.1410
     23  CG        25.4710   13.0970   18.1460 C.2    33  ASP33       0.3668
     24  OD1       24.4290   13.7690   18.3180 O.co2  33  ASP33      -0.2456
     25  OD2       25.9850   12.3750   19.0260 O.co2  33  ASP33      -0.2456
     26  N         24.6570   16.4450   19.2100 N.3    35  GLY35      -0.1210
     27  CA        24.5210   16.2250   20.6580 C.3    35  GLY35       0.1956
     28  C         25.7960   15.7500   21.3680 C.2    35  GLY35       0.2612
     29  O         25.7690   15.4920   22.5770 O.2    35  GLY35      -0.2717
     30  N         26.8850   15.5850   20.6230 N.am   36  SER36      -0.1952
     31  CA        28.1490   15.1780   21.2510 C.3    36  SER36       0.1924
     32  C         29.3230   15.8200   20.5130 C.2    36  SER36       0.2314
     33  O         29.1630   16.3870   19.4240 O.2    36  SER36      -0.2863
     34  CB        28.2900   13.6490   21.3430 C.3    36  SER36       0.2116
     35  OG        28.5590   13.1240   20.0600 O.3    36  SER36      -0.2180
     36  N         33.6180    7.6400   25.9280 N.3    73  ILE73      -0.1231
     37  CA        32.3570    8.3620   25.8950 C.3    73  ILE73       0.1692
     38  C         31.1950    7.4410   26.2040 C.2    73  ILE73       0.2593
     39  O         31.2300    6.2520   25.8730 O.2    73  ILE73      -0.2718
     40  CB        32.1690    9.0840   24.5190 C.3    73  ILE73       0.0266
     41  CG1       30.9480   10.0050   24.5300 C.3    73  ILE73       0.0019
     42  CG2       32.0430    8.0720   23.3930 C.3    73  ILE73       0.0020
     43  CD1       30.9570   10.9830   23.3500 C.3    73  ILE73       0.0001
     44  N         30.1860    8.0170   26.8550 N.am   74  SER74      -0.1938
     45  CA        28.9600    7.3250   27.2420 C.3    74  SER74       0.2055
     46  C         27.7630    8.1540   26.7820 C.2    74  SER74       0.2643
     47  O         27.6730    9.3500   27.0660 O.2    74  SER74      -0.2714
     48  CB        28.8790    7.1650   28.7530 C.3    74  SER74       0.2130
     49  OG        29.9290    6.3250   29.1890 O.3    74  SER74      -0.2179
     50  N         26.8950    7.5200   26.0020 N.am   75  TYR75      -0.1959
     51  CA        25.7210    8.1770   25.4550 C.3    75  TYR75       0.1771
     52  C         24.4640    8.0100   26.2880 C.2    75  TYR75       0.2620
     53  O         24.3950    7.1460   27.1720 O.2    75  TYR75      -0.2715
     54  CB        25.4930    7.7660   24.0070 C.3    75  TYR75       0.0574
     55  CG        26.6740    8.0920   23.1150 C.ar   75  TYR75      -0.0198
     56  CD1       26.8510    9.3720   22.5950 C.ar   75  TYR75      -0.0009
     57  CD2       27.6080    7.1130   22.7860 C.ar   75  TYR75      -0.0009
     58  CE1       27.9450    9.6740   21.7640 C.ar   75  TYR75       0.0417
     59  CE2       28.6930    7.3980   21.9700 C.ar   75  TYR75       0.0417
     60  CZ        28.8600    8.6790   21.4530 C.ar   75  TYR75       0.1957
     61  OH        29.9270    8.9210   20.6110 O.3    75  TYR75      -0.2866
     62  N         23.4420    8.7730   25.9070 N.am   76  GLY76      -0.1940
     63  CA        22.1460    8.7860   26.5710 C.3    76  GLY76       0.2014
     64  C         21.4870    7.4170   26.7090 C.2    76  GLY76       0.2638
     65  O         20.8570    7.1380   27.7320 O.2    76  GLY76      -0.2714
     66  N         21.5880    6.5810   25.6800 N.am   77  ASP77      -0.1971
     67  CA        20.9890    5.2440   25.7310 C.3    77  ASP77       0.1709
     68  C         21.8680    4.2240   26.4680 C.2    77  ASP77       0.2293
     69  O         21.5460    3.0330   26.5130 O.2    77  ASP77      -0.2864
     70  CB        20.6570    4.7410   24.3260 C.3    77  ASP77       0.1436
     71  CG        21.8920    4.3750   23.5430 C.2    77  ASP77       0.3671
     72  OD1       23.0090    4.7620   23.9670 O.co2  77  ASP77      -0.2456
     73  OD2       21.7450    3.6520   22.5340 O.co2  77  ASP77      -0.2456
     74  N         24.9710    3.3940   25.5670 N.3    79  SER79      -0.1217
     75  CA        26.0350    2.8320   24.7430 C.3    79  SER79       0.1889
     76  C         27.3550    3.5270   25.0990 C.2    79  SER79       0.2288
     77  O         27.3560    4.6060   25.6820 O.2    79  SER79      -0.2866
     78  CB        25.7480    3.0280   23.2510 C.3    79  SER79       0.2089
     79  OG        25.5000    4.3920   22.9850 O.3    79  SER79      -0.2183
     80  N         25.5310   -1.9920   21.2540 N.3   111  GLN111     -0.1231
     81  CA        24.7330   -1.1980   20.3320 C.3   111  GLN111      0.1698
     82  C         25.5060   -0.8940   19.0520 C.2   111  GLN111      0.2592
     83  O         24.9770   -0.9860   17.9380 O.2   111  GLN111     -0.2718
     84  CB        24.2550    0.1030   20.9900 C.3   111  GLN111      0.0381
     85  CG        23.3600   -0.0360   22.2320 C.3   111  GLN111      0.0905
     86  CD        24.1010   -0.2040   23.5740 C.2   111  GLN111      0.2608
     87  OE1       25.2910   -0.5250   23.6190 O.2   111  GLN111     -0.2717
     88  NE2       23.3900    0.0850   24.6790 N.am  111  GLN111     -0.0878
     89  N         26.7670   -0.5180   19.2000 N.am  112  PHE112     -0.1976
     90  CA        27.5800   -0.2240   18.0430 C.3   112  PHE112      0.1639
     91  C         28.0110   -1.4760   17.3030 C.2   112  PHE112      0.2290
     92  O         28.1280   -1.4770   16.0850 O.2   112  PHE112     -0.2864
     93  CB        28.7880    0.6020   18.4460 C.3   112  PHE112      0.0560
     94  CG        28.4180    1.9250   19.0240 C.ar  112  PHE112     -0.0200
     95  CD1       27.8270    2.8860   18.2140 C.ar  112  PHE112     -0.0042
     96  CD2       28.6360    2.2090   20.3680 C.ar  112  PHE112     -0.0042
     97  CE1       27.4690    4.1230   18.7300 C.ar  112  PHE112     -0.0003
     98  CE2       28.2940    3.4520   20.8940 C.ar  112  PHE112     -0.0003
     99  CZ        27.7150    4.4140   20.0700 C.ar  112  PHE112     -0.0000
    100  N         25.0820   -2.2580   15.0400 N.3   115  ASP115     -0.1239
    101  CA        24.7340   -1.3250   13.9830 C.3   115  ASP115      0.1674
    102  C         25.7760   -1.2610   12.8710 C.2   115  ASP115      0.2266
    103  O         26.8180   -0.6350   13.0110 O.2   115  ASP115     -0.2867
    104  CB        24.4880    0.0410   14.6220 C.3   115  ASP115      0.1410
    105  CG        23.9120    1.0590   13.6540 C.2   115  ASP115      0.3668
    106  OD1       23.8490    0.7690   12.4440 O.co2 115  ASP115     -0.2456
    107  OD2       23.5190    2.1520   14.1250 O.co2 115  ASP115     -0.2456
    108  N         26.6580    2.4940   10.3240 N.3   118  ASN118     -0.1240
    109  CA        27.6190    3.5740   10.4150 C.3   118  ASN118      0.1653
    110  C         28.9670    3.0060   10.8340 C.2   118  ASN118      0.2266
    111  O         29.0470    1.8480   11.2820 O.2   118  ASN118     -0.2867
    112  CB        27.1650    4.6750   11.3890 C.3   118  ASN118      0.1155
    113  CG        27.2790    4.2810   12.8590 C.2   118  ASN118      0.2627
    114  OD1       28.3630    3.9760   13.3680 O.2   118  ASN118     -0.2716
    115  ND2       26.1390    4.2330   13.5370 N.am  118  ASN118     -0.0877
    116  N         30.8630    8.1470   14.7080 N.3   121  LEU121     -0.1245
    117  CA        30.1030    9.3800   14.8480 C.3   121  LEU121      0.1561
    118  C         30.9770   10.5990   14.6970 C.2   121  LEU121      0.2260
    119  O         32.1610   10.5560   15.0050 O.2   121  LEU121     -0.2867
    120  CB        29.4780    9.4430   16.2380 C.3   121  LEU121      0.0270
    121  CG        28.1020    8.8100   16.4380 C.3   121  LEU121      0.0019
    122  CD1       28.1100    7.3190   16.1530 C.3   121  LEU121      0.0001
    123  CD2       27.5850    9.0920   17.8280 C.3   121  LEU121      0.0001
    124  N         32.7610   19.8540   25.5880 N.3   129  ILE129     -0.1245
    125  CA        32.4090   18.5180   26.0510 C.3   129  ILE129      0.1561
    126  C         33.1360   17.3690   25.3470 C.2   129  ILE129      0.2260
    127  O         32.7480   16.2240   25.5110 O.2   129  ILE129     -0.2867
    128  CB        30.9010   18.2720   26.1860 C.3   129  ILE129      0.0252
    129  CG1       30.1950   18.3760   24.8150 C.3   129  ILE129      0.0019
    130  CG2       30.3350   19.2400   27.2100 C.3   129  ILE129      0.0019
    131  CD1       28.7420   17.9680   24.8540 C.3   129  ILE129      0.0001
    132  N         25.8490   21.9060   24.8300 N.3   190  PHE190     -0.1241
    133  CA        24.8370   21.5540   23.8200 C.3   190  PHE190      0.1605
    134  C         24.3010   22.7750   23.0830 C.2   190  PHE190      0.2264
    135  O         24.4680   23.8990   23.5430 O.2   190  PHE190     -0.2867
    136  CB        23.6420   20.8240   24.4390 C.3   190  PHE190      0.0534
    137  CG        23.9970   19.5500   25.1630 C.ar  190  PHE190     -0.0203
    138  CD1       24.5140   18.4570   24.4770 C.ar  190  PHE190     -0.0042
    139  CD2       23.7640   19.4260   26.5220 C.ar  190  PHE190     -0.0042
    140  CE1       24.8250   17.2680   25.1450 C.ar  190  PHE190     -0.0003
    141  CE2       24.0510   18.2290   27.1890 C.ar  190  PHE190     -0.0003
    142  CZ        24.5640   17.1500   26.4890 C.ar  190  PHE190     -0.0000
    143  N         17.4980   20.5470   23.6470 N.3   211  ILE211     -0.1245
    144  CA        18.6610   20.5820   22.7860 C.3   211  ILE211      0.1561
    145  C         18.3750   20.1100   21.3490 C.2   211  ILE211      0.2260
    146  O         17.6130   19.1540   21.1560 O.2   211  ILE211     -0.2867
    147  CB        19.8460   19.8060   23.3860 C.3   211  ILE211      0.0252
    148  CG1       19.5440   18.3050   23.4640 C.3   211  ILE211      0.0019
    149  CG2       20.1500   20.2990   24.7960 C.3   211  ILE211      0.0019
    150  CD1       20.8080   17.4820   23.7450 C.3   211  ILE211      0.0001
    151  N         19.3750   18.0360   18.5380 N.3   213  ASP213     -0.1239
    152  CA        20.2550   16.8660   18.5400 C.3   213  ASP213      0.1674
    153  C         19.9830   15.9070   17.3830 C.2   213  ASP213      0.2266
    154  O         19.0980   15.0550   17.4530 O.2   213  ASP213     -0.2867
    155  CB        19.9400   16.1380   19.8540 C.3   213  ASP213      0.1410
    156  CG        20.8290   14.9350   20.1050 C.2   213  ASP213      0.3668
    157  OD1       21.7450   14.6340   19.3230 O.co2 213  ASP213     -0.2456
    158  OD2       20.6000   14.2880   21.1380 O.co2 213  ASP213     -0.2456
    159  N         21.6310   13.4600   16.5760 N.3   215  GLY215     -0.1210
    160  CA        22.0500   12.1120   16.9680 C.3   215  GLY215      0.1956
    161  C         20.9740   11.2430   17.6070 C.2   215  GLY215      0.2613
    162  O         21.2350   10.0610   17.8900 O.2   215  GLY215     -0.2717
    163  N         19.8330   11.8430   17.9390 N.am  216  THR216     -0.1938
    164  CA        18.7300   11.1210   18.5600 C.3   216  THR216      0.2028
    165  C         17.5890   11.0200   17.5560 C.2   216  THR216      0.2643
    166  O         17.2140   12.0040   16.9350 O.2   216  THR216     -0.2714
    167  CB        18.3040   11.8040   19.8610 C.3   216  THR216      0.1808
    168  OG1       19.3420   11.6010   20.8250 O.3   216  THR216     -0.2208
    169  CG2       17.0100   11.2660   20.3810 C.3   216  THR216      0.0379
    170  N         17.0780    9.8160   17.3680 N.am  217  THR217     -0.1936
    171  CA        16.0360    9.5490   16.3750 C.3   217  THR217      0.2028
    172  C         14.7070   10.2300   16.6900 C.2   217  THR217      0.2642
    173  O         14.0290   10.7200   15.8030 O.2   217  THR217     -0.2714
    174  CB        15.7520    8.0070   16.3780 C.3   217  THR217      0.1808
    175  OG1       16.9910    7.2960   16.2150 O.3   217  THR217     -0.2208
    176  CG2       14.7680    7.6350   15.2830 C.3   217  THR217      0.0379
    177  N         14.3270   10.2090   17.9600 N.am  218  LEU218     -0.1977
    178  CA        13.0080   10.6700   18.3790 C.3   218  LEU218      0.1596
    179  C         12.9590   12.0480   19.0240 C.2   218  LEU218      0.2287
    180  O         13.9750   12.6870   19.2100 O.2   218  LEU218     -0.2864
    181  CB        12.4010    9.6450   19.3360 C.3   218  LEU218      0.0297
    182  CG        12.4240    8.2130   18.7960 C.3   218  LEU218      0.0022
    183  CD1       11.9990    7.2550   19.9130 C.3   218  LEU218      0.0001
    184  CD2       11.5110    8.0800   17.5750 C.3   218  LEU218      0.0001
    185  N         12.1180   13.5540   22.3530 N.3   220  LEU220     -0.1245
    186  CA        11.9650   13.1130   23.7470 C.3   220  LEU220      0.1561
    187  C         11.5200   14.2720   24.6150 C.2   220  LEU220      0.2260
    188  O         12.2630   15.2370   24.7760 O.2   220  LEU220     -0.2867
    189  CB        13.2800   12.5190   24.2730 C.3   220  LEU220      0.0270
    190  CG        13.8410   11.3790   23.3990 C.3   220  LEU220      0.0019
    191  CD1       15.1600   10.7790   23.9430 C.3   220  LEU220      0.0001
    192  CD2       12.7520   10.3130   23.1600 C.3   220  LEU220      0.0001
    193  N         15.0600   13.4520   32.6850 N.3   293  ILE293     -0.1245
    194  CA        16.3100   14.2200   32.7370 C.3   293  ILE293      0.1561
    195  C         16.2010   15.7460   32.8880 C.2   293  ILE293      0.2260
    196  O         17.2140   16.4180   33.0430 O.2   293  ILE293     -0.2867
    197  CB        17.2170   13.9520   31.5590 C.3   293  ILE293      0.0252
    198  CG1       16.5540   14.4470   30.2820 C.3   293  ILE293      0.0019
    199  CG2       17.5650   12.4780   31.4700 C.3   293  ILE293      0.0019
    200  CD1       17.4050   14.2220   29.0820 C.3   293  ILE293      0.0001
    201  N         15.1440   18.1390   30.6340 N.3   295  PHE295     -0.1241
    202  CA        15.1690   18.9920   29.4450 C.3   295  PHE295      0.1605
    203  C         14.8030   18.0790   28.2910 C.2   295  PHE295      0.2264
    204  O         14.8170   16.8630   28.4560 O.2   295  PHE295     -0.2867
    205  CB        16.4980   19.7240   29.2370 C.3   295  PHE295      0.0534
    206  CG        17.6790   18.8100   29.0670 C.ar  295  PHE295     -0.0203
    207  CD1       18.3430   18.3090   30.1750 C.ar  295  PHE295     -0.0042
    208  CD2       18.0870   18.4040   27.8050 C.ar  295  PHE295     -0.0042
    209  CE1       19.4500   17.4710   30.0220 C.ar  295  PHE295     -0.0003
    210  CE2       19.1630   17.5240   27.6540 C.ar  295  PHE295     -0.0003
    211  CZ        19.8400   17.0580   28.7670 C.ar  295  PHE295     -0.0000
    212  N         14.7720   16.6150   24.2470 N.3   297  ILE297     -0.1245
    213  CA        15.7090   16.3190   23.1790 C.3   297  ILE297      0.1561
    214  C         14.9930   16.4750   21.8400 C.2   297  ILE297      0.2260
    215  O         14.0780   15.7010   21.5240 O.2   297  ILE297     -0.2867
    216  CB        16.2990   14.9020   23.3070 C.3   297  ILE297      0.0252
    217  CG1       17.1030   14.7670   24.6050 C.3   297  ILE297      0.0019
    218  CG2       17.2310   14.6260   22.1240 C.3   297  ILE297      0.0019
    219  CD1       16.2670   14.8030   25.8500 C.3   297  ILE297      0.0001
@<TRIPOS>BOND
     1     4     3    2
     2   108   109    1
     3     3     2    1
     4   109   110    1
     5   109   112    1
     6   110   111    2
     7   112   113    1
     8    10    11    1
     9     6     7    1
    10     6     5    1
    11     1     2    1
    12     2     5    1
    13    11    12    1
    14    11    14    1
    15     7     8   ar
    16     7     9   ar
    17   106   105   ar
    18    12    13    2
    19   113   114    2
    20   113   115   am
    21   102   103    2
    22   102   101    1
    23    14    15    1
    24    16    15    2
    25    15    17   am
    26   105   107   ar
    27   105   104    1
    28   101   104    1
    29   101   100    1
    30    18    19    1
    31   118   117    1
    32   118   119    2
    33   116   117    1
    34   117   120    1
    35   176   174    1
    36   173   172    2
    37    19    20    1
    38    19    22    1
    39    92    91    2
    40   122   121    1
    41   175   174    1
    42   120   121    1
    43   171   174    1
    44   171   172    1
    45   171   170    1
    46   121   123    1
    47   159   160    1
    48    20    21    2
    49   172   177   am
    50    22    23    1
    51   166   165    2
    52   160   161    1
    53    91    90    1
    54   170   165   am
    55   153   154    2
    56   153   152    1
    57   165   164    1
    58   184   182    1
    59   161   162    2
    60   161   163   am
    61    83    82    2
    62   163   164    1
    63   177   178    1
    64    90    93    1
    65    90    89    1
    66    23    24   ar
    67    23    25   ar
    68    95    97   ar
    69    95    94   ar
    70   178   179    1
    71   178   181    1
    72    93    94    1
    73   151   152    1
    74   152   155    1
    75   164   167    1
    76    97    99   ar
    77   182   181    1
    78   182   183    1
    79    94    96   ar
    80   179   180    2
    81    82    89   am
    82    82    81    1
    83    26    27    1
    84   157   156   ar
    85    33    32    2
    86   155   156    1
    87   167   169    1
    88   167   168    1
    89    35    34    1
    90    99    98   ar
    91   156   158   ar
    92    81    84    1
    93    81    80    1
    94    96    98   ar
    95    32    31    1
    96    61    60    1
    97    30    31    1
    98    30    28   am
    99    27    28    1
   100    84    85    1
   101   146   145    2
   102    31    34    1
   103   145   144    1
   104    28    29    2
   105    60    58   ar
   106    60    59   ar
   107   215   214    2
   108    58    56   ar
   109   214   213    1
   110    59    57   ar
   111   218   216    1
   112    85    86    1
   113   185   186    1
   114    73    71   ar
   115    56    55   ar
   116   144   147    1
   117   144   143    1
   118    57    55   ar
   119    79    78    1
   120   134   135    2
   121   134   133    1
   122    55    54    1
   123   192   190    1
   124   213   216    1
   125   213   212    1
   126    78    75    1
   127   216   217    1
   128    43    41    1
   129   147   148    1
   130   147   149    1
   131    42    40    1
   132   190   191    1
   133   190   189    1
   134   148   150    1
   135    71    72   ar
   136    71    70    1
   137    86    87    2
   138    86    88   am
   139   186   189    1
   140   186   187    1
   141   133   136    1
   142   133   132    1
   143    54    51    1
   144    70    67    1
   145   136   137    1
   146   138   140   ar
   147   138   137   ar
   148    40    41    1
   149    40    37    1
   150   217   219    1
   151   187   188    2
   152    75    76    1
   153    75    74    1
   154   129   131    1
   155   129   128    1
   156    76    77    2
   157   140   142   ar
   158   137   139   ar
   159   126   127    2
   160   126   125    1
   161    51    50    1
   162    51    52    1
   163   124   125    1
   164    66    67    1
   165    66    64   am
   166    67    68    1
   167    39    38    2
   168    37    36    1
   169    37    38    1
   170    62    52   am
   171    62    63    1
   172    50    46   am
   173   125   128    1
   174   128   130    1
   175    38    44   am
   176    52    53    2
   177    68    69    2
   178   142   141   ar
   179   139   141   ar
   180    63    64    1
   181    64    65    2
   182    46    47    2
   183    46    45    1
   184    44    45    1
   185    45    48    1
   186   210   208   ar
   187   210   211   ar
   188   208   206   ar
   189   203   204    2
   190   203   202    1
   191    48    49    1
   192   211   209   ar
   193   206   205    1
   194   206   207   ar
   195   200   198    1
   196   205   202    1
   197   202   201    1
   198   209   207   ar
   199   198   197    1
   200   199   197    1
   201   197   194    1
   202   193   194    1
   203   194   195    1
   204   195   196    2
