@<TRIPOS>MOLECULE
tmp/2wecA01.pdb
 216 202 0 0 0
SMALL
GASTEIGER

@<TRIPOS>ATOM
      1  N         16.0460    5.9690   11.0260 N.3    15  GLU15      -0.1231
      2  CA        16.5470    5.7730   12.3720 C.3    15  GLU15       0.1699
      3  C         17.7890    6.6020   12.6530 C.2    15  GLU15       0.2592
      4  O         17.9810    7.1100   13.7550 O.2    15  GLU15      -0.2718
      5  CB        16.8100    4.3110   12.6570 C.3    15  GLU15       0.0402
      6  CG        17.1560    4.1070   14.1330 C.3    15  GLU15       0.1161
      7  CD        17.2030    2.6580   14.5400 C.2    15  GLU15       0.3649
      8  OE1       17.2550    1.7780   13.6540 O.co2  15  GLU15      -0.2457
      9  OE2       17.1720    2.4030   15.7600 O.co2  15  GLU15      -0.2457
     10  N         18.6060    6.7560   11.6340 N.am   16  GLU16      -0.1979
     11  CA        19.7940    7.5800   11.7410 C.3    16  GLU16       0.1602
     12  C         20.1260    8.1040   10.3440 C.2    16  GLU16       0.2287
     13  O         19.5880    7.6340    9.3500 O.2    16  GLU16      -0.2864
     14  CB        20.9590    6.8180   12.3650 C.3    16  GLU16       0.0415
     15  CG        21.2420    5.4770   11.7640 C.3    16  GLU16       0.1163
     16  CD        22.3480    4.7230   12.5180 C.2    16  GLU16       0.3649
     17  OE1       23.5220    5.1190   12.3940 O.co2  16  GLU16      -0.2457
     18  OE2       22.0530    3.6930   13.1540 O.co2  16  GLU16      -0.2457
     19  N         27.6170    8.9580   11.3660 N.3    31  ASN31      -0.1240
     20  CA        26.3580    9.5300   11.8650 C.3    31  ASN31       0.1653
     21  C         26.7420   10.9190   12.4530 C.2    31  ASN31       0.2266
     22  O         27.5420   10.9720   13.3740 O.2    31  ASN31      -0.2867
     23  CB        25.8730    8.5850   12.9830 C.3    31  ASN31       0.1155
     24  CG        24.5940    9.0150   13.6040 C.2    31  ASN31       0.2627
     25  OD1       24.0200   10.0190   13.2180 O.2    31  ASN31      -0.2716
     26  ND2       24.1340    8.2560   14.6000 N.am   31  ASN31      -0.0877
     27  N         26.2480   13.9570   14.7730 N.3    33  ASP33      -0.1239
     28  CA        25.5210   14.0970   16.0150 C.3    33  ASP33       0.1674
     29  C         25.7760   15.4490   16.7070 C.2    33  ASP33       0.2266
     30  O         26.8170   15.6670   17.3290 O.2    33  ASP33      -0.2867
     31  CB        26.0070   12.9330   16.9040 C.3    33  ASP33       0.1410
     32  CG        25.3590   12.9110   18.2490 C.2    33  ASP33       0.3668
     33  OD1       24.3500   13.6140   18.4510 O.co2  33  ASP33      -0.2456
     34  OD2       25.8890   12.2000   19.1310 O.co2  33  ASP33      -0.2456
     35  N         24.5760   16.3920   19.2930 N.3    35  GLY35      -0.1225
     36  CA        24.4540   16.1480   20.7180 C.3    35  GLY35       0.1811
     37  C         25.7440   15.6460   21.3980 C.2    35  GLY35       0.2280
     38  O         25.7500   15.4010   22.5950 O.2    35  GLY35      -0.2866
     39  N         26.6790    7.3460   25.7140 N.3    75  TYR75      -0.1227
     40  CA        25.5190    8.0220   25.1500 C.3    75  TYR75       0.1736
     41  C         24.2580    7.7460   25.9260 C.2    75  TYR75       0.2596
     42  O         24.1760    6.7340   26.6570 O.2    75  TYR75      -0.2718
     43  CB        25.3290    7.6140   23.7030 C.3    75  TYR75       0.0548
     44  CG        26.5300    7.9590   22.8680 C.ar   75  TYR75      -0.0200
     45  CD1       26.6950    9.2420   22.3570 C.ar   75  TYR75      -0.0009
     46  CD2       27.5190    7.0130   22.6210 C.ar   75  TYR75      -0.0009
     47  CE1       27.7950    9.5700   21.5750 C.ar   75  TYR75       0.0417
     48  CE2       28.6090    7.3220   21.8430 C.ar   75  TYR75       0.0417
     49  CZ        28.7420    8.6050   21.3190 C.ar   75  TYR75       0.1957
     50  OH        29.8260    8.9080   20.5370 O.3    75  TYR75      -0.2866
     51  N         23.2670    8.6260   25.7180 N.am   76  GLY76      -0.1942
     52  CA        21.9800    8.5420   26.3630 C.3    76  GLY76       0.2014
     53  C         21.2860    7.1980   26.1760 C.2    76  GLY76       0.2638
     54  O         20.6630    6.6750   27.1180 O.2    76  GLY76      -0.2714
     55  N         21.4050    6.6150   24.9860 N.am   77  ASP77      -0.1971
     56  CA        20.7770    5.3260   24.7550 C.3    77  ASP77       0.1709
     57  C         21.4960    4.1480   25.4290 C.2    77  ASP77       0.2293
     58  O         21.0870    2.9930   25.2890 O.2    77  ASP77      -0.2864
     59  CB        20.5020    5.0760   23.2770 C.3    77  ASP77       0.1436
     60  CG        21.7510    4.9220   22.4750 C.2    77  ASP77       0.3671
     61  OD1       22.8450    4.8040   23.0870 O.co2  77  ASP77      -0.2456
     62  OD2       21.6380    4.9830   21.2290 O.co2  77  ASP77      -0.2456
     63  N         25.0440   -2.4230   14.9430 N.3   115  ASP115     -0.1239
     64  CA        24.7140   -1.4490   13.9110 C.3   115  ASP115      0.1674
     65  C         25.7450   -1.3460   12.7850 C.2   115  ASP115      0.2266
     66  O         26.7870   -0.7160   12.9380 O.2   115  ASP115     -0.2867
     67  CB        24.5060   -0.0890   14.5710 C.3   115  ASP115      0.1410
     68  CG        23.9460    0.9600   13.6100 C.2   115  ASP115      0.3668
     69  OD1       23.8500    0.6810   12.3890 O.co2 115  ASP115     -0.2456
     70  OD2       23.6090    2.0630   14.1040 O.co2 115  ASP115     -0.2456
     71  N         25.7850   21.9750   24.7380 N.3   190  PHE190     -0.1241
     72  CA        24.7610   21.6630   23.7340 C.3   190  PHE190      0.1605
     73  C         24.2310   22.8920   23.0090 C.2   190  PHE190      0.2264
     74  O         24.4040   24.0180   23.4790 O.2   190  PHE190     -0.2867
     75  CB        23.5340   20.9620   24.3570 C.3   190  PHE190      0.0534
     76  CG        23.8480   19.6740   25.0780 C.ar  190  PHE190     -0.0203
     77  CD1       24.4190   18.5800   24.4070 C.ar  190  PHE190     -0.0042
     78  CD2       23.5390   19.5410   26.4130 C.ar  190  PHE190     -0.0042
     79  CE1       24.7260   17.3790   25.1020 C.ar  190  PHE190     -0.0003
     80  CE2       23.8240   18.3380   27.0950 C.ar  190  PHE190     -0.0003
     81  CZ        24.4080   17.2690   26.4250 C.ar  190  PHE190     -0.0000
     82  N         17.4130   20.6060   23.5140 N.3   211  ILE211     -0.1245
     83  CA        18.5600   20.6810   22.6270 C.3   211  ILE211      0.1561
     84  C         18.2440   20.2030   21.2100 C.2   211  ILE211      0.2260
     85  O         17.4490   19.2670   21.0330 O.2   211  ILE211     -0.2867
     86  CB        19.7500   19.9120   23.1870 C.3   211  ILE211      0.0252
     87  CG1       19.4850   18.4030   23.1600 C.3   211  ILE211      0.0019
     88  CG2       20.0030   20.3140   24.6160 C.3   211  ILE211      0.0019
     89  CD1       20.7800   17.5840   23.4870 C.3   211  ILE211      0.0001
     90  N         19.2010   18.1210   18.4090 N.3   213  ASP213     -0.1239
     91  CA        20.0890   16.9620   18.3490 C.3   213  ASP213      0.1674
     92  C         19.8400   16.0420   17.1330 C.2   213  ASP213      0.2266
     93  O         18.9510   15.1740   17.1630 O.2   213  ASP213     -0.2867
     94  CB        19.9230   16.1740   19.6580 C.3   213  ASP213      0.1410
     95  CG        20.9600   15.0470   19.8140 C.2   213  ASP213      0.3668
     96  OD1       21.7190   14.7850   18.8740 O.co2 213  ASP213     -0.2456
     97  OD2       20.9960   14.4290   20.8800 O.co2 213  ASP213     -0.2456
     98  N         21.5760   13.6320   16.2610 N.3   215  GLY215     -0.1210
     99  CA        21.9430   12.2670   16.6360 C.3   215  GLY215      0.1956
    100  C         20.8670   11.4500   17.3390 C.2   215  GLY215      0.2613
    101  O         21.1070   10.2950   17.6390 O.2   215  GLY215     -0.2717
    102  N         19.7230   12.0530   17.6700 N.am  216  THR216     -0.1938
    103  CA        18.6590   11.3190   18.3590 C.3   216  THR216      0.2028
    104  C         17.5200   11.1130   17.3670 C.2   216  THR216      0.2643
    105  O         17.0990   12.0430   16.6780 O.2   216  THR216     -0.2714
    106  CB        18.1780   12.0640   19.6540 C.3   216  THR216      0.1808
    107  OG1       19.2420   12.0440   20.6200 O.3   216  THR216     -0.2208
    108  CG2       16.9760   11.3970   20.2590 C.3   216  THR216      0.0379
    109  N         17.0360    9.8890   17.2640 N.am  217  THR217     -0.1936
    110  CA        15.9870    9.6010   16.2810 C.3   217  THR217      0.2028
    111  C         14.6600   10.3040   16.5320 C.2   217  THR217      0.2642
    112  O         13.9850   10.7650   15.5980 O.2   217  THR217     -0.2714
    113  CB        15.6870    8.0990   16.3160 C.3   217  THR217      0.1808
    114  OG1       16.9260    7.3810   16.1570 O.3   217  THR217     -0.2208
    115  CG2       14.7240    7.7290   15.2160 C.3   217  THR217      0.0379
    116  N         14.2710   10.3020   17.7920 N.am  218  LEU218     -0.1977
    117  CA        12.9490   10.7760   18.1730 C.3   218  LEU218      0.1596
    118  C         12.9100   12.1230   18.8740 C.2   218  LEU218      0.2287
    119  O         13.9470   12.7460   19.0900 O.2   218  LEU218     -0.2864
    120  CB        12.2850    9.7030   19.0390 C.3   218  LEU218      0.0297
    121  CG        12.2560    8.3200   18.3920 C.3   218  LEU218      0.0022
    122  CD1       11.6290    7.3250   19.3660 C.3   218  LEU218      0.0001
    123  CD2       11.4950    8.3290   17.0640 C.3   218  LEU218      0.0001
    124  N         12.0600   13.6040   22.2090 N.3   220  LEU220     -0.1245
    125  CA        11.9350   13.1510   23.5990 C.3   220  LEU220      0.1561
    126  C         11.5120   14.3180   24.4920 C.2   220  LEU220      0.2260
    127  O         12.2520   15.2980   24.6370 O.2   220  LEU220     -0.2867
    128  CB        13.2460   12.5150   24.0710 C.3   220  LEU220      0.0270
    129  CG        13.8490   11.4150   23.1630 C.3   220  LEU220      0.0019
    130  CD1       15.1720   10.8230   23.7570 C.3   220  LEU220      0.0001
    131  CD2       12.8040   10.2920   22.9550 C.3   220  LEU220      0.0001
    132  N          8.4900   -2.6730   21.5900 N.3   242  ALA242     -0.1231
    133  CA         8.7420   -1.6460   20.5730 C.3   242  ALA242      0.1694
    134  C          9.6150   -0.5060   21.0920 C.2   242  ALA242      0.2592
    135  O         10.3630    0.1080   20.3410 O.2   242  ALA242     -0.2718
    136  CB         7.4250   -1.1100   20.0560 C.3   242  ALA242      0.0304
    137  N          9.5510   -0.2400   22.3880 N.am  243  GLY243     -0.1957
    138  CA        10.3700    0.8370   22.9400 C.3   243  GLY243      0.1869
    139  C          9.6040    2.0800   23.3940 C.2   243  GLY243      0.2309
    140  O         10.2000    3.1020   23.7340 O.2   243  GLY243     -0.2863
    141  N          6.3770    7.3350   13.2800 N.3   274  TYR274     -0.1241
    142  CA         7.7560    6.9330   12.9790 C.3   274  TYR274      0.1605
    143  C          7.8740    5.7820   11.9850 C.2   274  TYR274      0.2264
    144  O          8.6870    5.8090   11.0630 O.2   274  TYR274     -0.2867
    145  CB         8.4990    6.6220   14.2800 C.3   274  TYR274      0.0534
    146  CG         9.8470    5.9740   14.0780 C.ar  274  TYR274     -0.0201
    147  CD1       10.9170    6.7130   13.6130 C.ar  274  TYR274     -0.0009
    148  CD2       10.0640    4.6400   14.4240 C.ar  274  TYR274     -0.0009
    149  CE1       12.1680    6.1410   13.4700 C.ar  274  TYR274      0.0417
    150  CE2       11.3270    4.0570   14.2900 C.ar  274  TYR274      0.0417
    151  CZ        12.3730    4.8300   13.8130 C.ar  274  TYR274      0.1957
    152  OH        13.6370    4.3040   13.6610 O.3   274  TYR274     -0.2866
    153  N          5.2370    2.8570   15.7830 N.3   284  LEU284     -0.1245
    154  CA         5.8540    3.4920   16.9130 C.3   284  LEU284      0.1561
    155  C          5.6790    5.0150   16.8260 C.2   284  LEU284      0.2260
    156  O          5.8390    5.5730   15.7570 O.2   284  LEU284     -0.2867
    157  CB         7.3540    3.1450   16.9020 C.3   284  LEU284      0.0270
    158  CG         8.1640    3.7410   18.0570 C.3   284  LEU284      0.0019
    159  CD1        7.8540    3.0780   19.3850 C.3   284  LEU284      0.0001
    160  CD2        9.6610    3.7790   17.7760 C.3   284  LEU284      0.0001
    161  N          8.4170   10.3960   22.5330 N.3   288  GLN288     -0.1231
    162  CA         8.5840    9.4140   23.6100 C.3   288  GLN288      0.1698
    163  C          9.2320   10.1290   24.7720 C.2   288  GLN288      0.2593
    164  O          9.6660   11.3030   24.6430 O.2   288  GLN288     -0.2718
    165  CB         9.4890    8.2480   23.1770 C.3   288  GLN288      0.0381
    166  CG         9.0120    7.4260   21.9300 C.3   288  GLN288      0.0905
    167  CD         7.6980    6.6480   22.1400 C.2   288  GLN288      0.2608
    168  OE1        7.2350    6.4680   23.2830 O.2   288  GLN288     -0.2717
    169  NE2        7.0730    6.2100   21.0190 N.am  288  GLN288     -0.0878
    170  N          9.2910    9.4280   25.9040 N.am  289  SER289     -0.1938
    171  CA         9.8420    9.9780   27.1450 C.3   289  SER289      0.2055
    172  C         11.3290   10.3230   27.0970 C.2   289  SER289      0.2643
    173  O         12.1230    9.5980   26.5050 O.2   289  SER289     -0.2714
    174  CB         9.6390    8.9320   28.2590 C.3   289  SER289      0.2130
    175  OG        10.2910    9.2890   29.4630 O.3   289  SER289     -0.2179
    176  N         11.6960   11.3920   27.7950 N.am  290  ASN290     -0.1957
    177  CA        13.0780   11.8010   27.9220 C.3   290  ASN290      0.1819
    178  C         13.6840   11.1920   29.1820 C.2   290  ASN290      0.2622
    179  O         14.7540   11.6220   29.6320 O.2   290  ASN290     -0.2715
    180  CB        13.2130   13.3210   27.9510 C.3   290  ASN290      0.1195
    181  CG        12.4950   13.9420   29.1240 C.2   290  ASN290      0.2630
    182  OD1       11.9410   13.2390   29.9720 O.2   290  ASN290     -0.2716
    183  ND2       12.4880   15.2710   29.1840 N.am  290  ASN290     -0.0877
    184  N         13.0080   10.2100   29.7720 N.am  291  SER291     -0.1950
    185  CA        13.5620    9.5280   30.9390 C.3   291  SER291      0.1924
    186  C         13.7510   10.3520   32.2080 C.2   291  SER291      0.2314
    187  O         14.5200    9.9560   33.0940 O.2   291  SER291     -0.2863
    188  CB        14.8710    8.8090   30.5840 C.3   291  SER291      0.2116
    189  OG        14.6450    7.8530   29.5680 O.3   291  SER291     -0.2180
    190  N         15.1430   13.3750   32.4690 N.3   293  ILE293     -0.1245
    191  CA        16.3630   14.2080   32.5180 C.3   293  ILE293      0.1561
    192  C         16.2250   15.7290   32.7420 C.2   293  ILE293      0.2260
    193  O         17.2220   16.3960   32.9740 O.2   293  ILE293     -0.2867
    194  CB        17.3120   13.9990   31.3420 C.3   293  ILE293      0.0252
    195  CG1       16.6420   14.4640   30.0470 C.3   293  ILE293      0.0019
    196  CG2       17.8080   12.5560   31.3120 C.3   293  ILE293      0.0019
    197  CD1       17.4850   14.2410   28.7980 C.3   293  ILE293      0.0001
    198  N         15.1380   18.1000   30.5640 N.3   295  PHE295     -0.1241
    199  CA        15.1710   18.9170   29.3550 C.3   295  PHE295      0.1605
    200  C         14.7830   18.0360   28.1830 C.2   295  PHE295      0.2264
    201  O         14.8090   16.7970   28.2890 O.2   295  PHE295     -0.2867
    202  CB        16.4990   19.6850   29.1380 C.3   295  PHE295      0.0534
    203  CG        17.6940   18.7990   28.9460 C.ar  295  PHE295     -0.0203
    204  CD1       18.3760   18.2930   30.0360 C.ar  295  PHE295     -0.0042
    205  CD2       18.0750   18.4060   27.6740 C.ar  295  PHE295     -0.0042
    206  CE1       19.4570   17.4540   29.8600 C.ar  295  PHE295     -0.0003
    207  CE2       19.1710   17.5570   27.4910 C.ar  295  PHE295     -0.0003
    208  CZ        19.8520   17.0840   28.5850 C.ar  295  PHE295     -0.0000
    209  N         14.7220   16.6570   24.1170 N.3   297  ILE297     -0.1245
    210  CA        15.6410   16.3640   23.0360 C.3   297  ILE297      0.1561
    211  C         14.9040   16.5310   21.7240 C.2   297  ILE297      0.2260
    212  O         14.0250   15.7110   21.3910 O.2   297  ILE297     -0.2867
    213  CB        16.2480   14.9450   23.1100 C.3   297  ILE297      0.0252
    214  CG1       16.8530   14.6410   24.5000 C.3   297  ILE297      0.0019
    215  CG2       17.2560   14.7660   21.9700 C.3   297  ILE297      0.0019
    216  CD1       15.8420   14.5700   25.5940 C.3   297  ILE297      0.0001
@<TRIPOS>BOND
     1    13    12    2
     2    12    11    1
     3     1     2    1
     4   144   143    2
     5    19    20    1
     6    10    11    1
     7    10     3   am
     8    11    14    1
     9    15    14    1
    10    15    16    1
    11    20    21    1
    12    20    23    1
    13   143   142    1
    14     2     3    1
    15     2     5    1
    16    69    68   ar
    17    17    16   ar
    18    21    22    2
    19    16    18   ar
    20     3     4    2
    21     5     6    1
    22    65    66    2
    23    65    64    1
    24   142   141    1
    25   142   145    1
    26    23    24    1
    27    25    24    2
    28   149   147   ar
    29   149   151   ar
    30    24    26   am
    31    68    70   ar
    32    68    67    1
    33   147   146   ar
    34     8     7   ar
    35   152   151    1
    36   151   150   ar
    37    64    67    1
    38    64    63    1
    39   146   145    1
    40   146   148   ar
    41     6     7    1
    42   150   148   ar
    43     7     9   ar
    44    27    28    1
    45   115   113    1
    46   112   111    2
    47   156   155    2
    48   153   154    1
    49    28    29    1
    50    28    31    1
    51   114   113    1
    52    98    99    1
    53   110   113    1
    54   110   111    1
    55   110   109    1
    56   111   116   am
    57    99   100    1
    58   105   104    2
    59    29    30    2
    60   155   154    1
    61   157   154    1
    62   157   158    1
    63    31    32    1
    64   123   121    1
    65    92    93    2
    66    92    91    1
    67   109   104   am
    68   100   101    2
    69   100   102   am
    70   104   103    1
    71   102   103    1
    72   160   158    1
    73   116   117    1
    74   158   159    1
    75   117   118    1
    76   117   120    1
    77    32    33   ar
    78    32    34   ar
    79    91    90    1
    80    91    94    1
    81   103   106    1
    82   121   120    1
    83   121   122    1
    84   118   119    2
    85    96    95   ar
    86    35    36    1
    87   106   108    1
    88   106   107    1
    89    94    95    1
    90    95    97   ar
    91   136   133    1
    92   135   134    2
    93    50    49    1
    94   133   134    1
    95   133   132    1
    96    36    37    1
    97   169   167   am
    98    85    84    2
    99   134   137   am
   100    84    83    1
   101    62    60   ar
   102    49    47   ar
   103    49    48   ar
   104   212   211    2
   105    37    38    2
   106    47    45   ar
   107   211   210    1
   108    48    46   ar
   109   166   167    1
   110   166   165    1
   111   215   213    1
   112   167   168    2
   113   124   125    1
   114    45    44   ar
   115   137   138    1
   116    60    61   ar
   117    60    59    1
   118   161   162    1
   119    46    44   ar
   120    83    86    1
   121    83    82    1
   122    44    43    1
   123   138   139    1
   124   131   129    1
   125    73    74    2
   126    73    72    1
   127   210   213    1
   128   210   209    1
   129   213   214    1
   130    87    86    1
   131    87    89    1
   132   129   130    1
   133   129   128    1
   134   165   162    1
   135    86    88    1
   136    59    56    1
   137   139   140    2
   138   125   128    1
   139   125   126    1
   140   162   163    1
   141    43    40    1
   142    72    75    1
   143    72    71    1
   144    75    76    1
   145    77    76   ar
   146    77    79   ar
   147   126   127    2
   148   214   216    1
   149   164   163    2
   150    56    55    1
   151    56    57    1
   152   163   170   am
   153    55    53   am
   154    76    78   ar
   155    79    81   ar
   156    40    39    1
   157    40    41    1
   158    58    57    2
   159    51    41   am
   160    51    52    1
   161   170   171    1
   162    41    42    2
   163    53    52    1
   164    53    54    2
   165    78    80   ar
   166    81    80   ar
   167   173   172    2
   168   172   171    1
   169   172   176   am
   170   171   174    1
   171   207   205   ar
   172   207   208   ar
   173   205   203   ar
   174   176   177    1
   175   177   180    1
   176   177   178    1
   177   180   181    1
   178   200   201    2
   179   200   199    1
   180   174   175    1
   181   208   206   ar
   182   197   195    1
   183   203   202    1
   184   203   204   ar
   185   181   183   am
   186   181   182    2
   187   202   199    1
   188   178   179    2
   189   178   184   am
   190   199   198    1
   191   189   188    1
   192   184   185    1
   193   206   204   ar
   194   195   194    1
   195   188   185    1
   196   185   186    1
   197   196   194    1
   198   194   191    1
   199   186   187    2
   200   190   191    1
   201   191   192    1
   202   192   193    2
