@<TRIPOS>MOLECULE
tmp/2wedA01.pdb
 195 183 0 0 0
SMALL
GASTEIGER

@<TRIPOS>ATOM
      1  N         16.1480    5.8840   11.1350 N.3    15  GLU15      -0.1245
      2  CA        16.7240    5.6560   12.4430 C.3    15  GLU15       0.1567
      3  C         17.9940    6.4670   12.6770 C.2    15  GLU15       0.2260
      4  O         18.2820    6.9140   13.8010 O.2    15  GLU15      -0.2867
      5  CB        17.0090    4.1870   12.6270 C.3    15  GLU15       0.0388
      6  CG        17.4090    3.9070   14.0400 C.3    15  GLU15       0.1160
      7  CD        17.4410    2.4340   14.3250 C.2    15  GLU15       0.3649
      8  OE1       17.0650    1.6520   13.4110 O.co2  15  GLU15      -0.2457
      9  OE2       17.8630    2.0630   15.4520 O.co2  15  GLU15      -0.2457
     10  N         27.8800    9.0180   11.4210 N.3    31  ASN31      -0.1240
     11  CA        26.6290    9.6020   11.9100 C.3    31  ASN31       0.1653
     12  C         27.0070   10.9600   12.4950 C.2    31  ASN31       0.2266
     13  O         27.7660   11.0140   13.4530 O.2    31  ASN31      -0.2867
     14  CB        26.1310    8.6500   13.0110 C.3    31  ASN31       0.1155
     15  CG        24.8110    9.0660   13.6290 C.2    31  ASN31       0.2627
     16  OD1       24.2940   10.1470   13.3770 O.2    31  ASN31      -0.2716
     17  ND2       24.2780    8.1940   14.4790 N.am   31  ASN31      -0.0877
     18  N         26.5680   14.1000   14.7090 N.3    33  ASP33      -0.1239
     19  CA        25.7860   14.2340   15.9330 C.3    33  ASP33       0.1674
     20  C         26.0050   15.5490   16.6470 C.2    33  ASP33       0.2266
     21  O         27.0500   15.7490   17.2560 O.2    33  ASP33      -0.2867
     22  CB        26.2780   13.0960   16.8400 C.3    33  ASP33       0.1410
     23  CG        25.6430   13.1090   18.2150 C.2    33  ASP33       0.3668
     24  OD1       24.6180   13.7910   18.3960 O.co2  33  ASP33      -0.2456
     25  OD2       26.1210   12.3230   19.0800 O.co2  33  ASP33      -0.2456
     26  N         24.8040   16.4220   19.3100 N.3    35  GLY35      -0.1210
     27  CA        24.7090   16.1550   20.7510 C.3    35  GLY35       0.1956
     28  C         26.0030   15.6750   21.4510 C.2    35  GLY35       0.2612
     29  O         26.0040   15.4460   22.6670 O.2    35  GLY35      -0.2717
     30  N         27.0940   15.5170   20.7020 N.am   36  SER36      -0.1952
     31  CA        28.3680   15.1150   21.3230 C.3    36  SER36       0.1924
     32  C         29.5010   15.7640   20.5330 C.2    36  SER36       0.2314
     33  O         29.2670   16.3710   19.4670 O.2    36  SER36      -0.2863
     34  CB        28.5380   13.5930   21.4060 C.3    36  SER36       0.2116
     35  OG        28.6700   13.0430   20.1100 O.3    36  SER36      -0.2180
     36  N         33.8830    7.4040   25.7780 N.3    73  ILE73      -0.1231
     37  CA        32.6350    8.1450   25.7590 C.3    73  ILE73       0.1692
     38  C         31.4820    7.1750   25.9820 C.2    73  ILE73       0.2593
     39  O         31.5730    5.9870   25.6130 O.2    73  ILE73      -0.2718
     40  CB        32.4740    8.9100   24.4140 C.3    73  ILE73       0.0266
     41  CG1       31.2240    9.8030   24.4390 C.3    73  ILE73       0.0019
     42  CG2       32.3710    7.9180   23.2410 C.3    73  ILE73       0.0020
     43  CD1       31.1250   10.7550   23.2450 C.3    73  ILE73       0.0001
     44  N         30.4310    7.6820   26.6430 N.am   74  SER74      -0.1938
     45  CA        29.2290    6.8970   26.9520 C.3    74  SER74       0.2055
     46  C         28.0400    7.7540   26.5500 C.2    74  SER74       0.2643
     47  O         27.9840    8.9370   26.8600 O.2    74  SER74      -0.2714
     48  CB        29.1060    6.6200   28.4590 C.3    74  SER74       0.2130
     49  OG        30.1690    5.8030   28.9180 O.3    74  SER74      -0.2179
     50  N         27.1370    7.1590   25.7930 N.am   75  TYR75      -0.1959
     51  CA        25.9780    7.8760   25.2770 C.3    75  TYR75       0.1771
     52  C         24.7530    7.6180   26.1230 C.2    75  TYR75       0.2620
     53  O         24.7180    6.6410   26.8900 O.2    75  TYR75      -0.2715
     54  CB        25.7250    7.5010   23.8060 C.3    75  TYR75       0.0574
     55  CG        26.8940    7.8740   22.9010 C.ar   75  TYR75      -0.0198
     56  CD1       27.0300    9.1640   22.4140 C.ar   75  TYR75      -0.0009
     57  CD2       27.8710    6.9310   22.5490 C.ar   75  TYR75      -0.0009
     58  CE1       28.0920    9.5140   21.5620 C.ar   75  TYR75       0.0417
     59  CE2       28.9490    7.2820   21.7200 C.ar   75  TYR75       0.0417
     60  CZ        29.0450    8.5780   21.2380 C.ar   75  TYR75       0.1957
     61  OH        30.0990    8.9380   20.4090 O.3    75  TYR75      -0.2866
     62  N         23.7230    8.4300   25.8780 N.am   76  GLY76      -0.1940
     63  CA        22.4490    8.3600   26.6000 C.3    76  GLY76       0.2014
     64  C         21.8000    6.9790   26.6330 C.2    76  GLY76       0.2638
     65  O         21.1280    6.6230   27.6160 O.2    76  GLY76      -0.2714
     66  N         21.9790    6.1990   25.5730 N.am   77  ASP77      -0.1971
     67  CA        21.3910    4.8660   25.5140 C.3    77  ASP77       0.1709
     68  C         22.2430    3.8320   26.2490 C.2    77  ASP77       0.2293
     69  O         21.9280    2.6480   26.2290 O.2    77  ASP77      -0.2864
     70  CB        21.2190    4.4110   24.0660 C.3    77  ASP77       0.1436
     71  CG        22.5290    4.0070   23.4450 C.2    77  ASP77       0.3671
     72  OD1       23.5560    4.6600   23.7680 O.co2  77  ASP77      -0.2456
     73  OD2       22.5600    2.9260   22.8050 O.co2  77  ASP77      -0.2456
     74  N         25.3680    2.9390   25.4540 N.3    79  SER79      -0.1217
     75  CA        26.4310    2.3800   24.6170 C.3    79  SER79       0.1889
     76  C         27.7340    3.1660   24.8860 C.2    79  SER79       0.2288
     77  O         27.7030    4.2930   25.3790 O.2    79  SER79      -0.2866
     78  CB        26.0180    2.4640   23.1480 C.3    79  SER79       0.2089
     79  OG        25.8120    3.8240   22.7980 O.3    79  SER79      -0.2183
     80  N         26.0340   -2.4260   21.1540 N.3   111  GLN111     -0.1231
     81  CA        25.2010   -1.6870   20.2330 C.3   111  GLN111      0.1698
     82  C         26.0050   -1.3550   18.9790 C.2   111  GLN111      0.2592
     83  O         25.5050   -1.4490   17.8570 O.2   111  GLN111     -0.2718
     84  CB        24.6620   -0.3950   20.8550 C.3   111  GLN111      0.0381
     85  CG        23.8020   -0.5480   22.1040 C.3   111  GLN111      0.0905
     86  CD        24.6100   -0.6890   23.4070 C.2   111  GLN111      0.2608
     87  OE1       24.1130   -0.3730   24.4980 O.2   111  GLN111     -0.2717
     88  NE2       25.8540   -1.1480   23.2970 N.am  111  GLN111     -0.0878
     89  N         27.2580   -0.9540   19.1620 N.am  112  PHE112     -0.1976
     90  CA        28.0660   -0.6200   18.0100 C.3   112  PHE112      0.1639
     91  C         28.4850   -1.8490   17.2180 C.2   112  PHE112      0.2290
     92  O         28.5050   -1.8310   15.9940 O.2   112  PHE112     -0.2864
     93  CB        29.2490    0.2390   18.4090 C.3   112  PHE112      0.0560
     94  CG        28.8470    1.5800   18.9090 C.ar  112  PHE112     -0.0200
     95  CD1       28.1920    2.4530   18.0790 C.ar  112  PHE112     -0.0042
     96  CD2       29.1250    1.9690   20.2060 C.ar  112  PHE112     -0.0042
     97  CE1       27.8070    3.6900   18.5230 C.ar  112  PHE112     -0.0003
     98  CE2       28.7530    3.2260   20.6660 C.ar  112  PHE112     -0.0003
     99  CZ        28.0950    4.0890   19.8220 C.ar  112  PHE112     -0.0000
    100  N         31.0610    8.1200   14.6660 N.3   121  LEU121     -0.1245
    101  CA        30.2520    9.3280   14.7880 C.3   121  LEU121      0.1561
    102  C         31.1400   10.5400   14.6950 C.2   121  LEU121      0.2260
    103  O         32.3050   10.4820   15.0770 O.2   121  LEU121     -0.2867
    104  CB        29.5940    9.3980   16.1690 C.3   121  LEU121      0.0270
    105  CG        28.3200    8.5790   16.3870 C.3   121  LEU121      0.0019
    106  CD1       28.5650    7.0970   16.5130 C.3   121  LEU121      0.0001
    107  CD2       27.6070    9.1130   17.6070 C.3   121  LEU121      0.0001
    108  N         33.0080   19.7280   25.6060 N.3   129  ILE129     -0.1245
    109  CA        32.6410   18.4040   26.0910 C.3   129  ILE129      0.1561
    110  C         33.3310   17.2490   25.3640 C.2   129  ILE129      0.2260
    111  O         32.9340   16.0900   25.4840 O.2   129  ILE129     -0.2867
    112  CB        31.1200   18.1940   26.2080 C.3   129  ILE129      0.0252
    113  CG1       30.4140   18.3410   24.8480 C.3   129  ILE129      0.0019
    114  CG2       30.5460   19.1930   27.2010 C.3   129  ILE129      0.0019
    115  CD1       28.9380   17.8700   24.8900 C.3   129  ILE129      0.0001
    116  N         26.0220   21.8210   24.8740 N.3   190  PHE190     -0.1241
    117  CA        25.0250   21.4880   23.8530 C.3   190  PHE190      0.1605
    118  C         24.4920   22.7020   23.1430 C.2   190  PHE190      0.2264
    119  O         24.6210   23.8150   23.6440 O.2   190  PHE190     -0.2867
    120  CB        23.8110   20.7870   24.5000 C.3   190  PHE190      0.0534
    121  CG        24.1600   19.5480   25.2780 C.ar  190  PHE190     -0.0203
    122  CD1       24.6290   18.4200   24.6250 C.ar  190  PHE190     -0.0042
    123  CD2       23.8700   19.4600   26.6350 C.ar  190  PHE190     -0.0042
    124  CE1       24.8580   17.2270   25.3160 C.ar  190  PHE190     -0.0003
    125  CE2       24.0770   18.2630   27.3290 C.ar  190  PHE190     -0.0003
    126  CZ        24.5720   17.1570   26.6770 C.ar  190  PHE190     -0.0000
    127  N         17.6580   20.5930   23.6940 N.3   211  ILE211     -0.1245
    128  CA        18.8260   20.6480   22.8310 C.3   211  ILE211      0.1561
    129  C         18.5220   20.1880   21.4060 C.2   211  ILE211      0.2260
    130  O         17.7620   19.2350   21.2220 O.2   211  ILE211     -0.2867
    131  CB        19.9680   19.8310   23.4310 C.3   211  ILE211      0.0252
    132  CG1       19.6400   18.3450   23.4770 C.3   211  ILE211      0.0019
    133  CG2       20.2670   20.3210   24.8440 C.3   211  ILE211      0.0019
    134  CD1       20.8460   17.4890   23.8360 C.3   211  ILE211      0.0001
    135  N         19.5020   18.1260   18.5640 N.3   213  ASP213     -0.1239
    136  CA        20.3680   16.9530   18.5880 C.3   213  ASP213      0.1674
    137  C         20.1070   15.9840   17.4150 C.2   213  ASP213      0.2266
    138  O         19.2820   15.0670   17.5070 O.2   213  ASP213     -0.2867
    139  CB        20.0730   16.2480   19.9260 C.3   213  ASP213      0.1410
    140  CG        20.9190   15.0310   20.1620 C.2   213  ASP213      0.3668
    141  OD1       21.7980   14.7130   19.3360 O.co2 213  ASP213     -0.2456
    142  OD2       20.6540   14.3350   21.1560 O.co2 213  ASP213     -0.2456
    143  N         21.8140   13.5320   16.5800 N.3   215  GLY215     -0.1210
    144  CA        22.2080   12.1720   16.9480 C.3   215  GLY215      0.1956
    145  C         21.1240   11.3190   17.5850 C.2   215  GLY215      0.2613
    146  O         21.3080   10.1140   17.7510 O.2   215  GLY215     -0.2717
    147  N         20.0480   11.9550   18.0480 N.am  216  THR216     -0.1938
    148  CA        18.9250   11.2350   18.6770 C.3   216  THR216      0.2028
    149  C         17.7610   11.0900   17.6820 C.2   216  THR216      0.2643
    150  O         17.3560   12.0490   17.0320 O.2   216  THR216     -0.2714
    151  CB        18.5030   11.9440   19.9790 C.3   216  THR216      0.1808
    152  OG1       19.5640   11.8150   20.9420 O.3   216  THR216     -0.2208
    153  CG2       17.2170   11.3750   20.5210 C.3   216  THR216      0.0379
    154  N         17.2570    9.8770   17.5380 N.am  217  THR217     -0.1936
    155  CA        16.2320    9.5930   16.5400 C.3   217  THR217      0.2028
    156  C         14.8570   10.2530   16.8260 C.2   217  THR217      0.2642
    157  O         14.1870   10.7330   15.9070 O.2   217  THR217     -0.2714
    158  CB        15.9970    8.0600   16.4890 C.3   217  THR217      0.1808
    159  OG1       17.2370    7.3810   16.2940 O.3   217  THR217     -0.2208
    160  CG2       15.0750    7.6830   15.3920 C.3   217  THR217      0.0379
    161  N         14.4330   10.1770   18.0840 N.am  218  LEU218     -0.1977
    162  CA        13.1080   10.6330   18.4990 C.3   218  LEU218      0.1596
    163  C         13.0730   12.0190   19.1030 C.2   218  LEU218      0.2287
    164  O         14.1120   12.6440   19.2900 O.2   218  LEU218     -0.2864
    165  CB        12.5300    9.6380   19.5080 C.3   218  LEU218      0.0297
    166  CG        12.5330    8.2210   18.9530 C.3   218  LEU218      0.0022
    167  CD1       12.0520    7.1970   19.9820 C.3   218  LEU218      0.0001
    168  CD2       11.7460    8.1240   17.6500 C.3   218  LEU218      0.0001
    169  N         12.2020   13.5800   22.4040 N.3   220  LEU220     -0.1245
    170  CA        12.0890   13.1110   23.8040 C.3   220  LEU220      0.1561
    171  C         11.6410   14.2620   24.6960 C.2   220  LEU220      0.2260
    172  O         12.3490   15.2720   24.8430 O.2   220  LEU220     -0.2867
    173  CB        13.4250   12.5050   24.2590 C.3   220  LEU220      0.0270
    174  CG        13.9360   11.3440   23.4030 C.3   220  LEU220      0.0019
    175  CD1       15.2900   10.7590   23.9370 C.3   220  LEU220      0.0001
    176  CD2       12.8800   10.2480   23.3000 C.3   220  LEU220      0.0001
    177  N         15.1300   18.2040   30.7570 N.3   295  PHE295     -0.1241
    178  CA        15.1560   19.0450   29.5530 C.3   295  PHE295      0.1605
    179  C         14.8250   18.1120   28.4070 C.2   295  PHE295      0.2264
    180  O         14.8140   16.8880   28.5850 O.2   295  PHE295     -0.2867
    181  CB        16.4960   19.7860   29.3230 C.3   295  PHE295      0.0534
    182  CG        17.6800   18.8690   29.1330 C.ar  295  PHE295     -0.0203
    183  CD1       18.3980   18.3980   30.2240 C.ar  295  PHE295     -0.0042
    184  CD2       18.0410   18.4320   27.8660 C.ar  295  PHE295     -0.0042
    185  CE1       19.4710   17.5390   30.0410 C.ar  295  PHE295     -0.0003
    186  CE2       19.0990   17.5480   27.6910 C.ar  295  PHE295     -0.0003
    187  CZ        19.8120   17.1040   28.7710 C.ar  295  PHE295     -0.0000
    188  N         14.9010   16.6440   24.3150 N.3   297  ILE297     -0.1245
    189  CA        15.8570   16.3870   23.2380 C.3   297  ILE297      0.1561
    190  C         15.1080   16.5240   21.9120 C.2   297  ILE297      0.2260
    191  O         14.2230   15.7080   21.5960 O.2   297  ILE297     -0.2867
    192  CB        16.4320   14.9770   23.3680 C.3   297  ILE297      0.0252
    193  CG1       17.0010   14.7730   24.7840 C.3   297  ILE297      0.0019
    194  CG2       17.5140   14.7340   22.2980 C.3   297  ILE297      0.0019
    195  CD1       17.2080   13.3580   25.1140 C.3   297  ILE297      0.0001
@<TRIPOS>BOND
     1     1     2    1
     2    10    11    1
     3    11    12    1
     4    11    14    1
     5     2     5    1
     6     2     3    1
     7    12    13    2
     8     5     6    1
     9     3     4    2
    10    14    15    1
    11    16    15    2
    12     8     7   ar
    13    15    17   am
    14     6     7    1
    15     7     9   ar
    16   100   101    1
    17   102   101    1
    18   102   103    2
    19    18    19    1
    20   101   104    1
    21   160   158    1
    22   157   156    2
    23    19    20    1
    24    19    22    1
    25    92    91    2
    26   104   105    1
    27   159   158    1
    28   105   106    1
    29   105   107    1
    30   158   155    1
    31   155   156    1
    32   155   154    1
    33   143   144    1
    34    20    21    2
    35   156   161   am
    36    22    23    1
    37   144   145    1
    38   150   149    2
    39    91    90    1
    40   137   138    2
    41   137   136    1
    42   154   149   am
    43   145   146    2
    44   145   147   am
    45   168   166    1
    46   149   148    1
    47    83    82    2
    48    90    93    1
    49    90    89    1
    50   147   148    1
    51    95    97   ar
    52    95    94   ar
    53   161   162    1
    54    23    24   ar
    55    23    25   ar
    56    93    94    1
    57   162   163    1
    58   162   165    1
    59    97    99   ar
    60   135   136    1
    61   136   139    1
    62   148   151    1
    63    94    96   ar
    64   166   165    1
    65   166   167    1
    66    82    89   am
    67    82    81    1
    68   163   164    2
    69    26    27    1
    70   141   140   ar
    71    33    32    2
    72    99    98   ar
    73   139   140    1
    74   151   153    1
    75   151   152    1
    76    35    34    1
    77   140   142   ar
    78    96    98   ar
    79    81    84    1
    80    81    80    1
    81    61    60    1
    82    32    31    1
    83    30    31    1
    84    30    28   am
    85    27    28    1
    86    84    85    1
    87   130   129    2
    88    60    58   ar
    89    60    59   ar
    90    31    34    1
    91   129   128    1
    92    28    29    2
    93    58    56   ar
    94   191   190    2
    95    59    57   ar
    96   190   189    1
    97    85    86    1
    98   194   192    1
    99   169   170    1
   100    56    55   ar
   101    57    55   ar
   102    79    78    1
   103    73    71   ar
   104   128   131    1
   105   128   127    1
   106    55    54    1
   107   118   119    2
   108   118   117    1
   109    78    75    1
   110   189   192    1
   111   189   188    1
   112    42    40    1
   113    43    41    1
   114    88    86   am
   115   176   174    1
   116   192   193    1
   117   174   175    1
   118   174   173    1
   119    86    87    2
   120   131   132    1
   121   131   133    1
   122    71    72   ar
   123    71    70    1
   124   132   134    1
   125   170   173    1
   126   170   171    1
   127    54    51    1
   128   117   120    1
   129   117   116    1
   130    70    67    1
   131    40    41    1
   132    40    37    1
   133   120   121    1
   134    75    76    1
   135    75    74    1
   136   122   121   ar
   137   122   124   ar
   138   171   172    2
   139   193   195    1
   140   113   115    1
   141   113   112    1
   142    76    77    2
   143    51    50    1
   144    51    52    1
   145   121   123   ar
   146   124   126   ar
   147   110   111    2
   148   110   109    1
   149    67    66    1
   150    67    68    1
   151    66    64   am
   152   108   109    1
   153    39    38    2
   154    37    36    1
   155    37    38    1
   156    50    46   am
   157    62    52   am
   158    62    63    1
   159    38    44   am
   160   109   112    1
   161    52    53    2
   162   112   114    1
   163    69    68    2
   164    46    47    2
   165    46    45    1
   166    63    64    1
   167    64    65    2
   168   123   125   ar
   169    44    45    1
   170   126   125   ar
   171    45    48    1
   172   186   184   ar
   173   186   187   ar
   174   184   182   ar
   175   179   180    2
   176   179   178    1
   177    48    49    1
   178   187   185   ar
   179   182   181    1
   180   182   183   ar
   181   181   178    1
   182   178   177    1
   183   185   183   ar
