@<TRIPOS>MOLECULE
tmp/2wefA00.pdb
 181 171 0 0 0
SMALL
GASTEIGER

@<TRIPOS>ATOM
      1  N         -5.5960   13.0270   21.2470 N.3    36  THR36      -0.1203
      2  CA        -6.9360   12.7570   20.6420 C.3    36  THR36       0.1994
      3  C         -7.2330   11.2580   20.4770 C.2    36  THR36       0.2618
      4  O         -8.4070   10.8950   20.3090 O.2    36  THR36      -0.2717
      5  CB        -7.0870   13.4520   19.2840 C.3    36  THR36       0.1784
      6  OG1       -6.0870   12.9790   18.4070 O.3    36  THR36      -0.2211
      7  CG2       -6.9800   14.9870   19.3920 C.3    36  THR36       0.0376
      8  N         -6.1970   10.4030   20.4930 N.am   37  CYS37      -0.1969
      9  CA        -6.3150    8.9580   20.1950 C.3    37  CYS37       0.1712
     10  C         -5.0160    8.2730   20.4880 C.2    37  CYS37       0.2296
     11  O         -4.0110    8.9510   20.8470 O.2    37  CYS37      -0.2864
     12  CB        -6.7190    8.6670   18.7500 C.3    37  CYS37       0.0983
     13  SG        -5.4910    9.1430   17.5150 S.3    37  CYS37      -0.0798
     14  N         -2.7460    7.0340   18.6370 N.3    39  THR39      -0.1203
     15  CA        -1.6310    7.3440   17.7310 C.3    39  THR39       0.1994
     16  C         -1.2230    8.8260   17.8520 C.2    39  THR39       0.2617
     17  O         -0.3340    9.2420   17.1450 O.2    39  THR39      -0.2717
     18  CB        -1.9280    7.0530   16.2520 C.3    39  THR39       0.1784
     19  OG1       -2.9290    7.9380   15.7360 O.3    39  THR39      -0.2211
     20  CG2       -2.2840    5.5760   16.0450 C.3    39  THR39       0.0376
     21  N         -1.8290    9.5830   18.7820 N.am   40  ASP40      -0.1973
     22  CA        -1.5890   11.0350   18.9690 C.3    40  ASP40       0.1709
     23  C         -1.0970   11.1660   20.4220 C.2    40  ASP40       0.2293
     24  O         -1.9140   11.4110   21.3580 O.2    40  ASP40      -0.2864
     25  CB        -2.9020   11.8280   18.6920 C.3    40  ASP40       0.1436
     26  CG        -2.7970   13.3580   18.8970 C.2    40  ASP40       0.3671
     27  OD1       -1.6660   13.9220   18.7920 O.co2  40  ASP40      -0.2456
     28  OD2       -3.8570   14.0060   19.2150 O.co2  40  ASP40      -0.2456
     29  N          4.2510   22.8750   19.4830 N.3    69  GLU69      -0.1245
     30  CA         3.1600   21.9270   19.3030 C.3    69  GLU69       0.1567
     31  C          2.2730   21.6820   20.5190 C.2    69  GLU69       0.2260
     32  O          1.0140   21.6740   20.4190 O.2    69  GLU69      -0.2867
     33  CB         3.7270   20.5930   18.8960 C.3    69  GLU69       0.0388
     34  CG         2.6940   19.5370   18.6850 C.3    69  GLU69       0.1160
     35  CD         3.2020   18.1870   18.3150 C.2    69  GLU69       0.3649
     36  OE1        4.4100   17.9910   18.2430 O.co2  69  GLU69      -0.2457
     37  OE2        2.3500   17.3450   18.0230 O.co2  69  GLU69      -0.2457
     38  N          8.6280   21.9480   17.0430 N.3   112  ASP112     -0.1239
     39  CA         8.2010   20.6340   17.3080 C.3   112  ASP112      0.1674
     40  C          9.2320   20.0260   18.1910 C.2   112  ASP112      0.2266
     41  O         10.3130   19.7070   17.7430 O.2   112  ASP112     -0.2867
     42  CB         8.0070   19.8090   16.0320 C.3   112  ASP112      0.1410
     43  CG         7.2360   18.5240   16.2950 C.2   112  ASP112      0.3668
     44  OD1        7.2060   18.0460   17.4370 O.co2 112  ASP112     -0.2456
     45  OD2        6.7110   18.0130   15.3180 O.co2 112  ASP112     -0.2456
     46  N          9.3920   15.2410   17.2320 N.3   115  ASP115     -0.1225
     47  CA         8.6510   14.8050   16.0590 C.3   115  ASP115      0.1805
     48  C          8.8970   13.3580   15.8490 C.2   115  ASP115      0.2598
     49  O         10.0560   12.9170   15.7770 O.2   115  ASP115     -0.2718
     50  CB         8.9930   15.6200   14.7760 C.3   115  ASP115      0.1424
     51  CG         8.1440   15.2110   13.5980 C.2   115  ASP115      0.3668
     52  OD1        6.8950   15.3840   13.7300 O.co2 115  ASP115     -0.2456
     53  OD2        8.7410   14.7710   12.5560 O.co2 115  ASP115     -0.2456
     54  N          7.7990   12.5890   15.7540 N.am  116  GLY116     -0.1942
     55  CA         7.8370   11.1470   15.7060 C.3   116  GLY116      0.2014
     56  C          7.6290   10.4990   17.0610 C.2   116  GLY116      0.2639
     57  O          8.1350    9.4040   17.3490 O.2   116  GLY116     -0.2714
     58  N          6.8010   11.1300   17.8770 N.am  117  THR117     -0.1950
     59  CA         6.5330   10.6380   19.2310 C.3   117  THR117      0.1897
     60  C          5.9610    9.1850   19.2920 C.2   117  THR117      0.2313
     61  O          6.3470    8.3470   20.1590 O.2   117  THR117     -0.2863
     62  CB         5.5880   11.6070   19.9380 C.3   117  THR117      0.1794
     63  OG1        6.0930   12.9330   19.9490 O.3   117  THR117     -0.2208
     64  CG2        5.2790   11.1200   21.3720 C.3   117  THR117      0.0378
     65  N          6.4970    6.7490   17.1670 N.3   119  GLU119     -0.1245
     66  CA         7.6230    5.8970   16.9280 C.3   119  GLU119      0.1567
     67  C          8.6270    5.8450   18.0610 C.2   119  GLU119      0.2260
     68  O          9.2360    4.7880   18.3160 O.2   119  GLU119     -0.2867
     69  CB         8.2740    6.2800   15.5800 C.3   119  GLU119      0.0388
     70  CG         7.3960    5.8520   14.4160 C.3   119  GLU119      0.1160
     71  CD         6.1320    6.7260   14.1860 C.2   119  GLU119      0.3649
     72  OE1        6.1150    7.8830   14.6720 O.co2 119  GLU119     -0.2457
     73  OE2        5.1940    6.2740   13.5020 O.co2 119  GLU119     -0.2457
     74  N          3.7930    8.0970    5.9350 N.3   190  THR190     -0.1218
     75  CA         3.4710    7.8020    7.3340 C.3   190  THR190      0.1862
     76  C          3.4410    6.2930    7.6180 C.2   190  THR190      0.2287
     77  O          3.0750    5.4900    6.7640 O.2   190  THR190     -0.2866
     78  CB         2.0750    8.4210    7.6700 C.3   190  THR190      0.1770
     79  OG1        1.7240    8.1290    9.0420 O.3   190  THR190     -0.2211
     80  CG2        1.0030    7.8810    6.6810 C.3   190  THR190      0.0375
     81  N          2.1820    5.5120   11.0070 N.3   192  SER192     -0.1202
     82  CA         1.1170    5.4460   12.0560 C.3   192  SER192      0.2020
     83  C         -0.1690    6.2050   11.7780 C.2   192  SER192      0.2618
     84  O         -1.1720    6.0460   12.5220 O.2   192  SER192     -0.2717
     85  CB         1.7110    5.9720   13.3680 C.3   192  SER192      0.2103
     86  OG         2.7360    5.1080   13.7890 O.3   192  SER192     -0.2182
     87  N         -0.2130    7.0160   10.7070 N.am  193  HIS193     -0.1975
     88  CA        -1.3400    7.8570   10.4400 C.3   193  HIS193      0.1656
     89  C         -1.8340    7.6670    8.9960 C.2   193  HIS193      0.2291
     90  O         -2.2350    8.6100    8.3560 O.2   193  HIS193     -0.2864
     91  CB        -1.0160    9.3460   10.7440 C.3   193  HIS193      0.0771
     92  CG        -0.5090    9.5610   12.1370 C.ar  193  HIS193      0.0820
     93  ND1        0.8130    9.8570   12.4390 N.ar  193  HIS193     -0.2267
     94  CD2       -1.1540    9.4570   13.3320 C.ar  193  HIS193      0.1154
     95  CE1        0.9540    9.9030   13.7600 C.ar  193  HIS193      0.1986
     96  NE2       -0.2280    9.6790   14.3230 N.ar  193  HIS193     -0.2212
     97  N          8.0840    6.9300   10.6860 N.3   214  GLY214     -0.1210
     98  CA         7.5150    8.0400   11.3720 C.3   214  GLY214      0.1956
     99  C          8.3370    9.3400   11.1880 C.2   214  GLY214      0.2612
    100  O          9.4850    9.3050   10.9260 O.2   214  GLY214     -0.2717
    101  N          7.6680   10.4630   11.3940 N.am  215  GLY215     -0.1942
    102  CA         8.2740   11.7820   11.4670 C.3   215  GLY215      0.2014
    103  C          8.3580   12.5330   10.1610 C.2   215  GLY215      0.2638
    104  O          8.7800   11.9890    9.1100 O.2   215  GLY215     -0.2714
    105  N          7.8970   13.7850   10.1900 N.am  216  ALA216     -0.1977
    106  CA         8.0940   14.7260    9.0770 C.3   216  ALA216      0.1597
    107  C          9.5870   15.1110    8.9060 C.2   216  ALA216      0.2287
    108  O         10.0890   15.1670    7.7750 O.2   216  ALA216     -0.2864
    109  CB         7.2160   15.9890    9.2970 C.3   216  ALA216      0.0319
    110  N         11.4550   12.1770    7.3460 N.3   219  LYS219     -0.1245
    111  CA        11.2050   11.9350    5.9090 C.3   219  LYS219      0.1561
    112  C         11.8960   12.9630    5.0250 C.2   219  LYS219      0.2260
    113  O         12.3010   12.6240    3.9650 O.2   219  LYS219     -0.2867
    114  CB         9.7010   11.7920    5.6260 C.3   219  LYS219      0.0271
    115  CG         9.1840   10.4090    6.0960 C.3   219  LYS219      0.0035
    116  CD         7.7000   10.0620    5.7870 C.3   219  LYS219      0.0206
    117  CE         6.7030   10.6670    6.6750 C.3   219  LYS219      0.1093
    118  NZ         6.8460   10.0620    8.0800 N.3   219  LYS219     -0.1314
    119  N          8.2980   12.3830   -0.6190 N.3   231  TYR231     -0.1241
    120  CA         7.5100   12.2570    0.5720 C.3   231  TYR231      0.1605
    121  C          6.1020   12.6450    0.1780 C.2   231  TYR231      0.2264
    122  O          5.8520   13.7600   -0.3250 O.2   231  TYR231     -0.2867
    123  CB         8.1200   13.1810    1.6310 C.3   231  TYR231      0.0534
    124  CG         7.3110   13.4150    2.8910 C.ar  231  TYR231     -0.0201
    125  CD1        6.3560   12.5050    3.3370 C.ar  231  TYR231     -0.0009
    126  CD2        7.4890   14.5980    3.6240 C.ar  231  TYR231     -0.0009
    127  CE1        5.6590   12.7150    4.5220 C.ar  231  TYR231      0.0417
    128  CE2        6.7730   14.8300    4.7750 C.ar  231  TYR231      0.0417
    129  CZ         5.8410   13.8880    5.2080 C.ar  231  TYR231      0.1957
    130  OH         5.1320   14.1020    6.3790 O.3   231  TYR231     -0.2866
    131  N          2.1440   12.6380    1.4500 N.3   233  PHE233     -0.1241
    132  CA         1.2130   12.4910    2.5840 C.3   233  PHE233      0.1605
    133  C         -0.1060   13.2490    2.2740 C.2   233  PHE233      0.2264
    134  O         -0.2550   14.4160    2.5690 O.2   233  PHE233     -0.2867
    135  CB         1.8700   13.0470    3.8370 C.3   233  PHE233      0.0534
    136  CG         1.0450   12.8770    5.0630 C.ar  233  PHE233     -0.0203
    137  CD1        0.6100   11.5950    5.4190 C.ar  233  PHE233     -0.0042
    138  CD2        0.7520   13.9470    5.8600 C.ar  233  PHE233     -0.0042
    139  CE1       -0.1550   11.4230    6.6290 C.ar  233  PHE233     -0.0003
    140  CE2       -0.0140   13.8180    7.0140 C.ar  233  PHE233     -0.0003
    141  CZ        -0.4780   12.5390    7.3990 C.ar  233  PHE233     -0.0000
    142  N         -3.1190   13.8940    3.2930 N.3   235  SER235     -0.1203
    143  CA        -3.9570   13.8750    4.4810 C.3   235  SER235      0.2005
    144  C         -3.6670   15.0850    5.3330 C.2   235  SER235      0.2461
    145  O         -2.5240   15.5630    5.4070 O.2   235  SER235     -0.2732
    146  CB        -3.6840   12.6050    5.2800 C.3   235  SER235      0.2103
    147  OG        -4.1440   12.6780    6.6200 O.3   235  SER235     -0.2182
    148  N         -4.6860   15.5840    6.0040 N.am  236  PRO236     -0.2717
    149  CA        -4.4370   16.5530    7.0550 C.3   236  PRO236      0.1536
    150  C         -3.7210   15.8260    8.2040 C.2   236  PRO236      0.2599
    151  O         -3.6320   14.5880    8.2060 O.2   236  PRO236     -0.2715
    152  CB        -5.8740   17.0260    7.4290 C.3   236  PRO236      0.0310
    153  CG        -6.7460   15.8200    7.0950 C.3   236  PRO236      0.0237
    154  CD        -6.0940   15.0920    5.9600 C.3   236  PRO236      0.0939
    155  N         -3.2050   16.5330    9.1770 N.am  237  GLY237     -0.1941
    156  CA        -2.5530   15.8430   10.2880 C.3   237  GLY237      0.2014
    157  C         -1.2750   16.4650   10.6980 C.2   237  GLY237      0.2639
    158  O         -0.9610   16.5560   11.8850 O.2   237  GLY237     -0.2714
    159  N         -0.4960   16.8790    9.7220 N.am  238  CYS238     -0.1953
    160  CA         0.6980   17.5250   10.0790 C.3   238  CYS238      0.1843
    161  C          0.4750   19.0350   10.1170 C.2   238  CYS238      0.2625
    162  O         -0.5010   19.5160    9.5870 O.2   238  CYS238     -0.2714
    163  CB         1.8310   17.0640    9.2770 C.3   238  CYS238      0.0997
    164  SG         2.0540   17.8180    7.7550 S.3   238  CYS238     -0.0797
    165  N          1.3360   19.7210   10.8330 N.am  239  LYS239     -0.1977
    166  CA         1.1470   21.1080   11.1730 C.3   239  LYS239      0.1596
    167  C          2.3310   21.9450   10.7930 C.2   239  LYS239      0.2287
    168  O          3.3930   21.4360   10.3640 O.2   239  LYS239     -0.2864
    169  CB         0.9420   21.2230   12.6800 C.3   239  LYS239      0.0298
    170  CG        -0.0580   20.2100   13.2700 C.3   239  LYS239      0.0038
    171  CD        -1.4040   20.8460   13.3310 C.3   239  LYS239      0.0206
    172  CE        -2.5410   19.8230   13.7060 C.3   239  LYS239      0.1093
    173  NZ        -2.7170   19.7160   15.1450 N.3   239  LYS239     -0.1314
    174  N          5.8130   20.8850   11.9010 N.3   242  ASP242     -0.1239
    175  CA         6.3250   19.6650   11.2580 C.3   242  ASP242      0.1674
    176  C          7.0530   19.9990    9.9820 C.2   242  ASP242      0.2266
    177  O          7.9860   19.2900    9.5620 O.2   242  ASP242     -0.2867
    178  CB         5.1140   18.7190   10.9100 C.3   242  ASP242      0.1410
    179  CG         4.4900   18.1220   12.1270 C.2   242  ASP242      0.3668
    180  OD1        5.2290   17.4190   12.7970 O.co2 242  ASP242     -0.2456
    181  OD2        3.2920   18.3720   12.4210 O.co2 242  ASP242     -0.2456
@<TRIPOS>BOND
     1   119   120    1
     2   122   121    2
     3   121   120    1
     4   120   123    1
     5   131   132    1
     6   123   124    1
     7   133   134    2
     8   133   132    1
     9   132   135    1
    10   124   125   ar
    11   124   126   ar
    12   142   143    1
    13   125   127   ar
    14   126   128   ar
    15   135   136    1
    16   113   112    2
    17   143   146    1
    18   143   144    1
    19   127   129   ar
    20   128   129   ar
    21   112   111    1
    22   136   137   ar
    23   136   138   ar
    24   129   130    1
    25   146   147    1
    26   144   145    2
    27   144   148   am
    28   137   139   ar
    29   114   111    1
    30   114   115    1
    31   116   115    1
    32   116   117    1
    33   138   140   ar
    34   111   110    1
    35    74    75    1
    36   154   148    1
    37   154   153    1
    38   148   149    1
    39   139   141   ar
    40   117   118    1
    41    80    78    1
    42    77    76    2
    43   140   141   ar
    44   149   152    1
    45   149   150    1
    46   153   152    1
    47    75    76    1
    48    75    78    1
    49    78    79    1
    50   164   163    1
    51   108   107    2
    52   150   151    2
    53   150   155   am
    54    90    89    2
    55   107   106    1
    56    89    88    1
    57   106   109    1
    58   106   105    1
    59   104   103    2
    60   155   156    1
    61   163   160    1
    62   177   176    2
    63   162   161    2
    64   159   160    1
    65   159   157   am
    66   176   175    1
    67   160   161    1
    68   161   165   am
    69   103   105   am
    70   103   102    1
    71   156   157    1
    72   168   167    2
    73    88    87    1
    74    88    91    1
    75    97    98    1
    76   157   158    2
    77    87    83   am
    78    91    92    1
    79   167   166    1
    80   165   166    1
    81   178   175    1
    82   178   179    1
    83   100    99    2
    84    81    82    1
    85   166   169    1
    86    99    98    1
    87    99   101   am
    88   175   174    1
    89   101   102    1
    90    83    82    1
    91    83    84    2
    92    82    85    1
    93   179   181   ar
    94   179   180   ar
    95    92    93   ar
    96    92    94   ar
    97    93    95   ar
    98    53    51   ar
    99   169   170    1
   100   170   171    1
   101   171   172    1
   102    94    96   ar
   103    85    86    1
   104    73    71   ar
   105    51    52   ar
   106    51    50    1
   107   172   173    1
   108    95    96   ar
   109    71    70    1
   110    71    72   ar
   111    70    69    1
   112    50    47    1
   113    45    43   ar
   114    69    66    1
   115    55    54    1
   116    55    56    1
   117    19    18    1
   118    54    48   am
   119    49    48    2
   120    48    47    1
   121    42    43    1
   122    42    39    1
   123    20    18    1
   124    47    46    1
   125    18    15    1
   126    43    44   ar
   127    66    65    1
   128    66    67    1
   129    38    39    1
   130    56    57    2
   131    56    58   am
   132    17    16    2
   133    39    40    1
   134    13    12    1
   135    15    16    1
   136    15    14    1
   137    41    40    2
   138    16    21   am
   139    58    59    1
   140    37    35   ar
   141    67    68    2
   142    36    35   ar
   143    35    34    1
   144     6     5    1
   145    34    33    1
   146    25    26    1
   147    25    22    1
   148    12     9    1
   149    21    22    1
   150    27    26   ar
   151    33    30    1
   152    26    28   ar
   153    22    23    1
   154    59    60    1
   155    59    62    1
   156     5     7    1
   157     5     2    1
   158    60    61    2
   159    30    29    1
   160    30    31    1
   161    62    63    1
   162    62    64    1
   163     9    10    1
   164     9     8    1
   165     4     3    2
   166    32    31    2
   167    23    24    2
   168     3     8   am
   169     3     2    1
   170    10    11    2
   171     2     1    1
