@<TRIPOS>MOLECULE
tmp/2wegA00.pdb
 129 126 0 0 0
SMALL
GASTEIGER

@<TRIPOS>ATOM
      1  N          8.4940    7.9200   11.1650 N.3    90  GLN90      -0.1245
      2  CA         8.7600    6.7630   10.3040 C.3    90  GLN90       0.1566
      3  C          8.5110    5.5290   11.0740 C.2    90  GLN90       0.2260
      4  O          8.4900    5.5560   12.3280 O.2    90  GLN90      -0.2867
      5  CB        10.2370    6.7930    9.7900 C.3    90  GLN90       0.0367
      6  CG        11.2830    6.9280   10.9240 C.3    90  GLN90       0.0905
      7  CD        12.0570    5.6750   11.1720 C.2    90  GLN90       0.2608
      8  OE1       11.5330    4.5470   11.1010 O.2    90  GLN90      -0.2717
      9  NE2       13.3040    5.8940   11.5740 N.am   90  GLN90      -0.0878
     10  N          9.9070    1.2070   10.8610 N.3    92  HIS92      -0.1241
     11  CA        10.7860    0.2560   10.2420 C.3    92  HIS92       0.1621
     12  C         10.7370   -1.0240   11.0790 C.2    92  HIS92       0.2264
     13  O         10.0980   -1.0520   12.1240 O.2    92  HIS92      -0.2867
     14  CB        12.2160    0.8030   10.1680 C.3    92  HIS92       0.0745
     15  CG        12.7770    1.0510   11.5210 C.ar   92  HIS92       0.0817
     16  ND1       12.6210    2.2660   12.1800 N.ar   92  HIS92      -0.2268
     17  CD2       13.4120    0.2480   12.3880 C.ar   92  HIS92       0.1154
     18  CE1       13.1720    2.1700   13.3930 C.ar   92  HIS92       0.1986
     19  NE2       13.6590    0.9220   13.5740 N.ar   92  HIS92      -0.2212
     20  N         13.1280   -4.7120   12.3780 N.3    94  HIS94      -0.1241
     21  CA        14.3640   -5.4790   12.5140 C.3    94  HIS94       0.1621
     22  C         13.9510   -6.9210   12.4230 C.2    94  HIS94       0.2264
     23  O         12.8880   -7.2980   12.9250 O.2    94  HIS94      -0.2867
     24  CB        15.0620   -5.2270   13.8980 C.3    94  HIS94       0.0745
     25  CG        15.3200   -3.7970   14.1500 C.ar   94  HIS94       0.0817
     26  ND1       16.5400   -3.2110   13.9160 N.ar   94  HIS94      -0.2268
     27  CD2       14.5100   -2.7840   14.5720 C.ar   94  HIS94       0.1154
     28  CE1       16.4500   -1.8840   14.1730 C.ar   94  HIS94       0.1986
     29  NE2       15.2440   -1.6290   14.5920 N.ar   94  HIS94      -0.2212
     30  N          9.1610   -0.9580   14.7760 N.3   117  HIS117     -0.1241
     31  CA         9.3790    0.2530   15.5490 C.3   117  HIS117      0.1621
     32  C          8.6900    1.4150   14.8750 C.2   117  HIS117      0.2264
     33  O          9.0820    1.8070   13.7470 O.2   117  HIS117     -0.2867
     34  CB        10.9210    0.5770   15.6400 C.3   117  HIS117      0.0745
     35  CG        11.6330   -0.3940   16.5040 C.ar  117  HIS117      0.0817
     36  ND1       13.0020   -0.5870   16.4440 N.ar  117  HIS117     -0.2268
     37  CD2       11.0890   -1.2490   17.4220 C.ar  117  HIS117      0.1154
     38  CE1       13.2610   -1.4920   17.3550 C.ar  117  HIS117      0.1986
     39  NE2       12.1410   -1.9410   17.9840 N.ar  117  HIS117     -0.2212
     40  N          8.3830    5.2200   15.1730 N.3   119  VAL119     -0.1245
     41  CA         9.2440    6.2490   15.7800 C.3   119  VAL119      0.1561
     42  C          8.5640    7.6010   15.8160 C.2   119  VAL119      0.2260
     43  O          8.1090    8.0860   14.7770 O.2   119  VAL119     -0.2867
     44  CB        10.5360    6.3440   14.9830 C.3   119  VAL119      0.0252
     45  CG1       11.4970    7.4150   15.5730 C.3   119  VAL119      0.0019
     46  CG2       11.2530    4.9630   14.7980 C.3   119  VAL119      0.0019
     47  N         13.0310   16.4330   14.6610 N.3   128  PHE128     -0.1241
     48  CA        13.6010   15.1440   15.1120 C.3   128  PHE128      0.1605
     49  C         15.0390   15.3500   15.5230 C.2   128  PHE128      0.2264
     50  O         15.4800   14.7610   16.4960 O.2   128  PHE128     -0.2867
     51  CB        13.4860   14.1850   13.9280 C.3   128  PHE128      0.0534
     52  CG        14.1000   12.8990   14.1770 C.ar  128  PHE128     -0.0203
     53  CD1       13.4130   11.8650   14.8670 C.ar  128  PHE128     -0.0042
     54  CD2       15.3920   12.5870   13.7900 C.ar  128  PHE128     -0.0042
     55  CE1       13.9290   10.6600   15.0700 C.ar  128  PHE128     -0.0003
     56  CE2       15.9510   11.3310   14.0700 C.ar  128  PHE128     -0.0003
     57  CZ        15.1600   10.3940   14.7330 C.ar  128  PHE128     -0.0000
     58  N         12.2130   11.1730   22.1220 N.3   138  LEU138     -0.1245
     59  CA        11.5480   10.2080   21.2460 C.3   138  LEU138      0.1561
     60  C         10.6600    9.3350   22.0400 C.2   138  LEU138      0.2260
     61  O         10.9510    9.0030   23.2080 O.2   138  LEU138     -0.2867
     62  CB        12.5460    9.3720   20.4640 C.3   138  LEU138      0.0270
     63  CG        13.3130    9.9910   19.3820 C.3   138  LEU138      0.0019
     64  CD1       14.1340    8.9530   18.5880 C.3   138  LEU138      0.0001
     65  CD2       12.8330   11.1220   18.5660 C.3   138  LEU138      0.0001
     66  N          9.2810    5.4330   21.0350 N.3   140  VAL140     -0.1245
     67  CA         9.2510    4.3770   20.0120 C.3   140  VAL140      0.1561
     68  C          8.2890    3.3680   20.5290 C.2   140  VAL140      0.2260
     69  O          8.4510    2.8000   21.6360 O.2   140  VAL140     -0.2867
     70  CB        10.6410    3.8110   19.6440 C.3   140  VAL140      0.0252
     71  CG1       10.4660    2.8140   18.5150 C.3   140  VAL140      0.0019
     72  CG2       11.5650    4.8960   19.1920 C.3   140  VAL140      0.0019
     73  N         18.2170    4.8680   21.1690 N.3   195  LEU195     -0.1231
     74  CA        18.2530    4.3080   19.7870 C.3   195  LEU195      0.1693
     75  C         18.9710    2.9530   19.8410 C.2   195  LEU195      0.2593
     76  O         19.9930    2.7940   20.5440 O.2   195  LEU195     -0.2718
     77  CB        18.9770    5.2210   18.8560 C.3   195  LEU195      0.0284
     78  CG        18.4390    6.6690   18.7780 C.3   195  LEU195      0.0019
     79  CD1       19.3020    7.4620   17.8160 C.3   195  LEU195      0.0001
     80  CD2       17.0010    6.7490   18.3660 C.3   195  LEU195      0.0001
     81  N         18.5380    2.0030   19.0200 N.am  196  THR196     -0.1939
     82  CA        19.1750    0.6650   18.9970 C.3   196  THR196      0.2028
     83  C         20.2290    0.5600   17.8970 C.2   196  THR196      0.2643
     84  O         20.8330   -0.5100   17.7690 O.2   196  THR196     -0.2714
     85  CB        18.1650   -0.4300   18.8510 C.3   196  THR196      0.1808
     86  OG1       17.5850   -0.3390   17.5280 O.3   196  THR196     -0.2208
     87  CG2       17.0620   -0.4190   19.9200 C.3   196  THR196      0.0379
     88  N         20.4270    1.6170   17.1330 N.am  197  THR197     -0.1937
     89  CA        21.5250    1.6700   16.2110 C.3   197  THR197      0.2013
     90  C         22.3240    2.9310   16.4860 C.2   197  THR197      0.2484
     91  O         21.8340    3.8590   17.0870 O.2   197  THR197     -0.2729
     92  CB        21.0690    1.7300   14.6960 C.3   197  THR197      0.1807
     93  OG1       20.7010    3.0460   14.3080 O.3   197  THR197     -0.2208
     94  CG2       19.9600    0.8100   14.4120 C.3   197  THR197      0.0379
     95  N         23.5820    2.9470   16.0170 N.am  198  PRO198     -0.2715
     96  CA        24.3160    4.2410   16.0380 C.3   198  PRO198      0.1521
     97  C         23.4780    5.3750   15.5080 C.2   198  PRO198      0.2440
     98  O         22.7520    5.1560   14.4790 O.2   198  PRO198     -0.2731
     99  CB        25.5760    3.8980   15.1960 C.3   198  PRO198      0.0310
    100  CG        25.8270    2.4860   15.4690 C.3   198  PRO198      0.0237
    101  CD        24.4100    1.8650   15.4240 C.3   198  PRO198      0.0939
    102  N         23.4940    6.5020   16.1160 N.am  199  PRO199     -0.2727
    103  CA        24.3940    6.9520   17.1980 C.3   199  PRO199      0.1402
    104  C         24.0270    6.5280   18.6250 C.2   199  PRO199      0.2269
    105  O         24.6950    6.9980   19.5590 O.2   199  PRO199     -0.2865
    106  CB        24.3410    8.4710   17.0110 C.3   199  PRO199      0.0296
    107  CG        22.9620    8.7760   16.5620 C.3   199  PRO199      0.0237
    108  CD        22.6820    7.6660   15.5680 C.3   199  PRO199      0.0939
    109  N         15.1330    7.9140   24.1860 N.3   204  VAL204     -0.1245
    110  CA        13.8920    7.2100   23.8420 C.3   204  VAL204      0.1561
    111  C         13.1490    6.7330   25.0700 C.2   204  VAL204      0.2260
    112  O         13.6780    6.0750   25.9640 O.2   204  VAL204     -0.2867
    113  CB        14.1860    5.9260   22.9700 C.3   204  VAL204      0.0252
    114  CG1       12.8590    5.2540   22.6340 C.3   204  VAL204      0.0019
    115  CG2       14.9570    6.3040   21.6870 C.3   204  VAL204      0.0019
    116  N         10.7420    3.9750   25.5720 N.3   206  TRP206     -0.1241
    117  CA        10.3100    2.7670   24.8320 C.3   206  TRP206      0.1605
    118  C          8.9460    2.3310   25.3630 C.2   206  TRP206      0.2264
    119  O          8.7190    2.2970   26.6180 O.2   206  TRP206     -0.2867
    120  CB        11.3360    1.6170   25.0760 C.3   206  TRP206      0.0550
    121  CG        12.4310    1.7380   24.0970 C.ar  206  TRP206      0.0003
    122  CD1       13.6530    2.2960   24.2580 C.ar  206  TRP206      0.0946
    123  CD2       12.3700    1.3380   22.7280 C.ar  206  TRP206      0.0152
    124  NE1       14.3500    2.2960   23.0790 N.ar  206  TRP206     -0.2442
    125  CE2       13.5750    1.7120   22.1190 C.ar  206  TRP206      0.0810
    126  CE3       11.3990    0.7150   21.9710 C.ar  206  TRP206      0.0012
    127  CZ2       13.8750    1.4920   20.7570 C.ar  206  TRP206      0.0191
    128  CZ3       11.6560    0.4360   20.6050 C.ar  206  TRP206      0.0001
    129  CH2       12.8830    0.8390   20.0330 C.ar  206  TRP206      0.0015
@<TRIPOS>BOND
     1     5     2    1
     2     5     6    1
     3    14    11    1
     4    14    15    1
     5    11    10    1
     6    11    12    1
     7     2     3    1
     8     2     1    1
     9     6     7    1
    10     3     4    2
    11    12    13    2
    12     8     7    2
    13     7     9   am
    14    15    16   ar
    15    15    17   ar
    16    16    18   ar
    17    20    21    1
    18    17    19   ar
    19    22    21    1
    20    22    23    2
    21    21    24    1
    22    18    19   ar
    23    33    32    2
    24    54    56   ar
    25    54    52   ar
    26    24    25    1
    27    26    25   ar
    28    26    28   ar
    29    51    52    1
    30    51    48    1
    31    56    57   ar
    32    25    27   ar
    33    28    29   ar
    34    52    53   ar
    35    93    92    1
    36    94    92    1
    37    98    97    2
    38    27    29   ar
    39    47    48    1
    40    92    89    1
    41    57    55   ar
    42    30    31    1
    43    43    42    2
    44    46    44    1
    45    53    55   ar
    46    32    31    1
    47    44    45    1
    48    44    41    1
    49    48    49    1
    50    40    41    1
    51    99   100    1
    52    99    96    1
    53   101   100    1
    54   101    95    1
    55    97    96    1
    56    97   102   am
    57    49    50    2
    58    31    34    1
    59   108   102    1
    60   108   107    1
    61    34    35    1
    62    41    42    1
    63    95    96    1
    64    95    90   am
    65   102   103    1
    66    89    90    1
    67    89    88    1
    68    36    35   ar
    69    36    38   ar
    70    90    91    2
    71    35    37   ar
    72   107   106    1
    73   106   103    1
    74    88    83   am
    75   103   104    1
    76    38    39   ar
    77    37    39   ar
    78    86    85    1
    79    84    83    2
    80    79    78    1
    81    83    82    1
    82    80    78    1
    83    71    70    1
    84    65    63    1
    85    64    63    1
    86   104   105    2
    87    78    77    1
    88    85    82    1
    89    85    87    1
    90    77    74    1
    91    82    81    1
    92    81    75   am
    93    72    70    1
    94    63    62    1
    95    70    67    1
    96    74    75    1
    97    74    73    1
    98    75    76    2
    99    67    68    1
   100    67    66    1
   101   129   128   ar
   102   129   127   ar
   103    62    59    1
   104    68    69    2
   105   128   126   ar
   106   127   125   ar
   107    59    60    1
   108    59    58    1
   109   115   113    1
   110   126   123   ar
   111    60    61    2
   112   125   123   ar
   113   125   124   ar
   114   114   113    1
   115   123   121   ar
   116   113   110    1
   117   124   122   ar
   118   110   109    1
   119   110   111    1
   120   121   122   ar
   121   121   120    1
   122   117   120    1
   123   117   118    1
   124   117   116    1
   125   111   112    2
   126   118   119    2
