@<TRIPOS>MOLECULE
tmp/2wehA00.pdb
 115 110 0 0 0
SMALL
GASTEIGER

@<TRIPOS>ATOM
      1  N          8.5050    7.9590   11.2980 N.3    90  GLN90      -0.1245
      2  CA         8.9100    6.8620   10.4730 C.3    90  GLN90       0.1566
      3  C          8.5980    5.5620   11.1710 C.2    90  GLN90       0.2260
      4  O          8.4970    5.5600   12.3470 O.2    90  GLN90      -0.2867
      5  CB        10.4170    7.1170   10.1850 C.3    90  GLN90       0.0367
      6  CG        11.2820    6.0680    9.8300 C.3    90  GLN90       0.0905
      7  CD        12.0140    5.4220   10.9850 C.2    90  GLN90       0.2608
      8  OE1       11.5330    4.4530   11.4440 O.2    90  GLN90      -0.2717
      9  NE2       13.2540    5.8230   11.2880 N.am   90  GLN90      -0.0878
     10  N         10.1440    1.3010   10.9500 N.3    92  HIS92      -0.1241
     11  CA        10.9390    0.2800   10.3160 C.3    92  HIS92       0.1621
     12  C         10.8520   -0.9820   11.1450 C.2    92  HIS92       0.2264
     13  O         10.1210   -1.0490   12.1760 O.2    92  HIS92      -0.2867
     14  CB        12.4020    0.6890   10.3110 C.3    92  HIS92       0.0745
     15  CG        12.8860    1.0830   11.6760 C.ar   92  HIS92       0.0817
     16  ND1       12.6830    2.3370   12.1960 N.ar   92  HIS92      -0.2268
     17  CD2       13.4930    0.3650   12.6450 C.ar   92  HIS92       0.1154
     18  CE1       13.1730    2.3850   13.4280 C.ar   92  HIS92       0.1986
     19  NE2       13.6760    1.1950   13.7170 N.ar   92  HIS92      -0.2212
     20  N         13.1730   -4.7370   12.4180 N.3    94  HIS94      -0.1241
     21  CA        14.4290   -5.4730   12.6370 C.3    94  HIS94       0.1621
     22  C         13.9670   -6.9060   12.5590 C.2    94  HIS94       0.2264
     23  O         12.9160   -7.2380   13.1660 O.2    94  HIS94      -0.2867
     24  CB        14.9980   -5.1930   14.0460 C.3    94  HIS94       0.0745
     25  CG        15.2970   -3.7420   14.2780 C.ar   94  HIS94       0.0817
     26  ND1       16.5470   -3.1840   14.0340 N.ar   94  HIS94      -0.2268
     27  CD2       14.4840   -2.7230   14.6530 C.ar   94  HIS94       0.1154
     28  CE1       16.4910   -1.8890   14.3180 C.ar   94  HIS94       0.1986
     29  NE2       15.2470   -1.5750   14.6500 N.ar   94  HIS94      -0.2212
     30  N          9.2540   -0.9140   14.9060 N.3   117  HIS117     -0.1241
     31  CA         9.4630    0.3160   15.6770 C.3   117  HIS117      0.1621
     32  C          8.7660    1.4880   14.9880 C.2   117  HIS117      0.2264
     33  O          9.0300    1.7920   13.7690 O.2   117  HIS117     -0.2867
     34  CB        11.0020    0.5540   15.7380 C.3   117  HIS117      0.0745
     35  CG        11.7000   -0.4550   16.5990 C.ar  117  HIS117      0.0817
     36  ND1       13.0680   -0.6850   16.5820 N.ar  117  HIS117     -0.2268
     37  CD2       11.1870   -1.2930   17.5420 C.ar  117  HIS117      0.1154
     38  CE1       13.3650   -1.6010   17.4690 C.ar  117  HIS117      0.1986
     39  NE2       12.2470   -1.9680   18.0890 N.ar  117  HIS117     -0.2212
     40  N          8.3720    5.3110   15.1860 N.3   119  VAL119     -0.1301
     41  CA         9.2870    6.2230   15.8070 C.3   119  VAL119      0.1246
     42  C          8.5390    7.5330   15.8350 C.3   119  VAL119      0.2009
     43  O          8.1200    8.0530   14.7290 O.3   119  VAL119     -0.2188
     44  CB        10.6020    6.3780   15.0150 C.3   119  VAL119      0.0202
     45  CG1       11.5850    7.4330   15.7030 C.3   119  VAL119      0.0016
     46  CG2       11.2970    5.0250   14.8600 C.3   119  VAL119      0.0016
     47  N         13.0020   16.5810   14.7630 N.3   128  PHE128     -0.1241
     48  CA        13.5450   15.2310   15.1350 C.3   128  PHE128      0.1605
     49  C         14.9770   15.4090   15.5950 C.2   128  PHE128      0.2264
     50  O         15.3890   14.8210   16.5950 O.2   128  PHE128     -0.2867
     51  CB        13.5210   14.2590   13.9410 C.3   128  PHE128      0.0534
     52  CG        14.1240   12.9460   14.2340 C.ar  128  PHE128     -0.0203
     53  CD1       13.4140   11.9770   14.9560 C.ar  128  PHE128     -0.0042
     54  CD2       15.4260   12.6500   13.8100 C.ar  128  PHE128     -0.0042
     55  CE1       13.9610   10.7180   15.2190 C.ar  128  PHE128     -0.0003
     56  CE2       16.0020   11.4160   14.1170 C.ar  128  PHE128     -0.0003
     57  CZ        15.2690   10.4380   14.8290 C.ar  128  PHE128     -0.0000
     58  N         12.2670   11.1880   22.2700 N.3   138  LEU138     -0.1245
     59  CA        11.5930   10.2860   21.3480 C.3   138  LEU138      0.1561
     60  C         10.6830    9.3390   22.1180 C.2   138  LEU138      0.2260
     61  O         10.9000    9.0460   23.3000 O.2   138  LEU138     -0.2867
     62  CB        12.5650    9.4370   20.4940 C.3   138  LEU138      0.0270
     63  CG        13.5500   10.0630   19.5060 C.3   138  LEU138      0.0019
     64  CD1       14.1450    9.0140   18.5320 C.3   138  LEU138      0.0001
     65  CD2       12.9530   11.2410   18.7250 C.3   138  LEU138      0.0001
     66  N          9.3060    5.4510   21.0930 N.3   140  VAL140     -0.1245
     67  CA         9.2120    4.4480   20.0840 C.3   140  VAL140      0.1561
     68  C          8.1770    3.4300   20.5920 C.2   140  VAL140      0.2260
     69  O          8.2760    2.9260   21.7400 O.2   140  VAL140     -0.2867
     70  CB        10.5820    3.7870   19.7230 C.3   140  VAL140      0.0252
     71  CG1       10.4410    2.8530   18.5510 C.3   140  VAL140      0.0019
     72  CG2       11.5780    4.8580   19.3300 C.3   140  VAL140      0.0019
     73  N         18.1060    4.9310   21.0890 N.3   195  LEU195     -0.1231
     74  CA        18.1830    4.2980   19.7740 C.3   195  LEU195      0.1693
     75  C         18.9140    2.9520   19.9080 C.2   195  LEU195      0.2593
     76  O         19.9090    2.8060   20.6970 O.2   195  LEU195     -0.2718
     77  CB        18.9920    5.1870   18.8440 C.3   195  LEU195      0.0284
     78  CG        18.3550    6.4170   18.1700 C.3   195  LEU195      0.0019
     79  CD1       17.3980    7.2350   19.0350 C.3   195  LEU195      0.0001
     80  CD2       19.4550    7.2870   17.6460 C.3   195  LEU195      0.0001
     81  N         18.4990    1.9650   19.1060 N.am  196  THR196     -0.1939
     82  CA        19.1890    0.6890   19.1500 C.3   196  THR196      0.2028
     83  C         20.1080    0.6160   17.9440 C.2   196  THR196      0.2642
     84  O         20.7240   -0.4200   17.7440 O.2   196  THR196     -0.2714
     85  CB        18.2050   -0.4680   19.0020 C.3   196  THR196      0.1808
     86  OG1       17.6080   -0.2960   17.7230 O.3   196  THR196     -0.2208
     87  CG2       17.0910   -0.4680   20.1470 C.3   196  THR196      0.0379
     88  N         20.2230    1.6980   17.1370 N.am  197  THR197     -0.1950
     89  CA        21.3070    1.7670   16.1480 C.3   197  THR197      0.1897
     90  C         22.1670    2.9970   16.4730 C.2   197  THR197      0.2313
     91  O         21.7000    3.9380   17.1480 O.2   197  THR197     -0.2863
     92  CB        20.7090    1.9150   14.7200 C.3   197  THR197      0.1794
     93  OG1       19.9330    3.1410   14.7010 O.3   197  THR197     -0.2208
     94  CG2       19.7650    0.7000   14.4870 C.3   197  THR197      0.0378
     95  N         15.0930    7.9540   24.3180 N.3   204  VAL204     -0.1245
     96  CA        13.8490    7.2720   24.0090 C.3   204  VAL204      0.1561
     97  C         13.1050    6.7610   25.2230 C.2   204  VAL204      0.2260
     98  O         13.6970    6.0870   26.1310 O.2   204  VAL204     -0.2867
     99  CB        14.0920    6.0210   23.1700 C.3   204  VAL204      0.0252
    100  CG1       12.7300    5.3700   22.8330 C.3   204  VAL204      0.0019
    101  CG2       14.9160    6.3640   21.8850 C.3   204  VAL204      0.0019
    102  N         10.6660    3.8940   25.7730 N.3   206  TRP206     -0.1241
    103  CA        10.2920    2.7600   24.9700 C.3   206  TRP206      0.1605
    104  C          8.9640    2.2800   25.4150 C.2   206  TRP206      0.2264
    105  O          8.6590    2.2910   26.5950 O.2   206  TRP206     -0.2867
    106  CB        11.3550    1.6360   25.1030 C.3   206  TRP206      0.0550
    107  CG        12.3830    1.7940   24.0960 C.ar  206  TRP206      0.0003
    108  CD1       13.5890    2.3500   24.2450 C.ar  206  TRP206      0.0946
    109  CD2       12.2930    1.3410   22.7050 C.ar  206  TRP206      0.0152
    110  NE1       14.2720    2.3290   23.0140 N.ar  206  TRP206     -0.2442
    111  CE2       13.5010    1.6650   22.0880 C.ar  206  TRP206      0.0810
    112  CE3       11.2930    0.6780   21.9660 C.ar  206  TRP206      0.0012
    113  CZ2       13.7680    1.3630   20.7630 C.ar  206  TRP206      0.0191
    114  CZ3       11.5320    0.3840   20.6580 C.ar  206  TRP206      0.0001
    115  CH2       12.7580    0.7290   20.0550 C.ar  206  TRP206      0.0015
@<TRIPOS>BOND
     1     6     5    1
     2     6     7    1
     3     5     2    1
     4    14    11    1
     5    14    15    1
     6    11    10    1
     7    11    12    1
     8     2     3    1
     9     2     1    1
    10     7     9   am
    11     7     8    2
    12    12    13    2
    13     3     4    2
    14    15    16   ar
    15    15    17   ar
    16    16    18   ar
    17    20    21    1
    18    22    21    1
    19    22    23    2
    20    21    24    1
    21    17    19   ar
    22    18    19   ar
    23    33    32    2
    24    54    56   ar
    25    54    52   ar
    26    51    52    1
    27    51    48    1
    28    26    25   ar
    29    26    28   ar
    30    24    25    1
    31    56    57   ar
    32    52    53   ar
    33    25    27   ar
    34    28    29   ar
    35    94    92    1
    36    29    27   ar
    37    93    92    1
    38    92    89    1
    39    43    42    1
    40    47    48    1
    41    57    55   ar
    42    46    44    1
    43    30    31    1
    44    53    55   ar
    45    32    31    1
    46    44    45    1
    47    44    41    1
    48    48    49    1
    49    40    41    1
    50    49    50    2
    51    31    34    1
    52    34    35    1
    53    41    42    1
    54    89    90    1
    55    89    88    1
    56    90    91    2
    57    36    35   ar
    58    36    38   ar
    59    35    37   ar
    60    88    83   am
    61    38    39   ar
    62    37    39   ar
    63    80    78    1
    64    86    85    1
    65    84    83    2
    66    83    82    1
    67    78    77    1
    68    78    79    1
    69    64    63    1
    70    71    70    1
    71    65    63    1
    72    77    74    1
    73    85    82    1
    74    85    87    1
    75    81    82    1
    76    81    75   am
    77    72    70    1
    78    63    62    1
    79    70    67    1
    80    74    75    1
    81    74    73    1
    82    75    76    2
    83   115   114   ar
    84   115   113   ar
    85    67    68    1
    86    67    66    1
    87    62    59    1
    88    68    69    2
    89   114   112   ar
    90   113   111   ar
    91    59    60    1
    92    59    58    1
    93   101    99    1
    94   112   109   ar
    95   111   109   ar
    96   111   110   ar
    97    60    61    2
    98   109   107   ar
    99   100    99    1
   100   110   108   ar
   101    99    96    1
   102    96    95    1
   103    96    97    1
   104   107   108   ar
   105   107   106    1
   106   103   106    1
   107   103   104    1
   108   103   102    1
   109    97    98    2
   110   104   105    2
