@<TRIPOS>MOLECULE
tmp/2weiA00.pdb
 173 161 0 0 0
SMALL
GASTEIGER

@<TRIPOS>ATOM
      1  N         22.2400  -13.5150  -15.0280 N.3    22  LEU22      -0.1231
      2  CA        21.0270  -13.7050  -14.2030 C.3    22  LEU22       0.1693
      3  C         21.1670  -13.2180  -12.7510 C.2    22  LEU22       0.2593
      4  O         20.1640  -12.9630  -12.0770 O.2    22  LEU22      -0.2718
      5  CB        20.5940  -15.1630  -14.2080 C.3    22  LEU22       0.0284
      6  CG        20.0930  -15.6960  -15.5430 C.3    22  LEU22       0.0019
      7  CD1       19.7960  -17.1810  -15.3750 C.3    22  LEU22       0.0001
      8  CD2       18.8710  -14.9290  -16.0130 C.3    22  LEU22       0.0001
      9  N         22.3970  -13.0820  -12.2730 N.am   23  GLY23      -0.1942
     10  CA        22.6260  -12.5740  -10.9300 C.3    23  GLY23       0.2014
     11  C         23.7180  -13.3270  -10.2120 C.2    23  GLY23       0.2639
     12  O         24.1810  -14.3550  -10.6840 O.2    23  GLY23      -0.2714
     13  N         24.1320  -12.7710   -9.0730 N.am   24  LYS24      -0.1963
     14  CA        25.1270  -13.3940   -8.2120 C.3    24  LYS24       0.1728
     15  C         24.4370  -14.4640   -7.3620 C.2    24  LYS24       0.2616
     16  O         23.4570  -14.1740   -6.6500 O.2    24  LYS24      -0.2715
     17  CB        25.7850  -12.3180   -7.3270 C.3    24  LYS24       0.0311
     18  CG        26.8990  -12.8340   -6.4490 C.3    24  LYS24       0.0038
     19  CD        27.6060  -11.7120   -5.7100 C.3    24  LYS24       0.0206
     20  CE        28.4380  -10.8670   -6.6500 C.3    24  LYS24       0.1093
     21  NZ        29.4930  -10.1230   -5.9070 N.3    24  LYS24      -0.1314
     22  N         24.9520  -15.6870   -7.4290 N.am   25  GLY25      -0.1955
     23  CA        24.5110  -16.7720   -6.5490 C.3    25  GLY25       0.1869
     24  C         25.6120  -17.0220   -5.5380 C.2    25  GLY25       0.2309
     25  O         26.6850  -16.3960   -5.6110 O.2    25  GLY25      -0.2863
     26  N         25.7360  -16.4530  -11.9100 N.3    30  VAL30      -0.1245
     27  CA        24.8700  -17.3120  -12.6930 C.3    30  VAL30       0.1561
     28  C         24.4570  -16.5720  -13.9560 C.2    30  VAL30       0.2260
     29  O         24.1020  -15.3800  -13.9000 O.2    30  VAL30      -0.2867
     30  CB        23.6120  -17.7080  -11.9090 C.3    30  VAL30       0.0252
     31  CG1       22.7010  -18.6020  -12.7730 C.3    30  VAL30       0.0019
     32  CG2       24.0070  -18.4380  -10.6050 C.3    30  VAL30       0.0019
     33  N         20.9360  -22.8430  -17.1530 N.3    43  ALA43      -0.1231
     34  CA        21.6430  -21.9720  -16.2150 C.3    43  ALA43       0.1694
     35  C         23.0710  -22.5020  -16.0430 C.2    43  ALA43       0.2592
     36  O         23.2930  -23.7210  -15.9480 O.2    43  ALA43      -0.2718
     37  CB        20.9200  -21.9230  -14.8710 C.3    43  ALA43       0.0304
     38  N         24.0250  -21.5840  -16.0060 N.am   44  VAL44      -0.1966
     39  CA        25.4330  -21.9300  -15.7060 C.3    44  VAL44       0.1727
     40  C         25.9430  -21.0870  -14.5430 C.2    44  VAL44       0.2616
     41  O         25.7490  -19.8710  -14.5130 O.2    44  VAL44      -0.2715
     42  CB        26.3620  -21.7610  -16.9110 C.3    44  VAL44       0.0290
     43  CG1       26.3550  -20.3330  -17.4740 C.3    44  VAL44       0.0023
     44  CG2       27.7990  -22.1800  -16.5550 C.3    44  VAL44       0.0023
     45  N         26.5340  -21.7570  -13.5600 N.am   45  LYS45      -0.1977
     46  CA        27.2350  -21.0820  -12.4910 C.3    45  LYS45       0.1596
     47  C         28.7170  -21.1180  -12.7570 C.2    45  LYS45       0.2287
     48  O         29.3180  -22.1900  -12.9200 O.2    45  LYS45      -0.2864
     49  CB        26.9330  -21.7460  -11.1550 C.3    45  LYS45       0.0298
     50  CG        27.5210  -21.0160   -9.9220 C.3    45  LYS45       0.0038
     51  CD        26.9270  -21.5440   -8.6210 C.3    45  LYS45       0.0206
     52  CE        25.5290  -20.9730   -8.3700 C.3    45  LYS45       0.1093
     53  NZ        25.0240  -21.1330   -6.9950 N.3    45  LYS45      -0.1314
     54  N         17.4070  -29.3270   -7.8580 N.3    76  MET76      -0.1245
     55  CA        17.8540  -28.8860   -9.1640 C.3    76  MET76       0.1570
     56  C         18.6840  -29.9960   -9.8530 C.2    76  MET76       0.2261
     57  O         19.5980  -30.5460   -9.2580 O.2    76  MET76      -0.2867
     58  CB        18.6900  -27.6280   -9.0410 C.3    76  MET76       0.0387
     59  CG        19.2220  -27.1230  -10.3500 C.3    76  MET76       0.0595
     60  SD        20.2390  -25.6630  -10.2040 S.3    76  MET76      -0.1393
     61  CE        21.0770  -25.7490  -11.7710 C.3    76  MET76       0.0692
     62  N         21.5570  -31.2130  -12.3980 N.3    78  LEU78      -0.1245
     63  CA        22.8000  -30.7410  -12.9840 C.3    78  LEU78       0.1561
     64  C         23.1070  -31.5970  -14.1990 C.2    78  LEU78       0.2260
     65  O         22.8450  -32.8330  -14.2130 O.2    78  LEU78      -0.2867
     66  CB        23.9490  -30.8780  -11.9980 C.3    78  LEU78       0.0270
     67  CG        23.7740  -30.2010  -10.6540 C.3    78  LEU78       0.0019
     68  CD1       25.0410  -30.3900   -9.8230 C.3    78  LEU78       0.0001
     69  CD2       23.4380  -28.7170  -10.7840 C.3    78  LEU78       0.0001
     70  N         29.3150  -24.8550  -13.9810 N.3    90  ILE90      -0.1245
     71  CA        28.3490  -25.9020  -13.6260 C.3    90  ILE90       0.1561
     72  C         27.0410  -25.5770  -14.3320 C.2    90  ILE90       0.2260
     73  O         26.4400  -24.5430  -14.0710 O.2    90  ILE90      -0.2867
     74  CB        28.1270  -26.0720  -12.1020 C.3    90  ILE90       0.0252
     75  CG1       29.4390  -26.4170  -11.4030 C.3    90  ILE90       0.0019
     76  CG2       27.1070  -27.2250  -11.8320 C.3    90  ILE90       0.0019
     77  CD1       29.2880  -26.6410   -9.9010 C.3    90  ILE90       0.0001
     78  N         23.1600  -26.5220  -15.4530 N.3    92  GLY92      -0.1210
     79  CA        21.9810  -27.2470  -15.0230 C.3    92  GLY92       0.1956
     80  C         20.7040  -26.5650  -15.4640 C.2    92  GLY92       0.2612
     81  O         20.7090  -25.6340  -16.2960 O.2    92  GLY92      -0.2717
     82  N         19.5960  -27.0780  -14.9350 N.am   93  GLU93      -0.1965
     83  CA        18.2590  -26.6250  -15.3200 C.3    93  GLU93       0.1733
     84  C         18.0920  -25.1400  -15.0450 C.2    93  GLU93       0.2616
     85  O         18.4440  -24.6530  -13.9680 O.2    93  GLU93      -0.2715
     86  CB        17.1990  -27.3620  -14.5050 C.3    93  GLU93       0.0429
     87  CG        16.9880  -28.7860  -14.8870 C.3    93  GLU93       0.1163
     88  CD        15.9660  -29.5100  -14.0000 C.2    93  GLU93       0.3649
     89  OE1       15.1820  -30.2760  -14.5800 O.co2  93  GLU93      -0.2457
     90  OE2       15.9780  -29.3620  -12.7400 O.co2  93  GLU93      -0.2457
     91  N         17.4500  -24.4490  -15.9820 N.am   94  LEU94      -0.1963
     92  CA        17.1290  -23.0360  -15.8510 C.3    94  LEU94       0.1728
     93  C         15.6850  -22.8540  -15.2920 C.2    94  LEU94       0.2616
     94  O         14.7270  -23.4580  -15.8150 O.2    94  LEU94      -0.2715
     95  CB        17.2140  -22.3850  -17.2290 C.3    94  LEU94       0.0311
     96  CG        16.8020  -20.9140  -17.3160 C.3    94  LEU94       0.0022
     97  CD1       17.7600  -20.0340  -16.5320 C.3    94  LEU94       0.0001
     98  CD2       16.6630  -20.4750  -18.7970 C.3    94  LEU94       0.0001
     99  N         15.5500  -21.9990  -14.2840 N.am   95  TYR95      -0.1974
    100  CA        14.2660  -21.7030  -13.6410 C.3    95  TYR95       0.1639
    101  C         13.9500  -20.2430  -13.8560 C.2    95  TYR95       0.2290
    102  O         14.8520  -19.4510  -14.1210 O.2    95  TYR95      -0.2864
    103  CB        14.3520  -22.0140  -12.1400 C.3    95  TYR95       0.0560
    104  CG        14.7390  -23.4430  -11.8740 C.ar   95  TYR95      -0.0198
    105  CD1       14.1380  -24.4790  -12.5750 C.ar   95  TYR95      -0.0009
    106  CD2       15.7290  -23.7580  -10.9380 C.ar   95  TYR95      -0.0009
    107  CE1       14.5110  -25.8190  -12.3440 C.ar   95  TYR95       0.0417
    108  CE2       16.0970  -25.0560  -10.7110 C.ar   95  TYR95       0.0417
    109  CZ        15.5000  -26.0750  -11.4190 C.ar   95  TYR95       0.1957
    110  OH        15.8520  -27.3690  -11.1610 O.3    95  TYR95      -0.2866
    111  N         12.1370  -17.1820   -9.6350 N.3    98  GLY98      -0.1210
    112  CA        12.7910  -16.4240   -8.5830 C.3    98  GLY98       0.1956
    113  C         12.9450  -17.2860   -7.3460 C.2    98  GLY98       0.2611
    114  O         12.7330  -18.4830   -7.3800 O.2    98  GLY98      -0.2717
    115  N         13.3110  -16.6730   -6.2460 N.am   99  GLU99      -0.1979
    116  CA        13.6120  -17.4580   -5.0570 C.3    99  GLU99       0.1602
    117  C         12.5150  -17.3360   -4.0010 C.2    99  GLU99       0.2287
    118  O         11.6540  -16.4280   -4.0500 O.2    99  GLU99      -0.2864
    119  CB        14.9900  -17.0530   -4.5500 C.3    99  GLU99       0.0415
    120  CG        15.0460  -15.7310   -3.7900 C.3    99  GLU99       0.1163
    121  CD        16.3730  -15.0090   -3.9600 C.2    99  GLU99       0.3649
    122  OE1       17.3340  -15.5950   -4.5230 O.co2  99  GLU99      -0.2457
    123  OE2       16.4500  -13.8410   -3.5310 O.co2  99  GLU99      -0.2457
    124  N         16.9680  -18.2060   -0.2090 N.3   142  GLU142     -0.1245
    125  CA        17.6470  -17.8730   -1.4730 C.3   142  GLU142      0.1567
    126  C         18.1220  -19.0980   -2.2860 C.2   142  GLU142      0.2260
    127  O         18.3990  -18.9630   -3.4900 O.2   142  GLU142     -0.2867
    128  CB        18.8180  -16.9190   -1.2160 C.3   142  GLU142      0.0388
    129  CG        18.3940  -15.5500   -0.7100 C.3   142  GLU142      0.1160
    130  CD        18.1610  -15.4780    0.8060 C.2   142  GLU142      0.3649
    131  OE1       18.3120  -16.5070    1.5000 O.co2 142  GLU142     -0.2457
    132  OE2       17.8000  -14.3700    1.2830 O.co2 142  GLU142     -0.2457
    133  N         14.3780  -22.2180   -5.1320 N.3   145  LEU145     -0.1245
    134  CA        13.9020  -21.5010   -6.2970 C.3   145  LEU145      0.1561
    135  C         12.5440  -22.0180   -6.7480 C.2   145  LEU145      0.2260
    136  O         12.2150  -23.2100   -6.5900 O.2   145  LEU145     -0.2867
    137  CB        14.9030  -21.6050   -7.4550 C.3   145  LEU145      0.0270
    138  CG        16.0210  -20.5580   -7.4790 C.3   145  LEU145      0.0019
    139  CD1       16.7570  -20.5020   -6.1580 C.3   145  LEU145      0.0001
    140  CD2       16.9640  -20.8510   -8.6460 C.3   145  LEU145      0.0001
    141  N         18.5410  -25.5590   -4.6290 N.3   158  ILE158     -0.1231
    142  CA        19.7340  -25.3770   -5.4340 C.3   158  ILE158      0.1692
    143  C         20.9640  -25.4900   -4.5030 C.2   158  ILE158      0.2592
    144  O         20.8500  -25.3130   -3.2700 O.2   158  ILE158     -0.2718
    145  CB        19.7330  -24.0490   -6.2350 C.3   158  ILE158      0.0266
    146  CG1       19.6840  -22.8340   -5.3040 C.3   158  ILE158      0.0019
    147  CG2       18.5310  -24.0250   -7.2040 C.3   158  ILE158      0.0020
    148  CD1       20.1570  -21.5490   -5.9260 C.3   158  ILE158      0.0001
    149  N         22.0890  -25.8300   -5.1150 N.am  159  ASP159     -0.1974
    150  CA        23.4120  -25.8960   -4.4440 C.3   159  ASP159      0.1709
    151  C         23.5300  -27.0370   -3.3940 C.2   159  ASP159      0.2293
    152  O         24.4670  -27.0380   -2.6110 O.2   159  ASP159     -0.2864
    153  CB        23.7500  -24.5440   -3.7680 C.3   159  ASP159      0.1436
    154  CG        24.1540  -23.4360   -4.7500 C.2   159  ASP159      0.3671
    155  OD1       24.3380  -22.2770   -4.2710 O.co2 159  ASP159     -0.2456
    156  OD2       24.3110  -23.6800   -5.9660 O.co2 159  ASP159     -0.2456
    157  N         27.0430  -28.7280   -2.7730 N.3   162  LEU162     -0.1245
    158  CA        28.1930  -27.9380   -3.2340 C.3   162  LEU162      0.1561
    159  C         29.0350  -27.2770   -2.1000 C.2   162  LEU162      0.2260
    160  O         30.1260  -26.8140   -2.3760 O.2   162  LEU162     -0.2867
    161  CB        27.7340  -26.9010   -4.2360 C.3   162  LEU162      0.0270
    162  CG        27.2200  -27.4730   -5.5650 C.3   162  LEU162      0.0019
    163  CD1       26.9330  -26.2800   -6.4830 C.3   162  LEU162      0.0001
    164  CD2       28.1460  -28.4840   -6.2570 C.3   162  LEU162      0.0001
    165  N         26.4510  -11.0170   -1.4380 N.3   173  LYS173     -0.1245
    166  CA        25.3660  -10.0780   -1.6930 C.3   173  LYS173      0.1561
    167  C         24.4860   -9.8310   -0.4560 C.2   173  LYS173      0.2260
    168  O         23.9030   -8.7580   -0.3270 O.2   173  LYS173     -0.2867
    169  CB        24.5240  -10.5160   -2.9050 C.3   173  LYS173      0.0271
    170  CG        23.6140  -11.7220   -2.6980 C.3   173  LYS173      0.0035
    171  CD        23.0660  -12.2320   -4.0410 C.3   173  LYS173      0.0206
    172  CE        22.2990  -11.1590   -4.8130 C.3   173  LYS173      0.1093
    173  NZ        21.6810  -11.7160   -6.0520 N.3   173  LYS173     -0.1314
@<TRIPOS>BOND
     1    98    96    1
     2    43    42    1
     3    96    95    1
     4    96    97    1
     5    95    92    1
     6    33    34    1
     7    42    44    1
     8    42    39    1
     9    81    80    2
    10    34    35    1
    11    34    37    1
    12    35    38   am
    13    35    36    2
    14     8     6    1
    15    38    39    1
    16    91    92    1
    17    91    84   am
    18    92    93    1
    19    94    93    2
    20    39    40    1
    21     6     7    1
    22     6     5    1
    23    80    79    1
    24    80    82   am
    25    78    79    1
    26    83    84    1
    27    83    82    1
    28    83    86    1
    29    93    99   am
    30    84    85    2
    31     1     2    1
    32    87    86    1
    33    87    88    1
    34    89    88   ar
    35    40    41    2
    36    40    45   am
    37    72    73    2
    38    72    71    1
    39    99   100    1
    40    65    64    2
    41     5     2    1
    42     2     3    1
    43    64    63    1
    44   102   101    2
    45    88    90   ar
    46    70    71    1
    47    28    29    2
    48    28    27    1
    49   101   100    1
    50   100   103    1
    51    71    74    1
    52    45    46    1
    53    63    62    1
    54    63    66    1
    55    48    47    2
    56    31    30    1
    57    47    46    1
    58     3     9   am
    59     3     4    2
    60    27    26    1
    61    27    30    1
    62   105   107   ar
    63   105   104   ar
    64    46    49    1
    65   107   109   ar
    66     9    10    1
    67   103   104    1
    68    74    76    1
    69    74    75    1
    70    66    67    1
    71    30    32    1
    72   104   106   ar
    73    61    60    1
    74   109   110    1
    75   109   108   ar
    76    75    77    1
    77    49    50    1
    78   106   108   ar
    79    10    11    1
    80    69    67    1
    81    12    11    2
    82    67    68    1
    83    59    60    1
    84    59    58    1
    85    11    13   am
    86    50    51    1
    87    56    57    2
    88    56    55    1
    89   111   112    1
    90    55    58    1
    91    55    54    1
    92    13    14    1
    93   140   138    1
    94    51    52    1
    95   112   113    1
    96    52    53    1
    97    14    15    1
    98    14    17    1
    99   138   137    1
   100   138   139    1
   101   137   134    1
   102    22    15   am
   103    22    23    1
   104   114   113    2
   105    15    16    2
   106   113   115   am
   107    17    18    1
   108   147   145    1
   109   135   136    2
   110   135   134    1
   111    20    21    1
   112    20    19    1
   113    23    24    1
   114   163   162    1
   115    18    19    1
   116   134   133    1
   117   164   162    1
   118   115   116    1
   119   145   142    1
   120   145   146    1
   121   173   172    1
   122   156   154   ar
   123   148   146    1
   124    25    24    2
   125   162   161    1
   126   142   141    1
   127   142   143    1
   128   149   143   am
   129   149   150    1
   130   116   119    1
   131   116   117    1
   132   172   171    1
   133   154   155   ar
   134   154   153    1
   135   119   120    1
   136   122   121   ar
   137   143   144    2
   138   150   153    1
   139   150   151    1
   140   161   158    1
   141   118   117    2
   142   171   170    1
   143   121   120    1
   144   121   123   ar
   145   127   126    2
   146   151   152    2
   147   158   157    1
   148   158   159    1
   149   169   170    1
   150   169   166    1
   151   160   159    2
   152   126   125    1
   153   166   165    1
   154   166   167    1
   155   125   128    1
   156   125   124    1
   157   128   129    1
   158   129   130    1
   159   167   168    2
   160   130   132   ar
   161   130   131   ar
