@<TRIPOS>MOLECULE
tmp/2wekB04.pdb
 83 79 0 0 0
SMALL
GASTEIGER

@<TRIPOS>ATOM
      1  N        -44.3900   15.1170  -44.2880 N.3   193  TYR193     -0.1227
      2  CA       -44.6090   14.8100  -45.6980 C.3   193  TYR193      0.1736
      3  C        -46.0440   14.8090  -46.1470 C.2   193  TYR193      0.2595
      4  O        -46.2950   14.7390  -47.3450 O.2   193  TYR193     -0.2718
      5  CB       -43.9630   13.4520  -46.0710 C.3   193  TYR193      0.0548
      6  CG       -44.6310   12.2320  -45.5020 C.ar  193  TYR193     -0.0200
      7  CD1      -45.8420   11.7420  -46.0320 C.ar  193  TYR193     -0.0009
      8  CD2      -44.0330   11.5250  -44.4710 C.ar  193  TYR193     -0.0009
      9  CE1      -46.4460   10.5990  -45.4980 C.ar  193  TYR193      0.0417
     10  CE2      -44.5980   10.3880  -43.9460 C.ar  193  TYR193      0.0417
     11  CZ       -45.7980    9.9090  -44.4580 C.ar  193  TYR193      0.1957
     12  OH       -46.3260    8.7520  -43.9140 O.3   193  TYR193     -0.2866
     13  N        -46.9810   14.8670  -45.2080 N.am  194  LYS194     -0.1980
     14  CA       -48.3960   15.0070  -45.5450 C.3   194  LYS194      0.1596
     15  C        -48.7300   16.4370  -45.8680 C.2   194  LYS194      0.2287
     16  O        -49.6980   16.7150  -46.6010 O.2   194  LYS194     -0.2864
     17  CB       -49.2680   14.5720  -44.3590 C.3   194  LYS194      0.0298
     18  CG       -49.0870   13.1250  -43.9060 C.3   194  LYS194      0.0038
     19  CD       -49.8950   12.1460  -44.7390 C.3   194  LYS194      0.0206
     20  CE       -50.2520   10.8960  -43.9500 C.3   194  LYS194      0.1093
     21  NZ       -49.8650    9.6700  -44.6980 N.3   194  LYS194     -0.1314
     22  N        -41.9760   16.3930  -49.8770 N.3   198  VAL198     -0.1245
     23  CA       -40.5800   16.0510  -49.6120 C.3   198  VAL198      0.1561
     24  C        -39.6780   16.3700  -50.8240 C.2   198  VAL198      0.2260
     25  O        -38.5910   16.9170  -50.6540 O.2   198  VAL198     -0.2867
     26  CB       -40.4510   14.5960  -49.1890 C.3   198  VAL198      0.0252
     27  CG1      -38.9750   14.1800  -49.1090 C.3   198  VAL198      0.0019
     28  CG2      -41.1450   14.3770  -47.8470 C.3   198  VAL198      0.0019
     29  N        -39.0720    3.1860  -46.1030 N.3   217  VAL217     -0.1231
     30  CA       -40.4840    3.3580  -46.5300 C.3   217  VAL217      0.1692
     31  C        -40.8030    2.7080  -47.8610 C.2   217  VAL217      0.2593
     32  O        -41.7980    1.9790  -48.0070 O.2   217  VAL217     -0.2718
     33  CB       -40.8660    4.8810  -46.6160 C.3   217  VAL217      0.0266
     34  CG1      -42.2360    5.0450  -47.2250 C.3   217  VAL217      0.0020
     35  CG2      -40.7980    5.5310  -45.2470 C.3   217  VAL217      0.0020
     36  N        -39.9400    2.9710  -48.8390 N.am  218  GLY218     -0.1942
     37  CA       -40.0510    2.4090  -50.1720 C.3   218  GLY218      0.2014
     38  C        -40.8950    3.2500  -51.0790 C.2   218  GLY218      0.2639
     39  O        -41.2460    4.3930  -50.7620 O.2   218  GLY218     -0.2714
     40  N        -41.2470    2.6760  -52.2200 N.am  219  GLY219     -0.1939
     41  CA       -42.1470    3.3320  -53.1680 C.3   219  GLY219      0.2014
     42  C        -41.7170    4.7210  -53.6230 C.2   219  GLY219      0.2639
     43  O        -40.5610    4.9430  -54.0170 O.2   219  GLY219     -0.2714
     44  N        -42.6720    5.6480  -53.5820 N.am  220  ALA220     -0.1963
     45  CA       -42.4680    7.0180  -53.9940 C.3   220  ALA220      0.1728
     46  C        -41.3530    7.6580  -53.1960 C.2   220  ALA220      0.2616
     47  O        -40.5900    8.4200  -53.7270 O.2   220  ALA220     -0.2715
     48  CB       -43.7910    7.8260  -53.8400 C.3   220  ALA220      0.0334
     49  N        -41.2450    7.3340  -51.9200 N.am  221  MET221     -0.1977
     50  CA       -40.1830    7.8900  -51.0840 C.3   221  MET221      0.1605
     51  C        -38.8140    7.4170  -51.5310 C.2   221  MET221      0.2287
     52  O        -37.8850    8.2080  -51.5870 O.2   221  MET221     -0.2864
     53  CB       -40.3640    7.5120  -49.6010 C.3   221  MET221      0.0413
     54  CG       -39.3060    8.1420  -48.7220 C.3   221  MET221      0.0598
     55  SD       -39.5460    9.9680  -48.7070 S.3   221  MET221     -0.1393
     56  CE       -40.4350    9.9890  -47.1550 C.3   221  MET221      0.0692
     57  N        -37.8950    9.3520  -54.6590 N.3   224  LEU224     -0.1245
     58  CA       -37.4650   10.7110  -54.3030 C.3   224  LEU224      0.1561
     59  C        -36.0400   10.6750  -53.7490 C.2   224  LEU224      0.2260
     60  O        -35.2190   11.5250  -54.0920 O.2   224  LEU224     -0.2867
     61  CB       -38.3700   11.3020  -53.2150 C.3   224  LEU224      0.0270
     62  CG       -39.8060   11.7150  -53.5490 C.3   224  LEU224      0.0019
     63  CD1      -40.4090   12.3700  -52.3360 C.3   224  LEU224      0.0001
     64  CD2      -39.8420   12.6330  -54.7400 C.3   224  LEU224      0.0001
     65  N        -44.1070    0.6130  -46.9120 N.3   242  SER242     -0.1217
     66  CA       -45.2670    0.8890  -47.7890 C.3   242  SER242      0.1889
     67  C        -45.7490   -0.3320  -48.5740 C.2   242  SER242      0.2288
     68  O        -46.8740   -0.3730  -49.0060 O.2   242  SER242     -0.2866
     69  CB       -44.9580    2.0250  -48.7800 C.3   242  SER242      0.2089
     70  OG       -43.9400    1.7060  -49.7230 O.3   242  SER242     -0.2183
     71  N        -43.3640   -2.7430  -52.8510 N.3   251  SER251     -0.1203
     72  CA       -43.9390   -1.4360  -53.1890 C.3   251  SER251      0.2005
     73  C        -43.3270   -1.0340  -54.5300 C.2   251  SER251      0.2460
     74  O        -42.1280   -1.1790  -54.6940 O.2   251  SER251     -0.2732
     75  CB       -43.5400   -0.3820  -52.1280 C.3   251  SER251      0.2103
     76  OG       -44.4230    0.7270  -52.1660 O.3   251  SER251     -0.2182
     77  N        -44.1270   -0.4890  -55.4640 N.am  252  PRO252     -0.2728
     78  CA       -43.5390   -0.2030  -56.7960 C.3   252  PRO252      0.1401
     79  C        -42.4950    0.9270  -56.7620 C.2   252  PRO252      0.2269
     80  O        -42.7430    1.9930  -56.1840 O.2   252  PRO252     -0.2865
     81  CB       -44.7530    0.2080  -57.6640 C.3   252  PRO252      0.0296
     82  CG       -45.9590    0.1970  -56.7760 C.3   252  PRO252      0.0237
     83  CD       -45.5110   -0.0060  -55.3390 C.3   252  PRO252      0.0939
@<TRIPOS>BOND
     1    81    78    1
     2    81    82    1
     3    78    79    1
     4    78    77    1
     5    82    83    1
     6    79    80    2
     7    77    83    1
     8    77    73   am
     9    64    62    1
    10    74    73    2
    11    57    58    1
    12    73    72    1
    13    58    59    1
    14    58    61    1
    15    60    59    2
    16    43    42    2
    17    45    48    1
    18    45    44    1
    19    45    46    1
    20    47    46    2
    21    42    44   am
    22    42    41    1
    23    62    61    1
    24    62    63    1
    25    46    49   am
    26    72    71    1
    27    72    75    1
    28    41    40    1
    29    40    38   am
    30    76    75    1
    31    49    50    1
    32    52    51    2
    33    51    50    1
    34    50    53    1
    35    38    39    2
    36    38    37    1
    37    24    25    2
    38    24    23    1
    39    37    36    1
    40    22    23    1
    41    70    69    1
    42    23    26    1
    43    53    54    1
    44    26    27    1
    45    26    28    1
    46    68    67    2
    47    36    31   am
    48    69    66    1
    49    54    55    1
    50    55    56    1
    51    67    66    1
    52    32    31    2
    53    31    30    1
    54    66    65    1
    55     4     3    2
    56    34    33    1
    57    33    30    1
    58    33    35    1
    59    16    15    2
    60    30    29    1
    61     3     2    1
    62     3    13   am
    63     5     2    1
    64     5     6    1
    65     7     6   ar
    66     7     9   ar
    67    15    14    1
    68     2     1    1
    69    14    13    1
    70    14    17    1
    71     6     8   ar
    72     9    11   ar
    73    19    20    1
    74    19    18    1
    75    21    20    1
    76     8    10   ar
    77    11    10   ar
    78    11    12    1
    79    17    18    1
