@<TRIPOS>MOLECULE
tmp/2wekA01.pdb
 150 147 0 0 0
SMALL
GASTEIGER

@<TRIPOS>ATOM
      1  N        -16.8500   -2.5430   -2.8740 N.3    45  ASN45      -0.1225
      2  CA       -17.5130   -2.8150   -1.5920 C.3    45  ASN45       0.1785
      3  C        -19.0130   -2.9850   -1.7390 C.2    45  ASN45       0.2597
      4  O        -19.6370   -2.2080   -2.4670 O.2    45  ASN45      -0.2718
      5  CB       -17.2430   -1.6630   -0.6400 C.3    45  ASN45       0.1169
      6  CG       -15.8110   -1.6500   -0.1540 C.2    45  ASN45       0.2627
      7  OD1      -15.4270   -2.4900    0.6650 O.2    45  ASN45      -0.2716
      8  ND2      -14.9970   -0.7370   -0.6930 N.am   45  ASN45      -0.0877
      9  N        -19.6020   -3.9520   -1.0040 N.am   46  ALA46      -0.1966
     10  CA       -21.0340   -4.2190   -1.0940 C.3    46  ALA46       0.1728
     11  C        -21.8290   -2.9090   -0.9940 C.2    46  ALA46       0.2616
     12  O        -22.7760   -2.6560   -1.7810 O.2    46  ALA46      -0.2715
     13  CB       -21.4880   -5.1930    0.0020 C.3    46  ALA46       0.0334
     14  N        -21.4290   -2.0640   -0.0470 N.am   47  SER47      -0.1950
     15  CA       -22.1230   -0.7910    0.1620 C.3    47  SER47       0.1924
     16  C        -21.8590    0.3190   -0.8470 C.2    47  SER47       0.2314
     17  O        -22.4490    1.4340   -0.7140 O.2    47  SER47      -0.2863
     18  CB       -21.9010   -0.2890    1.5870 C.3    47  SER47       0.2116
     19  OG       -22.7550   -0.9840    2.4790 O.3    47  SER47      -0.2180
     20  N        -25.3640    0.9440   -1.6730 N.3    50  ASN50      -0.1225
     21  CA       -26.0150    1.7710   -0.6590 C.3    50  ASN50       0.1785
     22  C        -25.5930    3.2330   -0.8430 C.2    50  ASN50       0.2597
     23  O        -26.4130    4.1710   -0.6730 O.2    50  ASN50      -0.2718
     24  CB       -25.6850    1.2620    0.7740 C.3    50  ASN50       0.1169
     25  CG       -26.3420   -0.0940    1.0820 C.2    50  ASN50       0.2627
     26  OD1      -27.4640   -0.3350    0.6920 O.2    50  ASN50      -0.2716
     27  ND2      -25.6330   -0.9710    1.7610 N.am   50  ASN50      -0.0877
     28  N        -24.3270    3.4420   -1.2130 N.am   51  TYR51      -0.1976
     29  CA       -23.8270    4.7960   -1.4350 C.3    51  TYR51       0.1639
     30  C        -24.5010    5.4370   -2.6330 C.2    51  TYR51       0.2290
     31  O        -25.0140    6.6010   -2.5540 O.2    51  TYR51      -0.2864
     32  CB       -22.3100    4.7940   -1.5900 C.3    51  TYR51       0.0560
     33  CG       -21.6500    6.1010   -1.2240 C.ar   51  TYR51      -0.0198
     34  CD1      -21.6460    6.5630    0.0850 C.ar   51  TYR51      -0.0009
     35  CD2      -20.9620    6.8400   -2.1790 C.ar   51  TYR51      -0.0009
     36  CE1      -21.0130    7.7700    0.4290 C.ar   51  TYR51       0.0417
     37  CE2      -20.3080    8.0180   -1.8420 C.ar   51  TYR51       0.0417
     38  CZ       -20.3170    8.4740   -0.5450 C.ar   51  TYR51       0.1957
     39  OH       -19.6920    9.6800   -0.2570 O.3    51  TYR51      -0.2866
     40  N        -28.0780    6.3650    0.5480 N.3    55  ARG55      -0.1231
     41  CA       -28.5110    5.9100    1.8770 C.3    55  ARG55       0.1694
     42  C        -27.5660    6.3770    2.9900 C.2    55  ARG55       0.2592
     43  O        -27.9480    6.3840    4.1580 O.2    55  ARG55      -0.2718
     44  CB       -28.6450    4.3750    1.9120 C.3    55  ARG55       0.0321
     45  CG       -29.8420    3.8500    1.1600 C.3    55  ARG55       0.0489
     46  CD       -29.7460    2.3830    0.8050 C.3    55  ARG55       0.2205
     47  NE       -30.8490    2.0100   -0.0930 N.pl3  55  ARG55      -0.0865
     48  CZ       -30.9200    0.9070   -0.8240 C.cat  55  ARG55       0.5346
     49  NH1      -29.9200    0.0380   -0.8250 N.pl3  55  ARG55       0.1354
     50  NH2      -31.9740    0.7080   -1.5950 N.pl3  55  ARG55       0.1354
     51  N        -26.3350    6.7550    2.6480 N.am   56  TYR56      -0.1976
     52  CA       -25.4020    7.2020    3.6920 C.3    56  TYR56       0.1639
     53  C        -25.8550    8.5330    4.2710 C.2    56  TYR56       0.2290
     54  O        -26.0080    8.6690    5.4870 O.2    56  TYR56      -0.2864
     55  CB       -23.9780    7.3030    3.1900 C.3    56  TYR56       0.0560
     56  CG       -23.0680    7.9460    4.2110 C.ar   56  TYR56      -0.0198
     57  CD1      -22.5800    7.2140    5.2840 C.ar   56  TYR56      -0.0009
     58  CD2      -22.7300    9.2900    4.1220 C.ar   56  TYR56      -0.0009
     59  CE1      -21.7620    7.7870    6.2260 C.ar   56  TYR56       0.0417
     60  CE2      -21.9300    9.8860    5.0710 C.ar   56  TYR56       0.0417
     61  CZ       -21.4440    9.1300    6.1210 C.ar   56  TYR56       0.1957
     62  OH       -20.6420    9.7090    7.0740 O.3    56  TYR56      -0.2866
     63  N        -14.6570    3.7900   -2.1210 N.3    68  PHE68      -0.1241
     64  CA       -14.2420    4.0510   -0.7500 C.3    68  PHE68       0.1605
     65  C        -12.7710    3.8730   -0.4420 C.2    68  PHE68       0.2264
     66  O        -12.3440    4.3110    0.6380 O.2    68  PHE68      -0.2867
     67  CB       -15.0090    3.1720    0.2250 C.3    68  PHE68       0.0534
     68  CG       -16.4870    3.4740    0.3120 C.ar   68  PHE68      -0.0203
     69  CD1      -16.9590    4.7670    0.4050 C.ar   68  PHE68      -0.0042
     70  CD2      -17.3980    2.4340    0.3480 C.ar   68  PHE68      -0.0042
     71  CE1      -18.3410    5.0230    0.5050 C.ar   68  PHE68      -0.0003
     72  CE2      -18.7630    2.6750    0.4390 C.ar   68  PHE68      -0.0003
     73  CZ       -19.2250    3.9820    0.5570 C.ar   68  PHE68      -0.0000
     74  N         -8.5110    5.0940    2.7500 N.3    94  MET94      -0.1245
     75  CA        -9.9510    4.9140    2.7940 C.3    94  MET94       0.1570
     76  C        -10.6000    6.3100    2.7880 C.2    94  MET94       0.2261
     77  O        -10.4860    7.0520    3.7640 O.2    94  MET94      -0.2867
     78  CB       -10.3160    4.1520    4.0720 C.3    94  MET94       0.0387
     79  CG       -11.7870    3.7950    4.2210 C.3    94  MET94       0.0595
     80  SD       -12.1020    2.9560    5.7820 S.3    94  MET94      -0.1393
     81  CE       -11.8790    4.3460    6.8480 C.3    94  MET94       0.0692
     82  N        -10.4740   -1.6320    4.4430 N.3   125  VAL125     -0.1245
     83  CA       -11.8790   -1.6170    4.8160 C.3   125  VAL125      0.1561
     84  C        -12.2550   -3.0420    5.2350 C.2   125  VAL125      0.2260
     85  O        -12.7860   -3.2750    6.3230 O.2   125  VAL125     -0.2867
     86  CB       -12.7610   -1.1420    3.6200 C.3   125  VAL125      0.0252
     87  CG1      -14.2800   -1.3840    3.9090 C.3   125  VAL125      0.0019
     88  CG2      -12.4660    0.3590    3.3120 C.3   125  VAL125      0.0019
     89  N        -22.7730   -6.9240   10.9750 N.3   239  ILE239     -0.1231
     90  CA       -21.7400   -6.3150   10.1390 C.3   239  ILE239      0.1692
     91  C        -22.4160   -5.7580    8.9080 C.2   239  ILE239      0.2592
     92  O        -22.0870   -4.6710    8.4250 O.2   239  ILE239     -0.2718
     93  CB       -20.6640   -7.3820    9.7230 C.3   239  ILE239      0.0266
     94  CG1      -19.9560   -7.9000   10.9790 C.3   239  ILE239      0.0019
     95  CG2      -19.6340   -6.7970    8.7090 C.3   239  ILE239      0.0020
     96  CD1      -19.0130   -6.8720   11.6340 C.3   239  ILE239      0.0001
     97  N        -23.4300   -6.4800    8.4580 N.am  240  GLY240     -0.1957
     98  CA       -24.1690   -6.1140    7.2670 C.3   240  GLY240      0.1869
     99  C        -25.3470   -7.0380    6.9740 C.2   240  GLY240      0.2309
    100  O        -25.6470   -7.9970    7.7180 O.2   240  GLY240     -0.2863
    101  N        -29.6320   -5.2440    0.0080 N.3   245  TYR245     -0.1241
    102  CA       -29.1610   -3.9320   -0.4940 C.3   245  TYR245      0.1605
    103  C        -29.7220   -3.5810   -1.8680 C.2   245  TYR245      0.2264
    104  O        -29.9250   -2.3980   -2.1750 O.2   245  TYR245     -0.2867
    105  CB       -27.6280   -3.8630   -0.5550 C.3   245  TYR245      0.0534
    106  CG       -26.8980   -3.9830    0.7620 C.ar  245  TYR245     -0.0201
    107  CD1      -27.5660   -3.8290    1.9920 C.ar  245  TYR245     -0.0009
    108  CD2      -25.5250   -4.2380    0.7840 C.ar  245  TYR245     -0.0009
    109  CE1      -26.8910   -3.9340    3.1910 C.ar  245  TYR245      0.0417
    110  CE2      -24.8350   -4.3480    1.9780 C.ar  245  TYR245      0.0417
    111  CZ       -25.5300   -4.2230    3.1790 C.ar  245  TYR245      0.1957
    112  OH       -24.8550   -4.3620    4.3500 O.3   245  TYR245     -0.2866
    113  N        -22.5050   -2.9010   14.1350 N.3   273  PHE273     -0.1227
    114  CA       -21.1410   -2.3500   13.9550 C.3   273  PHE273      0.1736
    115  C        -21.0720   -1.4780   12.7210 C.2   273  PHE273      0.2595
    116  O        -21.4280   -1.9360   11.6290 O.2   273  PHE273     -0.2718
    117  CB       -20.0810   -3.4700   13.8130 C.3   273  PHE273      0.0547
    118  CG       -18.6850   -2.9290   13.5760 C.ar  273  PHE273     -0.0202
    119  CD1      -17.9060   -2.4770   14.6450 C.ar  273  PHE273     -0.0042
    120  CD2      -18.1980   -2.7610   12.2780 C.ar  273  PHE273     -0.0042
    121  CE1      -16.6370   -1.9330   14.4340 C.ar  273  PHE273     -0.0003
    122  CE2      -16.9280   -2.2120   12.0620 C.ar  273  PHE273     -0.0003
    123  CZ       -16.1610   -1.7810   13.1330 C.ar  273  PHE273     -0.0000
    124  N        -20.6640   -0.2170   12.8950 N.am  274  PHE274     -0.1962
    125  CA       -20.3970    0.6850   11.7910 C.3   274  PHE274      0.1771
    126  C        -18.9410    1.2090   11.9120 C.2   274  PHE274      0.2619
    127  O        -18.6190    1.9380   12.8600 O.2   274  PHE274     -0.2715
    128  CB       -21.3790    1.8560   11.8380 C.3   274  PHE274      0.0574
    129  CG       -21.3420    2.7590   10.6300 C.ar  274  PHE274     -0.0200
    130  CD1      -21.5190    2.2570    9.3640 C.ar  274  PHE274     -0.0042
    131  CD2      -21.2110    4.1400   10.7790 C.ar  274  PHE274     -0.0042
    132  CE1      -21.5410    3.1040    8.2600 C.ar  274  PHE274     -0.0003
    133  CE2      -21.2230    4.9840    9.6910 C.ar  274  PHE274     -0.0003
    134  CZ       -21.3920    4.4650    8.4200 C.ar  274  PHE274     -0.0000
    135  N        -18.1210    0.8850   10.9150 N.am  275  LEU275     -0.1963
    136  CA       -16.6780    1.2200   10.8920 C.3   275  LEU275      0.1728
    137  C        -16.3800    2.6580   11.2990 C.2   275  LEU275      0.2616
    138  O        -15.4740    2.8740   12.0900 O.2   275  LEU275     -0.2715
    139  CB       -16.0490    0.9580    9.5180 C.3   275  LEU275      0.0311
    140  CG       -14.5200    1.0620    9.4820 C.3   275  LEU275      0.0022
    141  CD1      -13.8460    0.2700   10.6100 C.3   275  LEU275      0.0001
    142  CD2      -14.0340    0.6160    8.1170 C.3   275  LEU275      0.0001
    143  N        -17.1770    3.6120   10.8190 N.am  276  ASN276     -0.1972
    144  CA       -16.9150    5.0180   11.0610 C.3   276  ASN276      0.1688
    145  C        -17.1410    5.5160   12.4840 C.2   276  ASN276      0.2292
    146  O        -16.7600    6.6170   12.7760 O.2   276  ASN276     -0.2864
    147  CB       -17.7010    5.9150   10.1010 C.3   276  ASN276      0.1181
    148  CG       -17.1550    5.8820    8.6590 C.2   276  ASN276      0.2629
    149  OD1      -16.1300    5.2510    8.3620 O.2   276  ASN276     -0.2716
    150  ND2      -17.8580    6.5670    7.7630 N.am  276  ASN276     -0.0877
@<TRIPOS>BOND
     1     1     2    1
     2    30    31    2
     3    30    29    1
     4     4     3    2
     5    35    37   ar
     6    35    33   ar
     7   104   103    2
     8    63    64    1
     9   103   102    1
    10    37    38   ar
    11    12    11    2
    12     3     2    1
    13     3     9   am
    14    20    21    1
    15    50    48    1
    16     2     5    1
    17    32    29    1
    18    32    33    1
    19    29    28    1
    20    33    34   ar
    21    28    22   am
    22    10     9    1
    23    10    11    1
    24    10    13    1
    25    11    14   am
    26    16    17    2
    27    16    15    1
    28    22    23    2
    29    22    21    1
    30    49    48    1
    31    48    47    2
    32    64    65    1
    33    64    67    1
    34     8     6   am
    35    21    24    1
    36     5     6    1
    37   105   102    1
    38   105   106    1
    39    38    39    1
    40    38    36   ar
    41   102   101    1
    42    65    66    2
    43     6     7    2
    44    47    46    1
    45    14    15    1
    46    34    36   ar
    47    15    18    1
    48    67    68    1
    49    68    70   ar
    50    68    69   ar
    51    70    72   ar
    52    69    71   ar
    53    72    73   ar
    54    71    73   ar
    55    40    41    1
    56    26    25    2
    57   106   108   ar
    58   106   107   ar
    59    24    25    1
    60   108   110   ar
    61    46    45    1
    62    25    27   am
    63    45    44    1
    64    18    19    1
    65    41    44    1
    66    41    42    1
    67   110   111   ar
    68   107   109   ar
    69    51    42   am
    70    51    52    1
    71    74    75    1
    72    76    75    1
    73    76    77    2
    74    75    78    1
    75    42    43    2
    76   111   109   ar
    77   111   112    1
    78    55    52    1
    79    55    56    1
    80    88    86    1
    81    86    87    1
    82    86    83    1
    83    52    53    1
    84    78    79    1
    85    58    56   ar
    86    58    60   ar
    87    56    57   ar
    88    79    80    1
    89    53    54    2
    90    82    83    1
    91    83    84    1
    92    60    61   ar
    93    84    85    2
    94    57    59   ar
    95    80    81    1
    96    61    59   ar
    97    61    62    1
    98    99    98    1
    99    99   100    2
   100    98    97    1
   101   150   148   am
   102   142   140    1
   103   132   134   ar
   104   132   130   ar
   105   149   148    2
   106   134   133   ar
   107    92    91    2
   108    97    91   am
   109   148   147    1
   110    95    93    1
   111    91    90    1
   112   130   129   ar
   113   140   139    1
   114   140   141    1
   115   139   136    1
   116   133   131   ar
   117    93    90    1
   118    93    94    1
   119   147   144    1
   120    90    89    1
   121   129   131   ar
   122   129   128    1
   123   143   144    1
   124   143   137   am
   125   136   135    1
   126   136   137    1
   127   135   126   am
   128    94    96    1
   129   144   145    1
   130   137   138    2
   131   116   115    2
   132   125   128    1
   133   125   126    1
   134   125   124    1
   135   126   127    2
   136   122   120   ar
   137   122   123   ar
   138   120   118   ar
   139   145   146    2
   140   115   124   am
   141   115   114    1
   142   123   121   ar
   143   118   117    1
   144   118   119   ar
   145   117   114    1
   146   114   113    1
   147   121   119   ar
