@<TRIPOS>MOLECULE
tmp/2wekA02.pdb
 97 94 0 0 0
SMALL
GASTEIGER

@<TRIPOS>ATOM
      1  N        -24.3270    3.4420   -1.2130 N.3    51  TYR51      -0.1241
      2  CA       -23.8270    4.7960   -1.4350 C.3    51  TYR51       0.1605
      3  C        -24.5010    5.4370   -2.6330 C.2    51  TYR51       0.2264
      4  O        -25.0140    6.6010   -2.5540 O.2    51  TYR51      -0.2867
      5  CB       -22.3100    4.7940   -1.5900 C.3    51  TYR51       0.0534
      6  CG       -21.6500    6.1010   -1.2240 C.ar   51  TYR51      -0.0201
      7  CD1      -21.6460    6.5630    0.0850 C.ar   51  TYR51      -0.0009
      8  CD2      -20.9620    6.8400   -2.1790 C.ar   51  TYR51      -0.0009
      9  CE1      -21.0130    7.7700    0.4290 C.ar   51  TYR51       0.0417
     10  CE2      -20.3080    8.0180   -1.8420 C.ar   51  TYR51       0.0417
     11  CZ       -20.3170    8.4740   -0.5450 C.ar   51  TYR51       0.1957
     12  OH       -19.6920    9.6800   -0.2570 O.3    51  TYR51      -0.2866
     13  N        -26.3350    6.7550    2.6480 N.3    56  TYR56      -0.1241
     14  CA       -25.4020    7.2020    3.6920 C.3    56  TYR56       0.1605
     15  C        -25.8550    8.5330    4.2710 C.2    56  TYR56       0.2264
     16  O        -26.0080    8.6690    5.4870 O.2    56  TYR56      -0.2867
     17  CB       -23.9780    7.3030    3.1900 C.3    56  TYR56       0.0534
     18  CG       -23.0680    7.9460    4.2110 C.ar   56  TYR56      -0.0201
     19  CD1      -22.5800    7.2140    5.2840 C.ar   56  TYR56      -0.0009
     20  CD2      -22.7300    9.2900    4.1220 C.ar   56  TYR56      -0.0009
     21  CE1      -21.7620    7.7870    6.2260 C.ar   56  TYR56       0.0417
     22  CE2      -21.9300    9.8860    5.0710 C.ar   56  TYR56       0.0417
     23  CZ       -21.4440    9.1300    6.1210 C.ar   56  TYR56       0.1957
     24  OH       -20.6420    9.7090    7.0740 O.3    56  TYR56      -0.2866
     25  N        -14.6570    3.7900   -2.1210 N.3    68  PHE68      -0.1241
     26  CA       -14.2420    4.0510   -0.7500 C.3    68  PHE68       0.1605
     27  C        -12.7710    3.8730   -0.4420 C.2    68  PHE68       0.2264
     28  O        -12.3440    4.3110    0.6380 O.2    68  PHE68      -0.2867
     29  CB       -15.0090    3.1720    0.2250 C.3    68  PHE68       0.0534
     30  CG       -16.4870    3.4740    0.3120 C.ar   68  PHE68      -0.0203
     31  CD1      -16.9590    4.7670    0.4050 C.ar   68  PHE68      -0.0042
     32  CD2      -17.3980    2.4340    0.3480 C.ar   68  PHE68      -0.0042
     33  CE1      -18.3410    5.0230    0.5050 C.ar   68  PHE68      -0.0003
     34  CE2      -18.7630    2.6750    0.4390 C.ar   68  PHE68      -0.0003
     35  CZ       -19.2250    3.9820    0.5570 C.ar   68  PHE68      -0.0000
     36  N         -8.5110    5.0940    2.7500 N.3    94  MET94      -0.1230
     37  CA        -9.9510    4.9140    2.7940 C.3    94  MET94       0.1702
     38  C        -10.6000    6.3100    2.7880 C.2    94  MET94       0.2592
     39  O        -10.4860    7.0520    3.7640 O.2    94  MET94      -0.2718
     40  CB       -10.3160    4.1520    4.0720 C.3    94  MET94       0.0401
     41  CG       -11.7870    3.7950    4.2210 C.3    94  MET94       0.0596
     42  SD       -12.1020    2.9560    5.7820 S.3    94  MET94      -0.1393
     43  CE       -11.8790    4.3460    6.8480 C.3    94  MET94       0.0692
     44  N        -11.2520    6.6580    1.6830 N.am   95  ALA95      -0.1966
     45  CA       -11.9510    7.9180    1.5670 C.3    95  ALA95       0.1713
     46  C        -12.8350    7.8700    0.3190 C.2    95  ALA95       0.2458
     47  O        -12.5260    7.1390   -0.6180 O.2    95  ALA95      -0.2730
     48  CB       -10.9620    9.0660    1.4620 C.3    95  ALA95       0.0333
     49  N        -13.9480    8.6320    0.3090 N.am   96  PRO96      -0.2727
     50  CA       -14.8470    8.6210   -0.8230 C.3    96  PRO96       0.1402
     51  C        -14.2080    9.2030   -2.0660 C.2    96  PRO96       0.2269
     52  O        -13.5830   10.2460   -2.0000 O.2    96  PRO96      -0.2865
     53  CB       -15.9970    9.5360   -0.3840 C.3    96  PRO96       0.0296
     54  CG       -15.8840    9.6160    1.0610 C.3    96  PRO96       0.0237
     55  CD       -14.4260    9.5720    1.3330 C.3    96  PRO96       0.0939
     56  N         -6.3660   13.7820    1.9200 N.3   106  PRO106     -0.2116
     57  CA        -5.5770   14.5270    2.9130 C.3   106  PRO106      0.1372
     58  C         -4.4560   13.6470    3.4960 C.2   106  PRO106      0.2244
     59  O         -4.6650   12.4680    3.7380 O.2   106  PRO106     -0.2868
     60  CB        -6.6160   14.9260    3.9820 C.3   106  PRO106      0.0268
     61  CG        -7.9700   14.7390    3.3200 C.3   106  PRO106      0.0207
     62  CD        -7.7700   13.6060    2.3500 C.3   106  PRO106      0.0892
     63  N         -4.8810   11.2350    6.5700 N.3   109  ILE109     -0.1245
     64  CA        -5.6170    9.9540    6.5600 C.3   109  ILE109      0.1561
     65  C         -4.9740    8.8980    5.6490 C.2   109  ILE109      0.2260
     66  O         -5.4540    7.7930    5.5650 O.2   109  ILE109     -0.2867
     67  CB        -7.1370   10.1400    6.2480 C.3   109  ILE109      0.0252
     68  CG1       -7.3880   10.4350    4.7770 C.3   109  ILE109      0.0019
     69  CG2       -7.7640   11.2870    7.1070 C.3   109  ILE109      0.0019
     70  CD1       -8.9080   10.4760    4.4480 C.3   109  ILE109      0.0001
     71  N        -20.6640   -0.2170   12.8950 N.3   274  PHE274     -0.1241
     72  CA       -20.3970    0.6850   11.7910 C.3   274  PHE274      0.1605
     73  C        -18.9410    1.2090   11.9120 C.2   274  PHE274      0.2264
     74  O        -18.6190    1.9380   12.8600 O.2   274  PHE274     -0.2867
     75  CB       -21.3790    1.8560   11.8380 C.3   274  PHE274      0.0534
     76  CG       -21.3420    2.7590   10.6300 C.ar  274  PHE274     -0.0203
     77  CD1      -21.5190    2.2570    9.3640 C.ar  274  PHE274     -0.0042
     78  CD2      -21.2110    4.1400   10.7790 C.ar  274  PHE274     -0.0042
     79  CE1      -21.5410    3.1040    8.2600 C.ar  274  PHE274     -0.0003
     80  CE2      -21.2230    4.9840    9.6910 C.ar  274  PHE274     -0.0003
     81  CZ       -21.3920    4.4650    8.4200 C.ar  274  PHE274     -0.0000
     82  N        -17.1770    3.6120   10.8190 N.3   276  ASN276     -0.1240
     83  CA       -16.9150    5.0180   11.0610 C.3   276  ASN276      0.1653
     84  C        -17.1410    5.5160   12.4840 C.2   276  ASN276      0.2266
     85  O        -16.7600    6.6170   12.7760 O.2   276  ASN276     -0.2867
     86  CB       -17.7010    5.9150   10.1010 C.3   276  ASN276      0.1155
     87  CG       -17.1550    5.8820    8.6590 C.2   276  ASN276      0.2627
     88  OD1      -16.1300    5.2510    8.3620 O.2   276  ASN276     -0.2716
     89  ND2      -17.8580    6.5670    7.7630 N.am  276  ASN276     -0.0877
     90  N        -13.1630    4.8010   14.4170 N.3   279  LEU279     -0.1245
     91  CA       -11.9720    5.2910   13.7550 C.3   279  LEU279      0.1561
     92  C        -10.7850    5.4780   14.7000 C.2   279  LEU279      0.2260
     93  O         -9.6590    5.4250   14.2370 O.2   279  LEU279     -0.2867
     94  CB       -12.3030    6.5970   13.0640 C.3   279  LEU279      0.0270
     95  CG       -13.2930    6.3860   11.9040 C.3   279  LEU279      0.0019
     96  CD1      -13.5570    7.6930   11.1680 C.3   279  LEU279      0.0001
     97  CD2      -12.8100    5.2970   10.9570 C.3   279  LEU279      0.0001
@<TRIPOS>BOND
     1     3     4    2
     2     3     2    1
     3     8    10   ar
     4     8     6   ar
     5    25    26    1
     6    51    52    2
     7    51    50    1
     8    10    11   ar
     9     5     2    1
    10     5     6    1
    11     2     1    1
    12     6     7   ar
    13    50    53    1
    14    50    49    1
    15    26    27    1
    16    26    29    1
    17    47    46    2
    18    11    12    1
    19    11     9   ar
    20    27    28    2
    21    53    54    1
    22     7     9   ar
    23    29    30    1
    24    49    46   am
    25    49    55    1
    26    30    32   ar
    27    30    31   ar
    28    46    45    1
    29    32    34   ar
    30    31    33   ar
    31    34    35   ar
    32    33    35   ar
    33    54    55    1
    34    48    45    1
    35    45    44    1
    36    44    38   am
    37    56    62    1
    38    56    57    1
    39    62    61    1
    40    13    14    1
    41    36    37    1
    42    38    37    1
    43    38    39    2
    44    37    40    1
    45    57    58    1
    46    57    60    1
    47    17    14    1
    48    17    18    1
    49    61    60    1
    50    58    59    2
    51    14    15    1
    52    40    41    1
    53    20    18   ar
    54    20    22   ar
    55    18    19   ar
    56    41    42    1
    57    15    16    2
    58    70    68    1
    59    68    67    1
    60    22    23   ar
    61    19    21   ar
    62    66    65    2
    63    65    64    1
    64    42    43    1
    65    23    21   ar
    66    23    24    1
    67    67    64    1
    68    67    69    1
    69    64    63    1
    70    89    87   am
    71    79    81   ar
    72    79    77   ar
    73    88    87    2
    74    81    80   ar
    75    87    86    1
    76    77    76   ar
    77    80    78   ar
    78    86    83    1
    79    76    78   ar
    80    76    75    1
    81    82    83    1
    82    97    95    1
    83    83    84    1
    84    96    95    1
    85    72    75    1
    86    72    73    1
    87    72    71    1
    88    95    94    1
    89    73    74    2
    90    84    85    2
    91    94    91    1
    92    91    90    1
    93    91    92    1
    94    93    92    2
