@<TRIPOS>MOLECULE
tmp/2wekA04.pdb
 81 76 0 0 0
SMALL
GASTEIGER

@<TRIPOS>ATOM
      1  N        -11.3120   -6.8170   12.0050 N.3   131  TYR131     -0.1241
      2  CA       -10.4210   -6.6790   13.1630 C.3   131  TYR131      0.1605
      3  C        -11.0470   -5.8970   14.3070 C.2   131  TYR131      0.2264
      4  O        -11.0730   -6.3340   15.4720 O.2   131  TYR131     -0.2867
      5  CB        -9.1210   -5.9820   12.7450 C.3   131  TYR131      0.0534
      6  CG        -8.0650   -5.9690   13.8080 C.ar  131  TYR131     -0.0201
      7  CD1       -6.9800   -6.8470   13.7370 C.ar  131  TYR131     -0.0009
      8  CD2       -8.1100   -5.0580   14.8650 C.ar  131  TYR131     -0.0009
      9  CE1       -5.9830   -6.8490   14.6870 C.ar  131  TYR131      0.0417
     10  CE2       -7.0990   -5.0480   15.8530 C.ar  131  TYR131      0.0417
     11  CZ        -6.0320   -5.9620   15.7340 C.ar  131  TYR131      0.1957
     12  OH        -5.0400   -6.0230   16.6750 O.3   131  TYR131     -0.2866
     13  N        -14.3910   -7.4710   15.7930 N.3   134  LEU134     -0.1231
     14  CA       -14.1260   -8.6670   16.6120 C.3   134  LEU134      0.1693
     15  C        -13.3740   -8.3530   17.9260 C.2   134  LEU134      0.2591
     16  O        -13.7300   -8.8570   18.9740 O.2   134  LEU134     -0.2718
     17  CB       -13.4210   -9.7380   15.7790 C.3   134  LEU134      0.0284
     18  CG       -14.2700  -10.5310   14.7650 C.3   134  LEU134      0.0019
     19  CD1      -13.4090  -11.5770   14.0080 C.3   134  LEU134      0.0001
     20  CD2      -15.4860  -11.2340   15.4500 C.3   134  LEU134      0.0001
     21  N        -12.4030   -7.4530   17.8760 N.am  135  LYS135     -0.1980
     22  CA       -11.6300   -7.0650   19.0500 C.3   135  LYS135      0.1596
     23  C        -12.4750   -6.3020   20.0620 C.2   135  LYS135      0.2287
     24  O        -12.4230   -6.5880   21.2480 O.2   135  LYS135     -0.2864
     25  CB       -10.4400   -6.1950   18.6310 C.3   135  LYS135      0.0298
     26  CG        -9.4470   -5.9910   19.7480 C.3   135  LYS135      0.0038
     27  CD        -8.1670   -5.2960   19.2940 C.3   135  LYS135      0.0206
     28  CE        -8.4200   -3.9150   18.6920 C.3   135  LYS135      0.1093
     29  NZ        -7.1460   -3.1410   18.5410 N.3   135  LYS135     -0.1314
     30  N        -15.4670  -10.4830   22.2270 N.3   139  GLY139     -0.1210
     31  CA       -15.1110  -11.2130   23.4390 C.3   139  GLY139      0.1956
     32  C        -14.5000  -12.5880   23.1450 C.2   139  GLY139      0.2611
     33  O        -14.7400  -13.5650   23.8570 O.2   139  GLY139     -0.2717
     34  N        -13.7250  -12.6530   22.0750 N.am  140  LEU140     -0.1979
     35  CA       -13.1230  -13.8850   21.6440 C.3   140  LEU140      0.1596
     36  C        -12.0990  -14.3650   22.6630 C.2   140  LEU140      0.2287
     37  O        -11.4040  -13.5880   23.2610 O.2   140  LEU140     -0.2864
     38  CB       -12.4320  -13.7090   20.2960 C.3   140  LEU140      0.0297
     39  CG       -13.2760  -13.2710   19.1120 C.3   140  LEU140      0.0022
     40  CD1      -12.4470  -13.5080   17.8540 C.3   140  LEU140      0.0001
     41  CD2      -14.6650  -13.9790   19.0480 C.3   140  LEU140      0.0001
     42  N         -8.7080  -14.1530   11.8000 N.3   162  LEU162     -0.1245
     43  CA        -8.5130  -13.5360   13.1130 C.3   162  LEU162      0.1561
     44  C         -9.1390  -14.3960   14.2290 C.2   162  LEU162      0.2260
     45  O         -8.5230  -14.6140   15.2920 O.2   162  LEU162     -0.2867
     46  CB        -9.0720  -12.1190   13.1170 C.3   162  LEU162      0.0270
     47  CG        -8.3580  -11.1380   12.1610 C.3   162  LEU162      0.0019
     48  CD1       -9.0910   -9.7760   12.0610 C.3   162  LEU162      0.0001
     49  CD2       -6.8940  -10.9150   12.5520 C.3   162  LEU162      0.0001
     50  N         -6.8900  -17.2040   14.8920 N.3   165  LYS165     -0.1231
     51  CA        -5.6990  -16.7440   15.6350 C.3   165  LYS165      0.1693
     52  C         -6.0000  -16.4910   17.1160 C.2   165  LYS165      0.2591
     53  O         -5.1310  -16.6840   17.9570 O.2   165  LYS165     -0.2718
     54  CB        -5.1070  -15.4690   14.9880 C.3   165  LYS165      0.0285
     55  CG        -4.4500  -15.7170   13.6130 C.3   165  LYS165      0.0035
     56  CD        -3.9560  -14.4090   12.9890 C.3   165  LYS165      0.0206
     57  CE        -3.4280  -14.6200   11.5780 C.3   165  LYS165      0.1093
     58  NZ        -2.2770  -15.5510   11.5440 N.3   165  LYS165     -0.1314
     59  N         -7.2450  -16.1130   17.4140 N.am  166  ALA166     -0.1980
     60  CA        -7.7830  -16.0000   18.7960 C.3   166  ALA166      0.1597
     61  C         -8.1500  -17.3540   19.4160 C.2   166  ALA166      0.2287
     62  O         -8.7760  -17.3960   20.4760 O.2   166  ALA166     -0.2864
     63  CB        -9.0360  -15.0410   18.8200 C.3   166  ALA166      0.0319
     64  N         -1.4150   -3.5700   12.7270 N.3   288  HIS288     -0.1241
     65  CA        -1.3160   -5.0030   13.0160 C.3   288  HIS288      0.1621
     66  C         -1.5950   -5.8830   11.7910 C.2   288  HIS288      0.2264
     67  O         -0.9090   -6.8880   11.5720 O.2   288  HIS288     -0.2867
     68  CB        -2.2120   -5.4140   14.1800 C.3   288  HIS288      0.0745
     69  CG        -1.9110   -6.7900   14.7080 C.ar  288  HIS288      0.0817
     70  ND1       -2.7440   -7.4530   15.5870 N.ar  288  HIS288     -0.2268
     71  CD2       -0.8670   -7.6230   14.4790 C.ar  288  HIS288      0.1154
     72  CE1       -2.2260   -8.6330   15.8790 C.ar  288  HIS288      0.1986
     73  NE2       -1.0910   -8.7640   15.2140 N.ar  288  HIS288     -0.2212
     74  N          1.1000   -8.5540    9.7550 N.3   292  MET292     -0.1245
     75  CA         0.7610   -9.9530    9.4610 C.3   292  MET292      0.1570
     76  C          0.7770  -10.2580    7.9490 C.2   292  MET292      0.2261
     77  O          1.2220  -11.3420    7.5060 O.2   292  MET292     -0.2867
     78  CB        -0.6030  -10.3210   10.0650 C.3   292  MET292      0.0387
     79  CG        -0.6110  -10.3800   11.5990 C.3   292  MET292      0.0595
     80  SD        -2.1880  -10.9730   12.2340 S.3   292  MET292     -0.1393
     81  CE        -3.1910   -9.4910   12.0120 C.3   292  MET292      0.0692
@<TRIPOS>BOND
     1    77    76    2
     2    76    75    1
     3    75    74    1
     4    75    78    1
     5    78    79    1
     6    58    57    1
     7    67    66    2
     8    57    56    1
     9    79    80    1
    10    66    65    1
    11    42    43    1
    12     1     2    1
    13    81    80    1
    14    48    47    1
    15    47    49    1
    16    47    46    1
    17    64    65    1
    18     5     2    1
    19     5     6    1
    20    56    55    1
    21    65    68    1
    22    43    46    1
    23    43    44    1
    24     2     3    1
    25    55    54    1
    26     7     6   ar
    27     7     9   ar
    28     6     8   ar
    29    19    18    1
    30    68    69    1
    31    44    45    2
    32     3     4    2
    33    71    69   ar
    34    71    73   ar
    35     9    11   ar
    36    69    70   ar
    37    18    20    1
    38    18    17    1
    39     8    10   ar
    40    50    51    1
    41    54    51    1
    42    73    72   ar
    43    70    72   ar
    44    51    52    1
    45    11    10   ar
    46    11    12    1
    47    17    14    1
    48    13    14    1
    49    14    15    1
    50    52    59   am
    51    52    53    2
    52    59    60    1
    53    40    39    1
    54    21    15   am
    55    21    22    1
    56    15    16    2
    57    29    28    1
    58    25    22    1
    59    25    26    1
    60    28    27    1
    61    60    63    1
    62    60    61    1
    63    41    39    1
    64    22    23    1
    65    39    38    1
    66    27    26    1
    67    61    62    2
    68    23    24    2
    69    38    35    1
    70    35    34    1
    71    35    36    1
    72    34    32   am
    73    30    31    1
    74    36    37    2
    75    32    31    1
    76    32    33    2
