@<TRIPOS>MOLECULE
tmp/2welA00.pdb
 138 128 0 0 0
SMALL
GASTEIGER

@<TRIPOS>ATOM
      1  N         25.1410   -8.3640    5.2340 N.3    12  LEU12      -0.1231
      2  CA        25.6440   -8.3780    3.8660 C.3    12  LEU12       0.1693
      3  C         24.7590   -7.5570    2.9740 C.2    12  LEU12       0.2593
      4  O         25.1960   -7.0430    1.9470 O.2    12  LEU12      -0.2718
      5  CB        25.6480   -9.8230    3.3220 C.3    12  LEU12       0.0284
      6  CG        26.5290  -10.8040    4.0630 C.3    12  LEU12       0.0019
      7  CD1       26.3500  -12.2050    3.4680 C.3    12  LEU12       0.0001
      8  CD2       28.0200  -10.3140    4.0420 C.3    12  LEU12       0.0001
      9  N         23.4930   -7.4370    3.3430 N.am   13  GLY13      -0.1942
     10  CA        22.5480   -6.7490    2.4740 C.3    13  GLY13       0.2014
     11  C         21.1650   -6.7050    3.0600 C.2    13  GLY13       0.2638
     12  O         20.9150   -7.3160    4.1050 O.2    13  GLY13      -0.2714
     13  N         20.2850   -5.9580    2.3890 N.am   14  LYS14      -0.1977
     14  CA        18.9240   -5.7000    2.8560 C.3    14  LYS14       0.1596
     15  C         17.9450   -6.0340    1.7830 C.2    14  LYS14       0.2287
     16  O         18.2830   -5.9960    0.6070 O.2    14  LYS14      -0.2864
     17  CB        18.7180   -4.2190    3.1590 C.3    14  LYS14       0.0298
     18  CG        19.4050   -3.7570    4.3570 C.3    14  LYS14       0.0038
     19  CD        19.2670   -2.2350    4.5230 C.3    14  LYS14       0.0206
     20  CE        19.1170   -1.8390    5.9870 C.3    14  LYS14       0.1093
     21  NZ        20.0240   -2.5350    6.9430 N.3    14  LYS14      -0.1314
     22  N         20.0970   -9.7150    5.0750 N.3    20  VAL20      -0.1245
     23  CA        20.8970  -10.9120    4.8250 C.3    20  VAL20       0.1561
     24  C         22.1430  -10.7400    5.6640 C.2    20  VAL20       0.2260
     25  O         22.7850   -9.6790    5.6320 O.2    20  VAL20      -0.2867
     26  CB        21.2600  -11.0900    3.3110 C.3    20  VAL20       0.0252
     27  CG1       22.1860  -12.2880    3.1030 C.3    20  VAL20       0.0019
     28  CG2       20.0040  -11.1650    2.4440 C.3    20  VAL20       0.0019
     29  N         24.6990  -17.5740    3.5970 N.3    33  ALA33      -0.1245
     30  CA        23.9740  -16.3150    3.7000 C.3    33  ALA33       0.1562
     31  C         22.5660  -16.5980    4.2620 C.2    33  ALA33       0.2260
     32  O         21.8020  -17.3690    3.6810 O.2    33  ALA33      -0.2867
     33  CB        23.9020  -15.6340    2.3500 C.3    33  ALA33       0.0290
     34  N         18.9960  -15.1970    4.9840 N.3    35  LYS35      -0.1245
     35  CA        18.0320  -14.1320    4.7610 C.3    35  LYS35       0.1561
     36  C         17.0380  -14.1350    5.9320 C.2    35  LYS35       0.2260
     37  O         16.3980  -15.1220    6.2040 O.2    35  LYS35      -0.2867
     38  CB        17.3750  -14.2870    3.4110 C.3    35  LYS35       0.0271
     39  CG        16.3840  -13.1900    3.1110 C.3    35  LYS35       0.0035
     40  CD        15.8200  -13.3640    1.7190 C.3    35  LYS35       0.0206
     41  CE        14.9320  -12.1980    1.3130 C.3    35  LYS35       0.1093
     42  NZ        14.7300  -12.2260   -0.1560 N.3    35  LYS35      -0.1314
     43  N          7.7970  -19.1280   -2.7640 N.3    53  GLU53      -0.1245
     44  CA         9.2060  -18.9480   -3.1030 C.3    53  GLU53       0.1567
     45  C         10.0960  -20.0130   -2.4560 C.2    53  GLU53       0.2260
     46  O         10.9870  -20.5610   -3.1160 O.2    53  GLU53      -0.2867
     47  CB         9.7160  -17.5790   -2.6940 C.3    53  GLU53       0.0388
     48  CG        11.1490  -17.2970   -3.1590 C.3    53  GLU53       0.1160
     49  CD        11.6610  -15.9030   -2.7090 C.2    53  GLU53       0.3649
     50  OE1       10.8740  -15.1130   -2.1420 O.co2  53  GLU53      -0.2457
     51  OE2       12.8670  -15.6250   -2.8880 O.co2  53  GLU53      -0.2457
     52  N         21.0870  -20.5610   -7.1430 N.3    66  VAL66      -0.1245
     53  CA        21.4570  -20.3170   -5.7500 C.3    66  VAL66       0.1561
     54  C         20.6600  -21.3120   -4.9110 C.2    66  VAL66       0.2260
     55  O         19.4470  -21.4250   -5.0590 O.2    66  VAL66      -0.2867
     56  CB        21.1830  -18.8580   -5.3220 C.3    66  VAL66       0.0252
     57  CG1       21.3560  -18.6620   -3.8060 C.3    66  VAL66       0.0019
     58  CG2       22.1160  -17.8930   -6.0770 C.3    66  VAL66       0.0019
     59  N         20.8630  -19.6650    2.4210 N.3    82  PHE82      -0.1227
     60  CA        21.2840  -19.8220    1.0230 C.3    82  PHE82       0.1736
     61  C         22.8050  -19.9370    0.9300 C.2    82  PHE82       0.2595
     62  O         23.5260  -19.6160    1.8740 O.2    82  PHE82      -0.2718
     63  CB        20.8850  -18.5820    0.1980 C.3    82  PHE82       0.0547
     64  CG        19.4110  -18.4150   -0.0030 C.ar   82  PHE82      -0.0202
     65  CD1       18.7560  -19.1760   -0.9520 C.ar   82  PHE82      -0.0042
     66  CD2       18.6940  -17.4580    0.7060 C.ar   82  PHE82      -0.0042
     67  CE1       17.4110  -18.9820   -1.1950 C.ar   82  PHE82      -0.0003
     68  CE2       17.3220  -17.2880    0.4800 C.ar   82  PHE82      -0.0003
     69  CZ        16.6970  -18.0600   -0.4690 C.ar   82  PHE82      -0.0000
     70  N         23.2760  -20.4070   -0.2320 N.am   83  ASP83      -0.1960
     71  CA        24.6700  -20.2990   -0.5970 C.3    83  ASP83       0.1840
     72  C         25.1410  -18.8650   -0.3530 C.2    83  ASP83       0.2622
     73  O         24.4610  -17.9000   -0.7370 O.2    83  ASP83      -0.2715
     74  CB        24.8640  -20.4850   -2.1170 C.3    83  ASP83       0.1450
     75  CG        24.6020  -21.8980   -2.6210 C.2    83  ASP83       0.3671
     76  OD1       24.8070  -22.8750   -1.8580 O.co2  83  ASP83      -0.2456
     77  OD2       24.2740  -22.0180   -3.8430 O.co2  83  ASP83      -0.2456
     78  N         26.3200  -18.7410    0.2340 N.am   84  LEU84      -0.1963
     79  CA        27.0730  -17.4890    0.2130 C.3    84  LEU84       0.1728
     80  C         27.7390  -17.3100   -1.1470 C.2    84  LEU84       0.2616
     81  O         28.3640  -18.2460   -1.6780 O.2    84  LEU84      -0.2715
     82  CB        28.1340  -17.5010    1.3140 C.3    84  LEU84       0.0311
     83  CG        28.9120  -16.2010    1.5570 C.3    84  LEU84       0.0022
     84  CD1       27.9860  -15.1110    2.1130 C.3    84  LEU84       0.0001
     85  CD2       30.0840  -16.5100    2.5250 C.3    84  LEU84       0.0001
     86  N         27.5980  -16.1240   -1.7130 N.am   85  VAL85      -0.1963
     87  CA        28.2880  -15.7730   -2.9720 C.3    85  VAL85       0.1727
     88  C         29.0550  -14.4690   -2.7590 C.2    85  VAL85       0.2616
     89  O         28.6100  -13.5800   -2.0250 O.2    85  VAL85      -0.2715
     90  CB        27.2950  -15.6840   -4.1480 C.3    85  VAL85       0.0290
     91  CG1       26.5640  -17.0520   -4.3630 C.3    85  VAL85       0.0023
     92  CG2       26.2790  -14.5360   -3.9600 C.3    85  VAL85       0.0023
     93  N         30.2450  -14.3750   -3.3280 N.am   86  THR86      -0.1951
     94  CA        31.1170  -13.2120   -3.0820 C.3    86  THR86       0.1897
     95  C         31.4450  -12.4310   -4.3650 C.2    86  THR86       0.2313
     96  O         32.1450  -11.4300   -4.3110 O.2    86  THR86      -0.2863
     97  CB        32.4380  -13.6320   -2.3650 C.3    86  THR86       0.1794
     98  OG1       33.1260  -14.6070   -3.1580 O.3    86  THR86      -0.2208
     99  CG2       32.1650  -14.1870   -0.9540 C.3    86  THR86       0.0378
    100  N         26.5900   -9.2510   -8.3350 N.3    89  GLU89      -0.1245
    101  CA        25.6300   -9.4530   -9.4430 C.3    89  GLU89       0.1567
    102  C         26.3460   -9.4170  -10.7830 C.2    89  GLU89       0.2260
    103  O         27.2780   -8.6460  -10.9870 O.2    89  GLU89      -0.2867
    104  CB        24.5530   -8.3550   -9.4600 C.3    89  GLU89       0.0388
    105  CG        23.6440   -8.2960   -8.2570 C.3    89  GLU89       0.1160
    106  CD        22.7020   -7.0620   -8.2860 C.2    89  GLU89       0.3649
    107  OE1       22.7920   -6.2410   -9.2240 O.co2  89  GLU89      -0.2457
    108  OE2       21.8710   -6.9200   -7.3660 O.co2  89  GLU89      -0.2457
    109  N         23.9490  -14.1800   -9.9520 N.3   135  LEU135     -0.1245
    110  CA        25.0230  -13.8910   -9.0100 C.3   135  LEU135      0.1561
    111  C         26.2590  -14.7270   -9.3690 C.2   135  LEU135      0.2260
    112  O         26.1380  -15.8950   -9.7710 O.2   135  LEU135     -0.2867
    113  CB        24.5460  -14.2010   -7.5820 C.3   135  LEU135      0.0270
    114  CG        23.1960  -13.5930   -7.1930 C.3   135  LEU135      0.0019
    115  CD1       22.8540  -13.8680   -5.7460 C.3   135  LEU135      0.0001
    116  CD2       23.1770  -12.0490   -7.4590 C.3   135  LEU135      0.0001
    117  N         34.7500  -14.5000   -6.5530 N.3   139  LYS139     -0.1245
    118  CA        35.4630  -13.5040   -7.3540 C.3   139  LYS139      0.1561
    119  C         36.3540  -14.1270   -8.4400 C.2   139  LYS139      0.2260
    120  O         37.0100  -13.3990   -9.1740 O.2   139  LYS139     -0.2867
    121  CB        36.2960  -12.5840   -6.4360 C.3   139  LYS139      0.0271
    122  CG        35.4510  -11.8110   -5.4380 C.3   139  LYS139      0.0035
    123  CD        36.2490  -10.9100   -4.5700 C.3   139  LYS139      0.0206
    124  CE        35.3790  -10.3100   -3.4450 C.3   139  LYS139      0.1093
    125  NZ        34.2180   -9.5570   -3.9750 N.3   139  LYS139     -0.1314
    126  N         19.1290  -16.3860   -9.1200 N.3   148  ALA148     -0.1231
    127  CA        18.5340  -16.0580   -7.8190 C.3   148  ALA148      0.1694
    128  C         17.2240  -15.2600   -8.0240 C.2   148  ALA148      0.2592
    129  O         16.7750  -15.0490   -9.1610 O.2   148  ALA148     -0.2718
    130  CB        19.5310  -15.2330   -7.0100 C.3   148  ALA148      0.0304
    131  N         16.6430  -14.7980   -6.9200 N.am  149  ASP149     -0.1974
    132  CA        15.4560  -13.9080   -6.8910 C.3   149  ASP149      0.1709
    133  C         14.2250  -14.5780   -7.5130 C.2   149  ASP149      0.2293
    134  O         13.6980  -14.1110   -8.5140 O.2   149  ASP149     -0.2864
    135  CB        15.7520  -12.5410   -7.5620 C.3   149  ASP149      0.1436
    136  CG        16.5170  -11.5520   -6.6170 C.2   149  ASP149      0.3671
    137  OD1       15.8780  -10.9510   -5.7290 O.co2 149  ASP149     -0.2456
    138  OD2       17.7470  -11.4000   -6.7690 O.co2 149  ASP149     -0.2456
@<TRIPOS>BOND
     1   103   102    2
     2   102   101    1
     3   109   110    1
     4   112   111    2
     5   104   101    1
     6   104   105    1
     7   101   100    1
     8   111   110    1
     9   107   106   ar
    10   120   119    2
    11   129   128    2
    12   126   127    1
    13   110   113    1
    14   134   133    2
    15   119   118    1
    16   106   105    1
    17   106   108   ar
    18   128   127    1
    19   128   131   am
    20   127   130    1
    21   113   114    1
    22   135   132    1
    23   135   136    1
    24   133   132    1
    25   116   114    1
    26   118   117    1
    27   118   121    1
    28   114   115    1
    29    52    53    1
    30   131   132    1
    31   138   136   ar
    32   136   137   ar
    33   121   122    1
    34    58    56    1
    35    53    56    1
    36    53    54    1
    37   122   123    1
    38    56    57    1
    39    55    54    2
    40   123   124    1
    41    95    96    2
    42    95    94    1
    43    91    90    1
    44    90    92    1
    45    90    87    1
    46   125   124    1
    47    77    75   ar
    48    93    94    1
    49    93    88   am
    50    48    49    1
    51    48    47    1
    52    98    97    1
    53    46    45    2
    54    44    43    1
    55    44    47    1
    56    44    45    1
    57    94    97    1
    58    87    88    1
    59    87    86    1
    60    51    49   ar
    61    88    89    2
    62    49    50   ar
    63    75    74    1
    64    75    76   ar
    65    97    99    1
    66    74    71    1
    67    86    80   am
    68    81    80    2
    69    67    65   ar
    70    67    69   ar
    71    80    79    1
    72    65    64   ar
    73    73    72    2
    74    71    72    1
    75    71    70    1
    76    69    68   ar
    77    72    78   am
    78    70    61   am
    79    42    41    1
    80    64    63    1
    81    64    66   ar
    82    63    60    1
    83    79    78    1
    84    79    82    1
    85    68    66   ar
    86    16    15    2
    87    61    60    1
    88    61    62    2
    89    60    59    1
    90    41    40    1
    91    82    83    1
    92    83    84    1
    93    83    85    1
    94    40    39    1
    95    15    14    1
    96     4     3    2
    97    33    30    1
    98    13    14    1
    99    13    11   am
   100    28    26    1
   101    10    11    1
   102    10     9    1
   103    14    17    1
   104     3     9   am
   105     3     2    1
   106    11    12    2
   107    27    26    1
   108    39    38    1
   109    17    18    1
   110    26    23    1
   111     5     2    1
   112     5     6    1
   113    38    35    1
   114     7     6    1
   115    29    30    1
   116    32    31    2
   117    30    31    1
   118     2     1    1
   119     8     6    1
   120    18    19    1
   121    19    20    1
   122    35    34    1
   123    35    36    1
   124    23    22    1
   125    23    24    1
   126    25    24    2
   127    36    37    2
   128    20    21    1
