@<TRIPOS>MOLECULE
tmp/2weqA00.pdb
 171 160 0 0 0
SMALL
GASTEIGER

@<TRIPOS>ATOM
      1  N        -20.1600   26.2160   -0.0620 N.3    33  ILE33      -0.1245
      2  CA       -18.9390   26.8240   -0.5750 C.3    33  ILE33       0.1561
      3  C        -18.5230   26.3330   -1.9580 C.2    33  ILE33       0.2260
      4  O        -18.2030   27.1330   -2.7990 O.2    33  ILE33      -0.2867
      5  CB       -17.7880   26.5930    0.3840 C.3    33  ILE33       0.0252
      6  CG1      -17.9390   27.5030    1.6100 C.3    33  ILE33       0.0019
      7  CG2      -16.4650   26.8210   -0.3160 C.3    33  ILE33       0.0019
      8  CD1      -17.0250   27.1050    2.7590 C.3    33  ILE33       0.0001
      9  N        -20.3660   24.8200   -4.1450 N.3    35  SER35      -0.1202
     10  CA       -21.4160   25.1640   -5.0750 C.3    35  SER35       0.2020
     11  C        -21.3650   26.6660   -5.5050 C.2    35  SER35       0.2619
     12  O        -21.5340   26.9690   -6.6950 O.2    35  SER35      -0.2717
     13  CB       -22.7650   24.7140   -4.4360 C.3    35  SER35       0.2103
     14  OG       -23.7770   25.5200   -4.9230 O.3    35  SER35      -0.2182
     15  N        -21.0510   27.5890   -4.5740 N.am   36  ASN36      -0.1960
     16  CA       -20.7930   28.9640   -4.9070 C.3    36  ASN36       0.1819
     17  C        -19.5400   29.1430   -5.7850 C.2    36  ASN36       0.2621
     18  O        -19.5400   29.9590   -6.6980 O.2    36  ASN36      -0.2715
     19  CB       -20.5750   29.7800   -3.6290 C.3    36  ASN36       0.1195
     20  CG       -21.8340   29.9720   -2.8200 C.2    36  ASN36       0.2630
     21  OD1      -21.7910   30.5020   -1.6760 O.2    36  ASN36      -0.2716
     22  ND2      -22.9430   29.5420   -3.3650 N.am   36  ASN36      -0.0877
     23  N        -18.4600   28.4010   -5.4570 N.am   37  ALA37      -0.1977
     24  CA       -17.2320   28.4070   -6.2450 C.3    37  ALA37       0.1597
     25  C        -17.5440   27.9690   -7.6600 C.2    37  ALA37       0.2287
     26  O        -17.1150   28.6010   -8.6420 O.2    37  ALA37      -0.2864
     27  CB       -16.2010   27.4970   -5.6160 C.3    37  ALA37       0.0319
     28  N        -20.4880   28.1150   -9.2000 N.3    39  ASP39      -0.1225
     29  CA       -21.2810   29.1560   -9.8370 C.3    39  ASP39       0.1805
     30  C        -20.3700   30.3130  -10.3820 C.2    39  ASP39       0.2597
     31  O        -20.5610   30.8180  -11.4810 O.2    39  ASP39      -0.2718
     32  CB       -22.3430   29.6810   -8.8640 C.3    39  ASP39       0.1424
     33  CG       -23.1830   30.8900   -9.4420 C.2    39  ASP39       0.3668
     34  OD1      -23.9690   30.6900  -10.3920 O.co2  39  ASP39      -0.2456
     35  OD2      -23.0730   32.0270   -8.9300 O.co2  39  ASP39      -0.2456
     36  N        -19.3700   30.7010   -9.5910 N.am   40  ALA40      -0.1979
     37  CA       -18.4030   31.7270   -9.9420 C.3    40  ALA40       0.1597
     38  C        -17.5310   31.3200  -11.1310 C.2    40  ALA40       0.2287
     39  O        -17.1800   32.1580  -11.9620 O.2    40  ALA40      -0.2864
     40  CB       -17.5620   32.0490   -8.7430 C.3    40  ALA40       0.0319
     41  N        -19.6770   31.3840  -14.3000 N.3    43  LYS43      -0.1245
     42  CA       -19.8640   32.7660  -14.7630 C.3    43  LYS43       0.1561
     43  C        -18.6770   33.3180  -15.5640 C.2    43  LYS43       0.2260
     44  O        -18.9040   33.9290  -16.6030 O.2    43  LYS43      -0.2867
     45  CB       -20.2170   33.6610  -13.6090 C.3    43  LYS43       0.0271
     46  CG       -21.6550   33.4850  -13.2010 C.3    43  LYS43       0.0035
     47  CD       -21.9540   34.1580  -11.9260 C.3    43  LYS43       0.0206
     48  CE       -23.4470   34.2720  -11.8090 C.3    43  LYS43       0.1093
     49  NZ       -23.7980   34.3590  -10.3930 N.3    43  LYS43      -0.1314
     50  N        -11.2000   29.7170   -5.4250 N.3    78  ASP78      -0.1239
     51  CA       -11.6920   29.3500   -6.7500 C.3    78  ASP78       0.1674
     52  C        -11.0480   30.3710   -7.7050 C.2    78  ASP78       0.2266
     53  O        -10.7520   31.5220   -7.2700 O.2    78  ASP78      -0.2867
     54  CB       -13.2470   29.3500   -6.8420 C.3    78  ASP78       0.1410
     55  CG       -13.8870   30.7560   -6.6420 C.2    78  ASP78       0.3668
     56  OD1      -14.4740   31.0000   -5.5510 O.co2  78  ASP78      -0.2456
     57  OD2      -13.8160   31.6320   -7.5480 O.co2  78  ASP78      -0.2456
     58  N        -15.2420   34.2120  -11.5110 N.3    81  ILE81      -0.1231
     59  CA       -15.3580   35.6210  -11.8630 C.3    81  ILE81       0.1692
     60  C        -14.8140   36.6490  -10.8140 C.2    81  ILE81       0.2593
     61  O        -14.3520   37.7340  -11.2120 O.2    81  ILE81      -0.2718
     62  CB       -16.8300   35.9510  -12.3120 C.3    81  ILE81       0.0266
     63  CG1      -16.9350   37.2490  -13.1140 C.3    81  ILE81       0.0019
     64  CG2      -17.8510   35.9170  -11.1400 C.3    81  ILE81       0.0020
     65  CD1      -18.2410   37.2430  -13.9130 C.3    81  ILE81       0.0001
     66  N        -14.8640   36.3210   -9.5160 N.am   82  GLY82      -0.1942
     67  CA       -14.4880   37.2550   -8.4170 C.3    82  GLY82       0.2014
     68  C        -15.5450   38.3390   -8.2190 C.2    82  GLY82       0.2638
     69  O        -16.5290   38.3830   -8.9480 O.2    82  GLY82      -0.2714
     70  N        -15.3510   39.2170   -7.2390 N.am   83  MET83      -0.1976
     71  CA       -16.3010   40.2800   -6.9580 C.3    83  MET83       0.1605
     72  C        -15.5900   41.6170   -6.7430 C.2    83  MET83       0.2287
     73  O        -14.4870   41.6690   -6.1790 O.2    83  MET83      -0.2864
     74  CB       -17.1040   39.9870   -5.7040 C.3    83  MET83       0.0413
     75  CG       -18.1430   38.8210   -5.8960 C.3    83  MET83       0.0598
     76  SD       -18.8480   38.3980   -4.2770 S.3    83  MET83      -0.1393
     77  CE       -17.5180   37.3780   -3.6440 C.3    83  MET83       0.0692
     78  N        -19.7030   45.0340   -5.4480 N.3    87  GLU87      -0.1245
     79  CA       -20.3530   43.7190   -5.2800 C.3    87  GLU87       0.1567
     80  C        -20.1620   43.1320   -3.8750 C.2    87  GLU87       0.2260
     81  O        -21.0990   42.6170   -3.3040 O.2    87  GLU87      -0.2867
     82  CB       -19.9260   42.7460   -6.3740 C.3    87  GLU87       0.0388
     83  CG       -20.5910   43.0020   -7.6370 C.3    87  GLU87       0.1160
     84  CD       -19.9370   42.3570   -8.8080 C.2    87  GLU87       0.3649
     85  OE1      -18.7430   41.9600   -8.7520 O.co2  87  GLU87      -0.2457
     86  OE2      -20.6210   42.2960   -9.8500 O.co2  87  GLU87      -0.2457
     87  N        -23.7720   42.7390   -2.0980 N.3    91  ASN91      -0.1225
     88  CA       -24.1850   41.3460   -2.1640 C.3    91  ASN91       0.1785
     89  C        -23.8110   40.5330   -0.9420 C.2    91  ASN91       0.2597
     90  O        -24.3980   39.4780   -0.7160 O.2    91  ASN91      -0.2718
     91  CB       -23.6300   40.7210   -3.4280 C.3    91  ASN91       0.1169
     92  CG       -24.3510   41.2090   -4.6770 C.2    91  ASN91       0.2627
     93  OD1      -23.8070   41.9450   -5.5080 O.2    91  ASN91      -0.2716
     94  ND2      -25.5820   40.7900   -4.8180 N.am   91  ASN91      -0.0877
     95  N        -22.8770   41.0400   -0.1360 N.am   92  LEU92      -0.1980
     96  CA       -22.4660   40.3740    1.1130 C.3    92  LEU92       0.1596
     97  C        -22.9050   41.0950    2.3940 C.2    92  LEU92       0.2287
     98  O        -22.2110   41.0780    3.4480 O.2    92  LEU92      -0.2864
     99  CB       -20.9780   40.0200    1.1330 C.3    92  LEU92       0.0297
    100  CG       -20.4890   38.9100    0.2130 C.3    92  LEU92       0.0022
    101  CD1      -19.0020   38.6300    0.4860 C.3    92  LEU92       0.0001
    102  CD2      -21.3310   37.6570    0.4310 C.3    92  LEU92       0.0001
    103  N        -31.7900   40.2310    1.1390 N.3    97  LYS97      -0.1245
    104  CA       -31.8180   39.0770    0.2040 C.3    97  LYS97       0.1561
    105  C        -33.1980   38.4560    0.1730 C.2    97  LYS97       0.2260
    106  O        -33.8000   38.2670    1.2010 O.2    97  LYS97      -0.2867
    107  CB       -30.7740   37.9810    0.5630 C.3    97  LYS97       0.0271
    108  CG       -29.2960   38.2590    0.1840 C.3    97  LYS97       0.0035
    109  CD       -28.9380   37.8000   -1.2570 C.3    97  LYS97       0.0206
    110  CE       -29.2000   36.3070   -1.5130 C.3    97  LYS97       0.1093
    111  NZ       -29.7430   36.0060   -2.9110 N.3    97  LYS97      -0.1314
    112  N        -31.2080   30.5490   -1.4400 N.3   120  GLY120     -0.1210
    113  CA       -30.3020   31.5490   -1.9950 C.3   120  GLY120      0.1956
    114  C        -29.4890   32.1880   -0.8810 C.2   120  GLY120      0.2612
    115  O        -28.9050   33.2470   -1.0980 O.2   120  GLY120     -0.2717
    116  N        -29.3950   31.5740    0.3020 N.am  121  VAL121     -0.1965
    117  CA       -28.6150   32.2640    1.3720 C.3   121  VAL121      0.1727
    118  C        -27.5320   31.4210    1.9840 C.2   121  VAL121      0.2617
    119  O        -27.1050   31.6690    3.1070 O.2   121  VAL121     -0.2715
    120  CB       -29.5150   32.9400    2.5240 C.3   121  VAL121      0.0290
    121  CG1      -30.1530   34.2400    1.9550 C.3   121  VAL121      0.0023
    122  CG2      -30.6190   31.9660    3.1050 C.3   121  VAL121      0.0023
    123  N        -27.0880   30.4240    1.2180 N.am  122  GLY122     -0.1940
    124  CA       -26.1480   29.4110    1.7030 C.3   122  GLY122      0.2014
    125  C        -24.7900   29.9180    2.1030 C.2   122  GLY122      0.2639
    126  O        -24.0850   29.2430    2.8650 O.2   122  GLY122     -0.2714
    127  N        -24.3760   31.0920    1.6220 N.am  123  PHE123     -0.1959
    128  CA       -23.1000   31.6570    2.0780 C.3   123  PHE123      0.1771
    129  C        -23.0260   31.7150    3.6020 C.2   123  PHE123      0.2619
    130  O        -21.9560   31.4800    4.1760 O.2   123  PHE123     -0.2715
    131  CB       -22.8430   33.0490    1.5010 C.3   123  PHE123      0.0574
    132  CG       -21.6930   33.8210    2.1760 C.ar  123  PHE123     -0.0200
    133  CD1      -20.3360   33.5590    1.8580 C.ar  123  PHE123     -0.0042
    134  CD2      -21.9760   34.8530    3.0900 C.ar  123  PHE123     -0.0042
    135  CE1      -19.2620   34.3290    2.4810 C.ar  123  PHE123     -0.0003
    136  CE2      -20.9260   35.6210    3.6920 C.ar  123  PHE123     -0.0003
    137  CZ       -19.5940   35.3490    3.3930 C.ar  123  PHE123     -0.0000
    138  N        -24.1630   31.9970    4.2560 N.am  124  TYR124     -0.1974
    139  CA       -24.2010   32.2020    5.7150 C.3   124  TYR124      0.1639
    140  C        -24.0430   30.9180    6.5170 C.2   124  TYR124      0.2290
    141  O        -23.7920   30.9710    7.7170 O.2   124  TYR124     -0.2864
    142  CB       -25.4350   33.0790    6.1660 C.3   124  TYR124      0.0560
    143  CG       -25.3140   34.4760    5.5330 C.ar  124  TYR124     -0.0198
    144  CD1      -25.9370   34.7800    4.3220 C.ar  124  TYR124     -0.0009
    145  CD2      -24.4980   35.4410    6.0940 C.ar  124  TYR124     -0.0009
    146  CE1      -25.7750   36.0850    3.7010 C.ar  124  TYR124      0.0417
    147  CE2      -24.3180   36.7290    5.4710 C.ar  124  TYR124      0.0417
    148  CZ       -24.9600   37.0220    4.2810 C.ar  124  TYR124      0.1957
    149  OH       -24.7710   38.2830    3.7020 O.3   124  TYR124     -0.2866
    150  N        -13.4860   37.1240    3.0830 N.3   135  VAL135     -0.1245
    151  CA       -13.6920   36.7950    1.6640 C.3   135  VAL135      0.1561
    152  C        -12.6940   37.7190    0.9780 C.2   135  VAL135      0.2260
    153  O        -12.8250   38.9500    1.0340 O.2   135  VAL135     -0.2867
    154  CB       -15.1360   37.0780    1.1720 C.3   135  VAL135      0.0252
    155  CG1      -15.2660   36.9220   -0.3650 C.3   135  VAL135      0.0019
    156  CG2      -16.1890   36.1750    1.8880 C.3   135  VAL135      0.0019
    157  N        -11.6240   34.2340   -5.8110 N.3   170  THR170     -0.1218
    158  CA       -12.0010   34.4840   -4.4600 C.3   170  THR170      0.1862
    159  C        -11.3080   33.4410   -3.5420 C.2   170  THR170      0.2287
    160  O        -11.1210   32.2540   -3.9280 O.2   170  THR170     -0.2866
    161  CB       -13.5770   34.4010   -4.3240 C.3   170  THR170      0.1770
    162  OG1      -14.2380   35.5390   -4.9790 O.3   170  THR170     -0.2211
    163  CG2      -14.0110   34.3380   -2.8480 C.3   170  THR170      0.0375
    164  N        -12.1340   32.1160    0.3290 N.3   172  LEU172     -0.1245
    165  CA       -12.8880   32.0910    1.5450 C.3   172  LEU172      0.1561
    166  C        -11.9730   31.5750    2.6540 C.2   172  LEU172      0.2260
    167  O        -11.4850   30.4480    2.5780 O.2   172  LEU172     -0.2867
    168  CB       -14.0480   31.1360    1.3780 C.3   172  LEU172      0.0270
    169  CG       -15.4690   31.6670    1.5760 C.3   172  LEU172      0.0019
    170  CD1      -15.8880   32.6670    0.5170 C.3   172  LEU172      0.0001
    171  CD2      -16.3210   30.4960    1.4110 C.3   172  LEU172      0.0001
@<TRIPOS>BOND
     1    44    43    2
     2    43    42    1
     3    42    41    1
     4    42    45    1
     5    65    63    1
     6    45    46    1
     7    46    47    1
     8    63    62    1
     9    62    59    1
    10    62    64    1
    11    39    38    2
    12    47    48    1
    13    59    58    1
    14    59    60    1
    15    48    49    1
    16    31    30    2
    17    61    60    2
    18    38    37    1
    19    60    66   am
    20    34    33   ar
    21    30    29    1
    22    30    36   am
    23    37    36    1
    24    37    40    1
    25    86    84   ar
    26    29    28    1
    27    29    32    1
    28    66    67    1
    29    33    35   ar
    30    33    32    1
    31    69    68    2
    32    84    85   ar
    33    84    83    1
    34    26    25    2
    35    67    68    1
    36    68    70   am
    37    52    53    2
    38    52    51    1
    39    25    24    1
    40    83    82    1
    41    57    55   ar
    42    70    71    1
    43    71    72    1
    44    71    74    1
    45    54    51    1
    46    54    55    1
    47    51    50    1
    48    72    73    2
    49    18    17    2
    50    12    11    2
    51    55    56   ar
    52    82    79    1
    53    24    27    1
    54    24    23    1
    55    75    74    1
    56    75    76    1
    57   157   158    1
    58    17    23   am
    59    17    16    1
    60    93    92    2
    61    11    10    1
    62    11    15   am
    63    78    79    1
    64    79    80    1
    65    10    13    1
    66    10     9    1
    67   162   161    1
    68    14    13    1
    69    16    15    1
    70    16    19    1
    71    94    92   am
    72    92    91    1
    73   158   161    1
    74   158   159    1
    75   161   163    1
    76    76    77    1
    77   160   159    2
    78    80    81    2
    79    19    20    1
    80    91    88    1
    81    22    20   am
    82   111   110    1
    83    20    21    2
    84     4     3    2
    85    88    87    1
    86    88    89    1
    87   113   112    1
    88   113   114    1
    89     3     2    1
    90   110   109    1
    91   109   108    1
    92   115   114    2
    93    89    90    2
    94    89    95   am
    95   114   116   am
    96     2     1    1
    97     2     5    1
    98   155   154    1
    99     7     5    1
   100    95    96    1
   101   105   104    1
   102   105   106    2
   103   108   107    1
   104   104   107    1
   105   104   103    1
   106   100   102    1
   107   100   101    1
   108   100    99    1
   109   116   117    1
   110   164   165    1
   111     5     6    1
   112   170   169    1
   113   152   153    2
   114   152   151    1
   115    96    99    1
   116    96    97    1
   117   154   151    1
   118   154   156    1
   119   123   124    1
   120   123   118   am
   121   117   118    1
   122   117   120    1
   123   168   165    1
   124   168   169    1
   125   171   169    1
   126   131   128    1
   127   131   132    1
   128   165   166    1
   129     6     8    1
   130   127   128    1
   131   127   125   am
   132   151   150    1
   133   124   125    1
   134   133   132   ar
   135   133   135   ar
   136   121   120    1
   137   118   119    2
   138   128   129    1
   139   125   126    2
   140   132   134   ar
   141    97    98    2
   142   135   137   ar
   143   120   122    1
   144   167   166    2
   145   134   136   ar
   146   137   136   ar
   147   129   130    2
   148   129   138   am
   149   146   148   ar
   150   146   144   ar
   151   149   148    1
   152   138   139    1
   153   148   147   ar
   154   144   143   ar
   155   147   145   ar
   156   143   145   ar
   157   143   142    1
   158   139   142    1
   159   139   140    1
   160   140   141    2
