@<TRIPOS>MOLECULE
tmp/2wetB00.pdb
 142 139 0 0 0
SMALL
GASTEIGER

@<TRIPOS>ATOM
      1  N          2.0280   85.2400   -9.5560 N.3    49  PHE49      -0.1227
      2  CA         0.8200   85.4630  -10.3780 C.3    49  PHE49       0.1736
      3  C          1.1880   85.2230  -11.8070 C.2    49  PHE49       0.2596
      4  O          2.3680   85.3570  -12.1630 O.2    49  PHE49      -0.2718
      5  CB         0.4750   86.9290  -10.4040 C.3    49  PHE49       0.0547
      6  CG        -0.3750   87.4020   -9.2840 C.ar   49  PHE49      -0.0202
      7  CD1       -0.4550   86.7050   -8.0920 C.ar   49  PHE49      -0.0042
      8  CD2       -1.0730   88.6160   -9.4300 C.ar   49  PHE49      -0.0042
      9  CE1       -1.2470   87.1910   -7.0540 C.ar   49  PHE49      -0.0003
     10  CE2       -1.8730   89.1030   -8.4170 C.ar   49  PHE49      -0.0003
     11  CZ        -1.9570   88.4040   -7.2070 C.ar   49  PHE49      -0.0000
     12  N          0.2010   84.9290  -12.6480 N.am   50  SER50      -0.1938
     13  CA         0.4450   84.7700  -14.0870 C.3    50  SER50       0.2055
     14  C          0.9680   86.0690  -14.6440 C.2    50  SER50       0.2643
     15  O          1.7610   86.0720  -15.5840 O.2    50  SER50      -0.2714
     16  CB        -0.8510   84.4160  -14.8570 C.3    50  SER50       0.2130
     17  OG        -1.7110   85.5590  -14.9020 O.3    50  SER50      -0.2179
     18  N          0.5290   87.1710  -14.0520 N.am   51  THR51      -0.1950
     19  CA         0.9580   88.4890  -14.5280 C.3    51  THR51       0.1897
     20  C          2.4120   88.8640  -14.2660 C.2    51  THR51       0.2313
     21  O          2.8510   89.8830  -14.7630 O.2    51  THR51      -0.2863
     22  CB         0.0980   89.5980  -13.9950 C.3    51  THR51       0.1794
     23  OG1        0.0430   89.4870  -12.5740 O.3    51  THR51      -0.2208
     24  CG2       -1.3210   89.5480  -14.6390 C.3    51  THR51       0.0378
     25  N          3.0630   76.9330  -12.3060 N.3    75  LYS75      -0.1245
     26  CA         1.9360   77.0360  -11.4060 C.3    75  LYS75       0.1561
     27  C          0.6670   77.3680  -12.1950 C.2    75  LYS75       0.2260
     28  O          0.5940   78.4100  -12.8430 O.2    75  LYS75      -0.2867
     29  CB         2.2150   78.1290  -10.3940 C.3    75  LYS75       0.0271
     30  CG         1.2130   78.2400   -9.2880 C.3    75  LYS75       0.0035
     31  CD         1.3350   79.6160   -8.6940 C.3    75  LYS75       0.0206
     32  CE         0.3610   79.8610   -7.6190 C.3    75  LYS75       0.1093
     33  NZ         0.3680   81.3090   -7.2930 N.3    75  LYS75      -0.1314
     34  N         -2.3370   77.0950  -10.6720 N.3    77  GLY77      -0.1210
     35  CA        -3.2600   77.6110   -9.6920 C.3    77  GLY77       0.1956
     36  C         -2.8500   77.1640   -8.3190 C.2    77  GLY77       0.2611
     37  O         -1.7190   76.7570   -8.1210 O.2    77  GLY77      -0.2717
     38  N         -3.7860   77.2680   -7.3780 N.am   78  ILE78      -0.1979
     39  CA        -3.6110   76.7710   -6.0200 C.3    78  ILE78       0.1595
     40  C         -4.6930   75.7550   -5.7260 C.2    78  ILE78       0.2287
     41  O         -5.8600   75.9740   -6.0570 O.2    78  ILE78      -0.2864
     42  CB        -3.6800   77.9210   -4.9760 C.3    78  ILE78       0.0276
     43  CG1       -2.6590   79.0380   -5.3150 C.3    78  ILE78       0.0022
     44  CG2       -3.5120   77.3700   -3.5490 C.3    78  ILE78       0.0022
     45  CD1       -2.8790   80.3320   -4.5580 C.3    78  ILE78       0.0001
     46  N         -8.1110   76.8860   -7.3200 N.3    92  HIS92      -0.1227
     47  CA        -8.2460   78.2710   -7.7730 C.3    92  HIS92       0.1737
     48  C         -7.2070   78.4300   -8.9060 C.2    92  HIS92       0.2438
     49  O         -5.9930   78.3800   -8.6620 O.2    92  HIS92      -0.2733
     50  CB        -8.0110   79.2110   -6.5820 C.3    92  HIS92       0.0758
     51  CG        -7.9850   80.6690   -6.9190 C.ar   92  HIS92       0.0818
     52  ND1       -7.3750   81.6000   -6.1030 N.ar   92  HIS92      -0.2268
     53  CD2       -8.4830   81.3630   -7.9750 C.ar   92  HIS92       0.1154
     54  CE1       -7.5020   82.8040   -6.6410 C.ar   92  HIS92       0.1986
     55  NE2       -8.1660   82.6870   -7.7750 N.ar   92  HIS92      -0.2212
     56  N         -7.6790   78.5630  -10.1550 N.am   93  PRO93      -0.2718
     57  CA        -6.8360   78.4650  -11.3560 C.3    93  PRO93       0.1535
     58  C         -6.5330   79.8070  -12.0190 C.2    93  PRO93       0.2598
     59  O         -7.2340   80.7830  -11.7710 O.2    93  PRO93      -0.2715
     60  CB        -7.7350   77.6750  -12.3110 C.3    93  PRO93       0.0310
     61  CG        -9.1350   78.2190  -12.0120 C.3    93  PRO93       0.0237
     62  CD        -9.1120   78.6420  -10.5110 C.3    93  PRO93       0.0939
     63  N         -5.5170   79.8370  -12.8790 N.am   94  PHE94      -0.1974
     64  CA        -5.3010   80.9400  -13.8080 C.3    94  PHE94       0.1639
     65  C         -6.1250   80.6590  -15.0490 C.2    94  PHE94       0.2290
     66  O         -5.5880   80.3450  -16.1220 O.2    94  PHE94      -0.2864
     67  CB        -3.8150   81.0890  -14.1760 C.3    94  PHE94       0.0560
     68  CG        -2.9460   81.3920  -13.0020 C.ar   94  PHE94      -0.0200
     69  CD1       -2.9770   82.6450  -12.4040 C.ar   94  PHE94      -0.0042
     70  CD2       -2.0880   80.4300  -12.4800 C.ar   94  PHE94      -0.0042
     71  CE1       -2.1780   82.9100  -11.2920 C.ar   94  PHE94      -0.0003
     72  CE2       -1.2840   80.7100  -11.3840 C.ar   94  PHE94      -0.0003
     73  CZ        -1.3280   81.9400  -10.7880 C.ar   94  PHE94      -0.0000
     74  N         -2.8310   93.6280  -19.1150 N.3   150  GLN150     -0.1245
     75  CA        -3.3150   92.2400  -19.0960 C.3   150  GLN150      0.1566
     76  C         -4.5950   92.1660  -19.9190 C.2   150  GLN150      0.2260
     77  O         -5.5540   92.8980  -19.6450 O.2   150  GLN150     -0.2867
     78  CB        -3.5860   91.7350  -17.6750 C.3   150  GLN150      0.0367
     79  CG        -4.2090   90.3310  -17.6470 C.3   150  GLN150      0.0905
     80  CD        -4.6260   89.8520  -16.2500 C.2   150  GLN150      0.2608
     81  OE1       -5.1660   90.6200  -15.4340 O.2   150  GLN150     -0.2717
     82  NE2       -4.3860   88.5600  -15.9750 N.am  150  GLN150     -0.0878
     83  N         -6.4820   85.8870  -20.1780 N.3   153  GLN153     -0.1245
     84  CA        -5.8640   85.2820  -19.0220 C.3   153  GLN153      0.1566
     85  C         -4.7850   84.3500  -19.5030 C.2   153  GLN153      0.2260
     86  O         -5.0650   83.2890  -20.0850 O.2   153  GLN153     -0.2867
     87  CB        -6.8640   84.5260  -18.1540 C.3   153  GLN153      0.0367
     88  CG        -6.2000   83.7720  -16.9770 C.3   153  GLN153      0.0905
     89  CD        -5.8680   84.6980  -15.8270 C.2   153  GLN153      0.2608
     90  OE1       -6.7740   85.2490  -15.1840 O.2   153  GLN153     -0.2717
     91  NE2       -4.5700   84.8950  -15.5730 N.am  153  GLN153     -0.0878
     92  N         -2.4820   83.5360   -1.0570 N.3   344  GLU344     -0.1245
     93  CA        -2.7620   83.6630   -2.4830 C.3   344  GLU344      0.1567
     94  C         -1.5400   84.1250   -3.2410 C.2   344  GLU344      0.2260
     95  O         -1.6690   84.7370   -4.3140 O.2   344  GLU344     -0.2867
     96  CB        -3.9450   84.5960   -2.7520 C.3   344  GLU344      0.0388
     97  CG        -5.2800   84.0450   -2.3520 C.3   344  GLU344      0.1160
     98  CD        -5.8330   83.0350   -3.3640 C.2   344  GLU344      0.3649
     99  OE1       -5.2570   82.9170   -4.4680 O.co2 344  GLU344     -0.2457
    100  OE2       -6.8550   82.3670   -3.0520 O.co2 344  GLU344     -0.2457
    101  N         -5.1200   93.0770   -7.9710 N.3   440  GLY440     -0.1210
    102  CA        -4.6060   91.8250   -8.5660 C.3   440  GLY440      0.1956
    103  C         -5.6410   90.7520   -8.8570 C.2   440  GLY440      0.2612
    104  O         -5.4150   89.9000   -9.7150 O.2   440  GLY440     -0.2717
    105  N         -6.7890   90.7600   -8.1980 N.am  441  PHE441     -0.1962
    106  CA        -7.7200   89.6660   -8.4440 C.3   441  PHE441      0.1771
    107  C         -8.9560   90.1510   -9.1840 C.2   441  PHE441      0.2619
    108  O         -9.3380   91.3120   -9.0320 O.2   441  PHE441     -0.2715
    109  CB        -8.0760   88.9470   -7.1270 C.3   441  PHE441      0.0574
    110  CG        -6.9380   88.1850   -6.5430 C.ar  441  PHE441     -0.0200
    111  CD1       -6.1680   88.7290   -5.5050 C.ar  441  PHE441     -0.0042
    112  CD2       -6.6280   86.9080   -7.0200 C.ar  441  PHE441     -0.0042
    113  CE1       -5.1180   88.0090   -4.9570 C.ar  441  PHE441     -0.0003
    114  CE2       -5.5700   86.1850   -6.4900 C.ar  441  PHE441     -0.0003
    115  CZ        -4.8080   86.7280   -5.4580 C.ar  441  PHE441     -0.0000
    116  N         -9.5470   89.2660   -9.9900 N.am  442  GLU442     -0.1977
    117  CA       -10.8310   89.5130  -10.7000 C.3   442  GLU442      0.1602
    118  C        -12.0000   88.7590  -10.0740 C.2   442  GLU442      0.2287
    119  O        -11.8150   87.9490   -9.1560 O.2   442  GLU442     -0.2864
    120  CB       -10.7500   88.9870  -12.1050 C.3   442  GLU442      0.0415
    121  CG        -9.9470   89.7980  -13.0350 C.3   442  GLU442      0.1163
    122  CD        -9.6650   89.0320  -14.3080 C.2   442  GLU442      0.3649
    123  OE1      -10.5360   88.2550  -14.7480 O.co2 442  GLU442     -0.2457
    124  OE2       -8.5700   89.2220  -14.8630 O.co2 442  GLU442     -0.2457
    125  N        -13.7910   86.1530  -11.0600 N.3   444  TYR444     -0.1227
    126  CA       -13.7650   84.6730  -11.0020 C.3   444  TYR444      0.1736
    127  C        -13.0320   84.1330   -9.7650 C.2   444  TYR444      0.2596
    128  O        -13.4220   83.1120   -9.1940 O.2   444  TYR444     -0.2718
    129  CB       -13.2260   84.0330  -12.2900 C.3   444  TYR444      0.0548
    130  CG       -11.7110   83.9890  -12.4650 C.ar  444  TYR444     -0.0200
    131  CD1      -10.9410   82.9500  -11.9180 C.ar  444  TYR444     -0.0009
    132  CD2      -11.0490   84.9760  -13.2090 C.ar  444  TYR444     -0.0009
    133  CE1       -9.5490   82.9080  -12.0970 C.ar  444  TYR444      0.0417
    134  CE2       -9.6620   84.9390  -13.4010 C.ar  444  TYR444      0.0417
    135  CZ        -8.9320   83.8950  -12.8520 C.ar  444  TYR444      0.1957
    136  OH        -7.5780   83.8740  -13.0580 O.3   444  TYR444     -0.2866
    137  N        -12.0040   84.8530   -9.3390 N.am  445  SER445     -0.1952
    138  CA       -11.2150   84.4930   -8.1660 C.3   445  SER445      0.1924
    139  C        -12.0700   84.5860   -6.9040 C.2   445  SER445      0.2314
    140  O        -12.0200   83.6920   -6.0380 O.2   445  SER445     -0.2863
    141  CB        -9.9950   85.4100   -8.0600 C.3   445  SER445      0.2116
    142  OG        -9.0110   85.0650   -9.0290 O.3   445  SER445     -0.2180
@<TRIPOS>BOND
     1    83    84    1
     2    86    85    2
     3    76    77    2
     4    76    75    1
     5    85    84    1
     6    74    75    1
     7    75    78    1
     8    84    87    1
     9    87    88    1
    10    78    79    1
    11    79    80    1
    12    88    89    1
    13    80    82   am
    14    80    81    2
    15    66    65    2
    16    89    91   am
    17    89    90    2
    18    15    14    2
    19    65    64    1
    20    17    16    1
    21   124   122   ar
    22    16    13    1
    23    21    20    2
    24   123   122   ar
    25    14    13    1
    26    14    18   am
    27    24    22    1
    28    19    20    1
    29    19    18    1
    30    19    22    1
    31   122   121    1
    32    67    64    1
    33    67    68    1
    34    13    12    1
    35    22    23    1
    36    64    63    1
    37   134   132   ar
    38   134   135   ar
    39   132   130   ar
    40   136   135    1
    41   121   120    1
    42    68    70   ar
    43    68    69   ar
    44    63    58   am
    45   135   133   ar
    46    28    27    2
    47    12     3   am
    48    70    72   ar
    49   130   129    1
    50   130   131   ar
    51    69    71   ar
    52    60    61    1
    53    60    57    1
    54    25    26    1
    55   129   126    1
    56    27    26    1
    57     4     3    2
    58   120   117    1
    59   133   131   ar
    60    58    59    2
    61    58    57    1
    62    61    62    1
    63     3     2    1
    64    26    29    1
    65    72    73   ar
    66    57    56    1
    67    71    73   ar
    68   125   126    1
    69   126   127    1
    70   117   118    1
    71   117   116    1
    72    34    35    1
    73    62    56    1
    74     5     2    1
    75     5     6    1
    76    29    30    1
    77     2     1    1
    78    56    48   am
    79   118   119    2
    80   116   107   am
    81   127   137   am
    82   127   128    2
    83   104   103    2
    84    35    36    1
    85     8     6   ar
    86     8    10   ar
    87   137   138    1
    88    30    31    1
    89     6     7   ar
    90   107   108    2
    91   107   106    1
    92   142   141    1
    93    48    49    2
    94    48    47    1
    95   103   102    1
    96   103   105   am
    97    31    32    1
    98   102   101    1
    99   106   105    1
   100   106   109    1
   101    10    11   ar
   102    36    37    2
   103    36    38   am
   104   138   141    1
   105   138   139    1
   106     7     9   ar
   107    53    55   ar
   108    53    51   ar
   109    55    54   ar
   110    47    46    1
   111    47    50    1
   112    32    33    1
   113    38    39    1
   114    11     9   ar
   115   109   110    1
   116   112   110   ar
   117   112   114   ar
   118    51    50    1
   119    51    52   ar
   120   139   140    2
   121    54    52   ar
   122   110   111   ar
   123   114   115   ar
   124    41    40    2
   125    39    40    1
   126    39    42    1
   127   111   113   ar
   128   115   113   ar
   129    43    42    1
   130    43    45    1
   131    42    44    1
   132    99    98   ar
   133    95    94    2
   134    98   100   ar
   135    98    97    1
   136    94    93    1
   137    96    93    1
   138    96    97    1
   139    93    92    1
