@<TRIPOS>MOLECULE
tmp/2wevA00.pdb
 175 167 0 0 0
SMALL
GASTEIGER

@<TRIPOS>ATOM
      1  N         -0.1980   46.2770    8.5690 N.3    10  ILE10      -0.1231
      2  CA        -0.8950   46.8830    7.4330 C.3    10  ILE10       0.1692
      3  C         -0.8670   46.0270    6.1700 C.2    10  ILE10       0.2593
      4  O         -1.5430   46.3490    5.1950 O.2    10  ILE10      -0.2718
      5  CB        -0.3680   48.3180    7.0860 C.3    10  ILE10       0.0266
      6  CG1        1.1630   48.3270    6.9450 C.3    10  ILE10       0.0019
      7  CG2       -0.8470   49.3060    8.1400 C.3    10  ILE10       0.0020
      8  CD1        1.7100   49.5930    6.4790 C.3    10  ILE10       0.0001
      9  N         -0.0820   44.9600    6.1620 N.am   11  GLY11      -0.1942
     10  CA        -0.0380   44.1260    4.9970 C.3    11  GLY11       0.2014
     11  C          1.1220   43.1650    4.9890 C.2    11  GLY11       0.2639
     12  O          1.8050   42.9970    5.9770 O.2    11  GLY11      -0.2714
     13  N          1.3080   42.5130    3.8470 N.am   12  GLU12      -0.1963
     14  CA         2.4520   41.6590    3.6050 C.3    12  GLU12       0.1733
     15  C          3.0420   41.9550    2.2360 C.2    12  GLU12       0.2616
     16  O          2.3330   42.2770    1.2930 O.2    12  GLU12      -0.2715
     17  CB         2.0490   40.2020    3.6910 C.3    12  GLU12       0.0429
     18  CG         1.2260   39.8880    4.9360 C.3    12  GLU12       0.1163
     19  CD         1.5500   38.5600    5.5550 C.2    12  GLU12       0.3649
     20  OE1        2.5560   37.9200    5.1630 O.co2  12  GLU12      -0.2457
     21  OE2        0.7860   38.1580    6.4570 O.co2  12  GLU12      -0.2457
     22  N          4.3560   41.8910    2.1570 N.am   13  GLY13      -0.1955
     23  CA         5.0510   41.8770    0.8750 C.3    13  GLY13       0.1869
     24  C          5.7850   40.5610    0.6600 C.2    13  GLY13       0.2309
     25  O          5.5190   39.5650    1.3290 O.2    13  GLY13      -0.2863
     26  N          4.4380   43.6450    6.8030 N.3    18  VAL18      -0.1245
     27  CA         4.5650   45.0970    6.8330 C.3    18  VAL18       0.1561
     28  C          3.7740   45.6710    8.0220 C.2    18  VAL18       0.2260
     29  O          2.5990   45.4180    8.1380 O.2    18  VAL18      -0.2867
     30  CB         4.0850   45.7100    5.5000 C.3    18  VAL18       0.0252
     31  CG1        4.2930   47.2460    5.4730 C.3    18  VAL18       0.0019
     32  CG2        4.8110   45.0680    4.3360 C.3    18  VAL18       0.0019
     33  N          6.5480   52.6400    7.7050 N.3    31  ALA31      -0.1245
     34  CA         6.1340   51.2850    7.4030 C.3    31  ALA31       0.1562
     35  C          7.3550   50.4000    7.6060 C.2    31  ALA31       0.2260
     36  O          8.3720   50.6180    6.9700 O.2    31  ALA31      -0.2867
     37  CB         5.6080   51.2030    5.9620 C.3    31  ALA31       0.0290
     38  N          9.0240   46.7030    7.3890 N.3    33  LYS33      -0.1245
     39  CA         8.8870   45.3780    6.8200 C.3    33  LYS33       0.1561
     40  C          9.8380   44.4210    7.5190 C.2    33  LYS33       0.2260
     41  O         11.0440   44.5640    7.4470 O.2    33  LYS33      -0.2867
     42  CB         9.1390   45.4030    5.3210 C.3    33  LYS33       0.0271
     43  CG         8.8600   44.1040    4.6150 C.3    33  LYS33       0.0035
     44  CD         9.1820   44.2110    3.1340 C.3    33  LYS33       0.0206
     45  CE         8.9960   42.8600    2.4240 C.3    33  LYS33       0.1093
     46  NZ         9.1920   42.9000    0.9430 N.3    33  LYS33      -0.1314
     47  N         15.5840   43.6340   -3.1810 N.3    51  GLU51      -0.1245
     48  CA        14.8230   44.8160   -2.7770 C.3    51  GLU51       0.1567
     49  C         15.6920   45.8420   -2.1320 C.2    51  GLU51       0.2260
     50  O         15.6040   47.0030   -2.4820 O.2    51  GLU51      -0.2867
     51  CB        13.6780   44.4660   -1.8170 C.3    51  GLU51       0.0388
     52  CG        12.8840   45.6580   -1.4170 C.3    51  GLU51       0.1160
     53  CD        11.4820   45.3190   -0.9380 C.2    51  GLU51       0.3649
     54  OE1       11.3690   44.4380   -0.0550 O.co2  51  GLU51      -0.2457
     55  OE2       10.5030   45.9430   -1.4370 O.co2  51  GLU51      -0.2457
     56  N          8.8050   54.0470   -3.7370 N.3    64  VAL64      -0.1245
     57  CA         8.8250   54.0240   -2.2840 C.3    64  VAL64       0.1561
     58  C         10.2330   54.1290   -1.7210 C.2    64  VAL64       0.2260
     59  O         11.1590   53.4590   -2.1740 O.2    64  VAL64      -0.2867
     60  CB         8.1310   52.7630   -1.7410 C.3    64  VAL64       0.0252
     61  CG1        9.0510   51.4880   -1.8940 C.3    64  VAL64       0.0019
     62  CG2        7.7180   52.9790   -0.3150 C.3    64  VAL64       0.0019
     63  N         10.5940   51.9980    5.6560 N.3    80  PHE80      -0.1227
     64  CA        10.1190   52.7350    4.5130 C.3    80  PHE80       0.1736
     65  C          9.3270   53.9400    4.9550 C.2    80  PHE80       0.2595
     66  O          8.6930   53.9250    6.0150 O.2    80  PHE80      -0.2718
     67  CB         9.1680   51.8720    3.6640 C.3    80  PHE80       0.0547
     68  CG         9.8220   50.7030    3.0090 C.ar   80  PHE80      -0.0202
     69  CD1        9.8660   49.4900    3.6360 C.ar   80  PHE80      -0.0042
     70  CD2       10.4110   50.8330    1.7580 C.ar   80  PHE80      -0.0042
     71  CE1       10.4660   48.4180    3.0370 C.ar   80  PHE80      -0.0003
     72  CE2       10.9930   49.7610    1.1520 C.ar   80  PHE80      -0.0003
     73  CZ        11.0210   48.5570    1.7890 C.ar   80  PHE80      -0.0000
     74  N          9.2900   54.9590    4.1090 N.am   81  GLU81      -0.1965
     75  CA         8.2460   55.9650    4.2220 C.3    81  GLU81       0.1733
     76  C          6.8670   55.2750    4.2720 C.2    81  GLU81       0.2616
     77  O          6.6470   54.2500    3.6140 O.2    81  GLU81      -0.2715
     78  CB         8.2980   56.9280    3.0490 C.3    81  GLU81       0.0429
     79  CG         8.1500   56.2510    1.7240 C.3    81  GLU81       0.1163
     80  CD         7.8510   57.2030    0.5740 C.2    81  GLU81       0.3649
     81  OE1        8.3320   56.9410   -0.5470 O.co2  81  GLU81      -0.2457
     82  OE2        7.1440   58.1970    0.7790 O.co2  81  GLU81      -0.2457
     83  N          5.9580   55.8150    5.0680 N.am   82  PHE82      -0.1960
     84  CA         4.6140   55.2560    5.1820 C.3    82  PHE82       0.1771
     85  C          3.6980   55.8000    4.1100 C.2    82  PHE82       0.2619
     86  O          3.6830   56.9850    3.8600 O.2    82  PHE82      -0.2715
     87  CB         3.9930   55.5790    6.5220 C.3    82  PHE82       0.0574
     88  CG         2.5250   55.2270    6.6150 C.ar   82  PHE82      -0.0200
     89  CD1        1.5590   56.2130    6.5680 C.ar   82  PHE82      -0.0042
     90  CD2        2.1300   53.9290    6.8120 C.ar   82  PHE82      -0.0042
     91  CE1        0.2090   55.8870    6.7100 C.ar   82  PHE82      -0.0003
     92  CE2        0.7890   53.5970    6.9460 C.ar   82  PHE82      -0.0003
     93  CZ        -0.1670   54.5720    6.9030 C.ar   82  PHE82      -0.0000
     94  N          2.9310   54.9150    3.5020 N.am   83  LEU83      -0.1963
     95  CA         1.9030   55.2750    2.5580 C.3    83  LEU83       0.1728
     96  C          0.6060   54.6270    2.9910 C.2    83  LEU83       0.2616
     97  O          0.6090   53.5020    3.4870 O.2    83  LEU83      -0.2715
     98  CB         2.3030   54.8090    1.1560 C.3    83  LEU83       0.0311
     99  CG         3.4540   55.6780    0.6160 C.3    83  LEU83       0.0022
    100  CD1        4.5140   54.8520   -0.0490 C.3    83  LEU83       0.0001
    101  CD2        2.8870   56.7590   -0.3180 C.3    83  LEU83       0.0001
    102  N         -0.5030   55.3220    2.7540 N.am   84  HIS84      -0.1959
    103  CA        -1.7980   55.0110    3.4030 C.3    84  HIS84       0.1787
    104  C         -2.5420   53.8140    2.8650 C.2    84  HIS84       0.2620
    105  O         -3.2040   53.1180    3.6160 O.2    84  HIS84      -0.2715
    106  CB        -2.7230   56.2300    3.3170 C.3    84  HIS84       0.0785
    107  CG        -2.2080   57.4050    4.0730 C.ar   84  HIS84       0.0821
    108  ND1       -1.2370   58.2470    3.5670 N.ar   84  HIS84      -0.2267
    109  CD2       -2.4930   57.8540    5.3170 C.ar   84  HIS84       0.1154
    110  CE1       -0.9540   59.1670    4.4710 C.ar   84  HIS84       0.1986
    111  NE2       -1.7020   58.9540    5.5370 N.ar   84  HIS84      -0.2212
    112  N         -2.4730   53.5810    1.5660 N.am   85  GLN85      -0.1963
    113  CA        -3.2660   52.5150    0.9660 C.3    85  GLN85       0.1733
    114  C         -2.6370   51.9640   -0.3040 C.2    85  GLN85       0.2616
    115  O         -1.8320   52.6290   -0.9240 O.2    85  GLN85      -0.2715
    116  CB        -4.6700   53.0320    0.6380 C.3    85  GLN85       0.0408
    117  CG        -5.6320   51.9000    0.2400 C.3    85  GLN85       0.0908
    118  CD        -7.0420   52.1900    0.6280 C.2    85  GLN85       0.2608
    119  OE1       -7.6590   51.4170    1.3700 O.2    85  GLN85      -0.2717
    120  NE2       -7.5730   53.3290    0.1600 N.am   85  GLN85      -0.0878
    121  N         -3.0280   50.7530   -0.6920 N.am   86  ASP86      -0.1971
    122  CA        -2.6610   50.2050   -1.9810 C.3    86  ASP86       0.1709
    123  C         -3.7680   50.3810   -2.9860 C.2    86  ASP86       0.2293
    124  O         -4.9300   50.5740   -2.6110 O.2    86  ASP86      -0.2864
    125  CB        -2.1700   48.7460   -1.8820 C.3    86  ASP86       0.1436
    126  CG        -3.2850   47.7280   -1.6290 C.2    86  ASP86       0.3671
    127  OD1       -4.2050   47.5960   -2.4340 O.co2  86  ASP86      -0.2456
    128  OD2       -3.1780   46.9810   -0.6480 O.co2  86  ASP86      -0.2456
    129  N         -6.9040   47.9320   -3.1010 N.3    89  LYS89      -0.1245
    130  CA        -7.8800   48.2040   -2.0860 C.3    89  LYS89       0.1561
    131  C         -8.6090   49.5200   -2.3670 C.2    89  LYS89       0.2260
    132  O         -9.7980   49.6080   -2.1440 O.2    89  LYS89      -0.2867
    133  CB        -7.2370   48.1650   -0.7000 C.3    89  LYS89       0.0271
    134  CG        -7.0440   46.7420   -0.1910 C.3    89  LYS89       0.0035
    135  CD        -5.9380   46.6290    0.8760 C.3    89  LYS89       0.0206
    136  CE        -6.3440   47.3460    2.1780 C.3    89  LYS89       0.1093
    137  NZ        -5.2050   47.5720    3.1680 N.3    89  LYS89      -0.1314
    138  N         -1.7830   45.7220   -6.1500 N.3   131  GLN131     -0.1231
    139  CA        -1.4630   45.4700   -4.7360 C.3   131  GLN131      0.1698
    140  C         -0.0740   46.0080   -4.3880 C.2   131  GLN131      0.2592
    141  O          0.2260   46.2660   -3.2090 O.2   131  GLN131     -0.2718
    142  CB        -1.5990   43.9660   -4.3960 C.3   131  GLN131      0.0381
    143  CG        -2.7430   43.2490   -5.2270 C.3   131  GLN131      0.0905
    144  CD        -2.9950   41.7870   -4.8710 C.2   131  GLN131      0.2608
    145  OE1       -4.1640   41.3880   -4.7400 O.2   131  GLN131     -0.2717
    146  NE2       -1.9040   40.9550   -4.7530 N.am  131  GLN131     -0.0878
    147  N          0.7600   46.2320   -5.4130 N.am  132  ASN132     -0.1974
    148  CA         2.1140   46.7490   -5.2210 C.3   132  ASN132      0.1688
    149  C          2.2600   48.2350   -5.5120 C.2   132  ASN132      0.2292
    150  O          3.3650   48.7480   -5.5370 O.2   132  ASN132     -0.2864
    151  CB         3.1150   46.0030   -6.1050 C.3   132  ASN132      0.1181
    152  CG         3.4460   44.6260   -5.5840 C.2   132  ASN132      0.2629
    153  OD1        3.2260   44.3240   -4.4080 O.2   132  ASN132     -0.2716
    154  ND2        3.9490   43.7560   -6.4770 N.am  132  ASN132     -0.0877
    155  N          1.2090   51.9790   -4.3120 N.3   134  LEU134     -0.1245
    156  CA         0.8330   52.6050   -3.0420 C.3   134  LEU134      0.1561
    157  C          0.4740   54.0690   -3.1860 C.2   134  LEU134      0.2260
    158  O          1.1580   54.8430   -3.8950 O.2   134  LEU134     -0.2867
    159  CB         1.9610   52.5270   -2.0280 C.3   134  LEU134      0.0270
    160  CG         2.4880   51.1430   -1.6140 C.3   134  LEU134      0.0019
    161  CD1        3.7540   51.3290   -0.7830 C.3   134  LEU134      0.0001
    162  CD2        1.4380   50.3410   -0.8870 C.3   134  LEU134      0.0001
    163  N          6.0580   49.9170   -5.4320 N.3   144  ALA144     -0.1231
    164  CA         6.5450   49.2340   -4.2240 C.3   144  ALA144      0.1694
    165  C          6.8000   47.7530   -4.4940 C.2   144  ALA144      0.2592
    166  O          6.3950   47.2210   -5.4990 O.2   144  ALA144     -0.2718
    167  CB         5.5370   49.4010   -3.0640 C.3   144  ALA144      0.0304
    168  N          7.4600   47.1210   -3.5370 N.am  145  ASP145     -0.1974
    169  CA         7.8370   45.7310   -3.5600 C.3   145  ASP145      0.1709
    170  C          8.7500   45.3550   -4.7270 C.2   145  ASP145      0.2293
    171  O          8.3110   44.9150   -5.7930 O.2   145  ASP145     -0.2864
    172  CB         6.6240   44.8090   -3.4500 C.3   145  ASP145      0.1436
    173  CG         6.9880   43.4730   -2.8040 C.2   145  ASP145      0.3671
    174  OD1        8.0680   42.9490   -3.1400 O.co2 145  ASP145     -0.2456
    175  OD2        6.2410   42.9830   -1.9320 O.co2 145  ASP145     -0.2456
@<TRIPOS>BOND
     1   154   152   am
     2   138   139    1
     3   151   152    1
     4   151   148    1
     5   171   170    2
     6   152   153    2
     7   150   149    2
     8   149   148    1
     9   166   165    2
    10   163   164    1
    11   147   148    1
    12   147   140   am
    13   143   144    1
    14   143   142    1
    15   144   146   am
    16   144   145    2
    17   139   142    1
    18   139   140    1
    19   170   169    1
    20   165   164    1
    21   165   168   am
    22   140   141    2
    23   155   156    1
    24   164   167    1
    25   158   157    2
    26    56    57    1
    27   169   168    1
    28   169   172    1
    29   172   173    1
    30   157   156    1
    31    47    48    1
    32   174   173   ar
    33   129   130    1
    34   156   159    1
    35   123   124    2
    36   123   122    1
    37   173   175   ar
    38    48    49    1
    39    48    51    1
    40    50    49    2
    41   127   126   ar
    42   131   132    2
    43   131   130    1
    44    57    60    1
    45    57    58    1
    46    59    58    2
    47   130   133    1
    48   159   160    1
    49   122   125    1
    50   122   121    1
    51    61    60    1
    52   125   126    1
    53    51    52    1
    54    60    62    1
    55   126   128   ar
    56   160   162    1
    57   160   161    1
    58    55    53   ar
    59    52    53    1
    60    53    54   ar
    61   115   114    2
    62   133   134    1
    63   121   114   am
    64    81    80   ar
    65   101    99    1
    66   114   113    1
    67   134   135    1
    68   100    99    1
    69   120   118   am
    70   117   118    1
    71   117   116    1
    72    80    82   ar
    73    80    79    1
    74    99    98    1
    75   118   119    2
    76   116   113    1
    77    24    23    1
    78    24    25    2
    79    23    22    1
    80   135   136    1
    81    46    45    1
    82   113   112    1
    83    72    70   ar
    84    72    73   ar
    85    98    95    1
    86    16    15    2
    87   112   104   am
    88    79    78    1
    89    70    68   ar
    90    73    71   ar
    91    22    15   am
    92   136   137    1
    93    15    14    1
    94    45    44    1
    95    95    96    1
    96    95    94    1
    97   102    96   am
    98   102   103    1
    99   104   103    1
   100   104   105    2
   101    96    97    2
   102    68    69   ar
   103    68    67    1
   104    71    69   ar
   105    78    75    1
   106    44    43    1
   107   106   103    1
   108   106   107    1
   109    94    85   am
   110   108   107   ar
   111   108   110   ar
   112    14    17    1
   113    14    13    1
   114    77    76    2
   115    67    64    1
   116    17    18    1
   117    13    11   am
   118    86    85    2
   119   107   109   ar
   120    74    75    1
   121    74    65   am
   122    85    84    1
   123    75    76    1
   124    76    83   am
   125    32    30    1
   126   110   111   ar
   127    64    65    1
   128    64    63    1
   129    43    42    1
   130    18    19    1
   131    65    66    2
   132    11    10    1
   133    11    12    2
   134    10     9    1
   135    83    84    1
   136    20    19   ar
   137    84    87    1
   138     4     3    2
   139   109   111   ar
   140    42    39    1
   141    31    30    1
   142    30    27    1
   143    19    21   ar
   144    37    34    1
   145     9     3   am
   146     3     2    1
   147     8     6    1
   148    87    88    1
   149    89    88   ar
   150    89    91   ar
   151    88    90   ar
   152    91    93   ar
   153    26    27    1
   154    90    92   ar
   155    39    38    1
   156    39    40    1
   157    27    28    1
   158    93    92   ar
   159     6     5    1
   160    36    35    2
   161     5     2    1
   162     5     7    1
   163    34    35    1
   164    34    33    1
   165     2     1    1
   166    41    40    2
   167    28    29    2
