@<TRIPOS>MOLECULE
tmp/2wevB00.pdb
 129 124 0 0 0
SMALL
GASTEIGER

@<TRIPOS>ATOM
      1  N         47.0540   33.4910   -3.4190 N.3    36  MET36      -0.1245
      2  CA        45.8910   32.8770   -2.7780 C.3    36  MET36       0.1570
      3  C         44.5850   33.3520   -3.4040 C.2    36  MET36       0.2261
      4  O         43.7010   32.5590   -3.6350 O.2    36  MET36      -0.2867
      5  CB        45.8570   33.1910   -1.2910 C.3    36  MET36       0.0387
      6  CG        46.9300   32.4750   -0.4600 C.3    36  MET36       0.0595
      7  SD        46.8830   33.0680    1.2600 S.3    36  MET36      -0.1393
      8  CE        48.3930   32.2830    1.8860 C.3    36  MET36       0.0692
      9  N         44.0610   31.5180   -6.5910 N.3    39  ILE39      -0.1231
     10  CA        43.5910   30.1560   -6.3620 C.3    39  ILE39       0.1692
     11  C         42.0980   30.1580   -6.0150 C.2    39  ILE39       0.2591
     12  O         41.3480   29.2560   -6.4170 O.2    39  ILE39      -0.2718
     13  CB        44.3820   29.4720   -5.2190 C.3    39  ILE39       0.0266
     14  CG1       45.8450   29.2770   -5.6440 C.3    39  ILE39       0.0019
     15  CG2       43.7250   28.1360   -4.8200 C.3    39  ILE39       0.0020
     16  CD1       46.8000   28.8780   -4.5110 C.3    39  ILE39       0.0001
     17  N         41.6700   31.1690   -5.2510 N.am   40  LEU40      -0.1980
     18  CA        40.2580   31.2550   -4.8040 C.3    40  LEU40       0.1596
     19  C         39.3170   31.4930   -5.9770 C.2    40  LEU40       0.2287
     20  O         38.3480   30.7770   -6.1510 O.2    40  LEU40      -0.2864
     21  CB        40.1170   32.3860   -3.7820 C.3    40  LEU40       0.0297
     22  CG        38.7270   32.6620   -3.1950 C.3    40  LEU40       0.0022
     23  CD1       38.3650   31.5420   -2.2930 C.3    40  LEU40       0.0001
     24  CD2       38.7480   34.0110   -2.4700 C.3    40  LEU40       0.0001
     25  N         39.8880   31.0770   -9.2620 N.3    42  ASP42      -0.1225
     26  CA        39.9580   29.8650  -10.0970 C.3    42  ASP42       0.1805
     27  C         39.0520   28.7530   -9.5830 C.2    42  ASP42       0.2597
     28  O         38.3420   28.1010  -10.3500 O.2    42  ASP42      -0.2718
     29  CB        41.4230   29.3650  -10.1520 C.3    42  ASP42       0.1424
     30  CG        41.6370   28.2230  -11.1660 C.2    42  ASP42       0.3668
     31  OD1       41.7970   28.5170  -12.3590 O.co2  42  ASP42      -0.2456
     32  OD2       41.6570   27.0390  -10.7670 O.co2  42  ASP42      -0.2456
     33  N         39.0790   28.5130   -8.2800 N.am   43  TRP43      -0.1976
     34  CA        38.1920   27.5240   -7.7110 C.3    43  TRP43       0.1640
     35  C         36.7360   27.9330   -7.9630 C.2    43  TRP43       0.2290
     36  O         35.9210   27.1270   -8.3800 O.2    43  TRP43      -0.2864
     37  CB        38.4760   27.3590   -6.2150 C.3    43  TRP43       0.0576
     38  CG        37.4320   26.5660   -5.4590 C.ar   43  TRP43       0.0006
     39  CD1       37.1330   25.2600   -5.6160 C.ar   43  TRP43       0.0946
     40  CD2       36.5710   27.0580   -4.4310 C.ar   43  TRP43       0.0152
     41  NE1       36.1370   24.8980   -4.7580 N.ar   43  TRP43      -0.2442
     42  CE2       35.7770   25.9850   -4.0100 C.ar   43  TRP43       0.0810
     43  CE3       36.3960   28.3060   -3.8300 C.ar   43  TRP43       0.0012
     44  CZ2       34.7960   26.1190   -3.0260 C.ar   43  TRP43       0.0191
     45  CZ3       35.4400   28.4370   -2.8390 C.ar   43  TRP43       0.0001
     46  CH2       34.6500   27.3470   -2.4460 C.ar   43  TRP43       0.0015
     47  N         35.4210   27.0870  -11.3260 N.3    46  GLU46      -0.1245
     48  CA        35.0900   25.6640  -11.3970 C.3    46  GLU46       0.1567
     49  C         33.7470   25.3840  -10.7040 C.2    46  GLU46       0.2260
     50  O         32.9230   24.5830  -11.1570 O.2    46  GLU46      -0.2867
     51  CB        36.2330   24.8400  -10.7590 C.3    46  GLU46       0.0388
     52  CG        36.2400   23.4000  -11.1940 C.3    46  GLU46       0.1160
     53  CD        37.4590   22.5900  -10.7150 C.2    46  GLU46       0.3649
     54  OE1       37.2920   21.3590  -10.5570 O.co2  46  GLU46      -0.2457
     55  OE2       38.5590   23.1670  -10.4950 O.co2  46  GLU46      -0.2457
     56  N         44.2800   33.2780    6.2770 N.3    76  ARG76      -0.1231
     57  CA        44.2520   32.3410    5.1410 C.3    76  ARG76       0.1694
     58  C         43.2590   31.1850    5.3260 C.2    76  ARG76       0.2592
     59  O         42.7160   30.6560    4.3360 O.2    76  ARG76      -0.2718
     60  CB        45.6490   31.7720    4.8810 C.3    76  ARG76       0.0321
     61  CG        46.1560   30.8610    5.9770 C.3    76  ARG76       0.0489
     62  CD        47.5370   31.2370    6.4170 C.3    76  ARG76       0.2205
     63  NE        48.5340   30.7900    5.4690 N.pl3  76  ARG76      -0.0865
     64  CZ        49.7430   31.3370    5.3250 C.cat  76  ARG76       0.5346
     65  NH1       50.1290   32.3720    6.0610 N.pl3  76  ARG76       0.1354
     66  NH2       50.5640   30.8430    4.4220 N.pl3  76  ARG76       0.1354
     67  N         42.9790   30.8240    6.5790 N.am   77  GLY77      -0.1957
     68  CA        42.0540   29.7220    6.8630 C.3    77  GLY77       0.1869
     69  C         40.5820   30.1070    6.7140 C.2    77  GLY77       0.2309
     70  O         39.6950   29.2330    6.7260 O.2    77  GLY77      -0.2863
     71  N         39.7170   32.6930    4.2340 N.3    79  LEU79      -0.1231
     72  CA        39.5600   33.2860    2.9090 C.3    79  LEU79       0.1693
     73  C         38.5500   32.5010    2.0720 C.2    79  LEU79       0.2591
     74  O         37.7490   33.0780    1.3610 O.2    79  LEU79      -0.2718
     75  CB        40.9150   33.4020    2.1980 C.3    79  LEU79       0.0284
     76  CG        41.0190   34.0410    0.8140 C.3    79  LEU79       0.0019
     77  CD1       40.4600   35.4860    0.7970 C.3    79  LEU79       0.0001
     78  CD2       42.4820   34.0070    0.2980 C.3    79  LEU79       0.0001
     79  N         38.5570   31.1850    2.2040 N.am   80  GLN80      -0.1979
     80  CA        37.6310   30.3660    1.4730 C.3    80  GLN80       0.1601
     81  C         36.1950   30.6160    1.9870 C.2    80  GLN80       0.2287
     82  O         35.2230   30.5390    1.2200 O.2    80  GLN80      -0.2864
     83  CB        38.0200   28.9040    1.5760 C.3    80  GLN80       0.0394
     84  CG        37.0360   27.9520    0.8680 C.3    80  GLN80       0.0908
     85  CD        37.5720   26.5180    0.6460 C.2    80  GLN80       0.2608
     86  OE1       38.2790   25.9500    1.5050 O.2    80  GLN80      -0.2717
     87  NE2       37.1720   25.9080   -0.4850 N.am   80  GLN80      -0.0878
     88  N         29.1050   21.8870    1.2010 N.3   106  TYR106     -0.1227
     89  CA        29.6850   20.7390    0.5040 C.3   106  TYR106      0.1736
     90  C         30.8650   21.1080   -0.3960 C.2   106  TYR106      0.2595
     91  O         31.8240   20.3330   -0.5070 O.2   106  TYR106     -0.2718
     92  CB        28.5770   20.0330   -0.3110 C.3   106  TYR106      0.0548
     93  CG        29.0440   18.8800   -1.1970 C.ar  106  TYR106     -0.0200
     94  CD1       29.1320   17.5670   -0.6970 C.ar  106  TYR106     -0.0009
     95  CD2       29.3760   19.0920   -2.5420 C.ar  106  TYR106     -0.0009
     96  CE1       29.5520   16.5010   -1.5110 C.ar  106  TYR106      0.0417
     97  CE2       29.8050   18.0280   -3.3670 C.ar  106  TYR106      0.0417
     98  CZ        29.8920   16.7350   -2.8440 C.ar  106  TYR106      0.1957
     99  OH        30.3090   15.6720   -3.6660 O.3   106  TYR106     -0.2866
    100  N         30.8040   22.2660   -1.0710 N.am  107  ILE107     -0.1966
    101  CA        31.8220   22.5800   -2.0850 C.3   107  ILE107      0.1727
    102  C         33.1570   22.8400   -1.4180 C.2   107  ILE107      0.2617
    103  O         34.1930   22.8130   -2.0890 O.2   107  ILE107     -0.2715
    104  CB        31.4780   23.8150   -3.0080 C.3   107  ILE107      0.0290
    105  CG1       31.2690   25.0890   -2.1820 C.3   107  ILE107      0.0022
    106  CG2       30.2710   23.5610   -3.8740 C.3   107  ILE107      0.0023
    107  CD1       31.2130   26.3280   -3.0110 C.3   107  ILE107      0.0001
    108  N         33.1400   23.1240   -0.1160 N.am  108  THR108     -0.1937
    109  CA        34.3890   23.3680    0.6230 C.3   108  THR108      0.2028
    110  C         34.9100   22.0900    1.2850 C.2   108  THR108      0.2642
    111  O         35.8420   22.1270    2.0810 O.2   108  THR108     -0.2714
    112  CB        34.2000   24.4750    1.7110 C.3   108  THR108      0.1808
    113  OG1       33.3990   23.9710    2.8110 O.3   108  THR108     -0.2208
    114  CG2       33.5640   25.7850    1.0640 C.3   108  THR108      0.0379
    115  N         34.2880   20.9630    0.9420 N.am  109  ASP109     -0.1971
    116  CA        34.5290   19.6750    1.6060 C.3   109  ASP109      0.1709
    117  C         34.1880   19.7110    3.0910 C.2   109  ASP109      0.2293
    118  O         34.8450   19.0450    3.8980 O.2   109  ASP109     -0.2864
    119  CB        35.9930   19.2550    1.4240 C.3   109  ASP109      0.1436
    120  CG        36.1810   17.7490    1.4330 C.2   109  ASP109      0.3671
    121  OD1       35.2570   17.0070    1.8710 O.co2 109  ASP109     -0.2456
    122  OD2       37.2720   17.3190    0.9910 O.co2 109  ASP109     -0.2456
    123  N         34.5970   22.0110    5.2920 N.3   111  THR111     -0.1218
    124  CA        35.5170   22.7050    6.1820 C.3   111  THR111      0.1862
    125  C         34.8220   23.8000    7.0280 C.2   111  THR111      0.2287
    126  O         35.3570   24.2300    8.0240 O.2   111  THR111     -0.2866
    127  CB        36.7640   23.2670    5.4130 C.3   111  THR111      0.1770
    128  OG1       37.1850   24.5420    5.9660 O.3   111  THR111     -0.2211
    129  CG2       36.4840   23.4370    3.9620 C.3   111  THR111      0.0375
@<TRIPOS>BOND
     1    31    30   ar
     2    48    47    1
     3    48    51    1
     4    48    49    1
     5    52    51    1
     6    52    53    1
     7    30    32   ar
     8    30    29    1
     9    50    49    2
    10    53    54   ar
    11    53    55   ar
    12    28    27    2
    13    29    26    1
    14    26    27    1
    15    26    25    1
    16    27    33   am
    17    36    35    2
    18    33    34    1
    19    35    34    1
    20    34    37    1
    21     9    10    1
    22    12    11    2
    23    10    11    1
    24    10    13    1
    25    37    38    1
    26    20    19    2
    27    11    17   am
    28    19    18    1
    29    14    13    1
    30    14    16    1
    31    39    38   ar
    32    39    41   ar
    33    38    40   ar
    34    17    18    1
    35    13    15    1
    36    18    21    1
    37    41    42   ar
    38    40    42   ar
    39    40    43   ar
    40    42    44   ar
    41   106   104    1
    42    43    45   ar
    43    21    22    1
    44    99    98    1
    45     4     3    2
    46     1     2    1
    47     3     2    1
    48    97    98   ar
    49    97    95   ar
    50    22    24    1
    51    22    23    1
    52    44    46   ar
    53   107   105    1
    54   104   105    1
    55   104   101    1
    56    98    96   ar
    57    45    46   ar
    58     2     5    1
    59    95    93   ar
    60   103   102    2
    61   101   102    1
    62   101   100    1
    63    96    94   ar
    64   102   108   am
    65     5     6    1
    66    93    94   ar
    67    93    92    1
    68   100    90   am
    69    91    90    2
    70    87    85   am
    71     6     7    1
    72    90    89    1
    73    92    89    1
    74   108   109    1
    75    78    76    1
    76    89    88    1
    77   109   110    1
    78   109   112    1
    79    85    84    1
    80    85    86    2
    81    77    76    1
    82    76    75    1
    83    84    83    1
    84   115   110   am
    85   115   116    1
    86   122   120   ar
    87   114   112    1
    88    82    81    2
    89     7     8    1
    90   110   111    2
    91    74    73    2
    92   119   120    1
    93   119   116    1
    94   120   121   ar
    95    80    83    1
    96    80    81    1
    97    80    79    1
    98   116   117    1
    99   112   113    1
   100    73    79   am
   101    73    72    1
   102    75    72    1
   103    72    71    1
   104   117   118    2
   105   129   127    1
   106    59    58    2
   107    66    64    1
   108    60    57    1
   109    60    61    1
   110    57    58    1
   111    57    56    1
   112   123   124    1
   113    64    63    2
   114    64    65    1
   115    58    67   am
   116   127   128    1
   117   127   124    1
   118    63    62    1
   119    61    62    1
   120   124   125    1
   121    67    68    1
   122    69    70    2
   123    69    68    1
   124   125   126    2
