@<TRIPOS>MOLECULE
tmp/2wewA00.pdb
 197 189 0 0 0
SMALL
GASTEIGER

@<TRIPOS>ATOM
      1  N          5.2250  -13.0430   23.9900 N.3    22  PHE22      -0.1228
      2  CA         5.3280  -11.6600   23.5800 C.3    22  PHE22       0.1721
      3  C          4.1960  -11.3640   22.5500 C.2    22  PHE22       0.2437
      4  O          4.0070  -12.1310   21.6010 O.2    22  PHE22      -0.2733
      5  CB         6.7220  -11.4090   22.9760 C.3    22  PHE22       0.0547
      6  CG         6.8620  -10.0810   22.3090 C.ar   22  PHE22      -0.0202
      7  CD1        7.4790   -9.0350   22.9630 C.ar   22  PHE22      -0.0042
      8  CD2        6.3650   -9.8770   21.0220 C.ar   22  PHE22      -0.0042
      9  CE1        7.5930   -7.7940   22.3540 C.ar   22  PHE22      -0.0003
     10  CE2        6.4750   -8.6470   20.4060 C.ar   22  PHE22      -0.0003
     11  CZ         7.0850   -7.5940   21.0750 C.ar   22  PHE22      -0.0000
     12  N          3.4820  -10.2300   22.6940 N.am   23  PRO23      -0.2729
     13  CA         3.6040   -9.1350   23.6560 C.3    23  PRO23       0.1401
     14  C          2.7680   -9.1780   24.9510 C.2    23  PRO23       0.2269
     15  O          2.8620   -8.2290   25.7210 O.2    23  PRO23      -0.2865
     16  CB         3.1100   -7.9380   22.8380 C.3    23  PRO23       0.0296
     17  CG         2.0100   -8.5160   21.9520 C.3    23  PRO23       0.0237
     18  CD         2.4190   -9.9590   21.6980 C.3    23  PRO23       0.0939
     19  N          4.0110   -8.0410   28.3290 N.3    26  HIS26      -0.1241
     20  CA         4.4280   -6.6330   28.5030 C.3    26  HIS26       0.1621
     21  C          3.3170   -5.6000   28.4810 C.2    26  HIS26       0.2264
     22  O          3.5830   -4.3860   28.5180 O.2    26  HIS26      -0.2867
     23  CB         5.5030   -6.2640   27.4630 C.3    26  HIS26       0.0745
     24  CG         6.7150   -7.1290   27.5690 C.ar   26  HIS26       0.0817
     25  ND1        7.5210   -7.1360   28.6810 N.ar   26  HIS26      -0.2268
     26  CD2        7.2000   -8.0910   26.7470 C.ar   26  HIS26       0.1154
     27  CE1        8.4690   -8.0480   28.5340 C.ar   26  HIS26       0.1986
     28  NE2        8.2960   -8.6380   27.3670 N.ar   26  HIS26      -0.2212
     29  N          3.6290    1.1820   32.7990 N.3    30  TRP30      -0.1241
     30  CA         5.1000    1.3230   32.8720 C.3    30  TRP30       0.1605
     31  C          5.3880    2.7670   33.2440 C.2    30  TRP30       0.2264
     32  O          4.5600    3.6280   32.9410 O.2    30  TRP30      -0.2867
     33  CB         5.7460    1.0580   31.4940 C.3    30  TRP30       0.0550
     34  CG         5.6730   -0.3950   31.0540 C.ar   30  TRP30       0.0003
     35  CD1        4.6920   -0.9670   30.2600 C.ar   30  TRP30       0.0946
     36  CD2        6.6030   -1.4500   31.3630 C.ar   30  TRP30       0.0152
     37  NE1        4.9760   -2.2940   30.0430 N.ar   30  TRP30      -0.2442
     38  CE2        6.1450   -2.6180   30.6940 C.ar   30  TRP30       0.0810
     39  CE3        7.8080   -1.5030   32.0660 C.ar   30  TRP30       0.0012
     40  CZ2        6.8220   -3.8430   30.7630 C.ar   30  TRP30       0.0191
     41  CZ3        8.4940   -2.7340   32.1460 C.ar   30  TRP30       0.0001
     42  CH2        8.0120   -3.8840   31.4750 C.ar   30  TRP30       0.0015
     43  N         13.2500   15.5960   27.1630 N.3    46  PHE46      -0.1241
     44  CA        12.8670   15.1490   28.5000 C.3    46  PHE46       0.1605
     45  C         13.2390   16.1330   29.6110 C.2    46  PHE46       0.2264
     46  O         12.9330   15.9010   30.7720 O.2    46  PHE46      -0.2867
     47  CB        13.5190   13.7820   28.7890 C.3    46  PHE46       0.0534
     48  CG        13.0580   12.6790   27.8750 C.ar   46  PHE46      -0.0203
     49  CD1       11.7080   12.3490   27.7900 C.ar   46  PHE46      -0.0042
     50  CD2       13.9720   11.9900   27.0800 C.ar   46  PHE46      -0.0042
     51  CE1       11.2670   11.3290   26.9270 C.ar   46  PHE46      -0.0003
     52  CE2       13.5490   10.9540   26.2300 C.ar   46  PHE46      -0.0003
     53  CZ        12.1970   10.6280   26.1480 C.ar   46  PHE46      -0.0000
     54  N          2.8900    5.2190   31.4190 N.3    54  PHE54      -0.1241
     55  CA         2.4260    4.7070   30.1080 C.3    54  PHE54       0.1605
     56  C          1.4550    3.5430   30.3600 C.2    54  PHE54       0.2264
     57  O          1.5100    2.8950   31.3990 O.2    54  PHE54      -0.2867
     58  CB         3.5980    4.1580   29.2410 C.3    54  PHE54       0.0534
     59  CG         4.6510    5.1840   28.9080 C.ar   54  PHE54      -0.0203
     60  CD1        4.6880    5.7750   27.6380 C.ar   54  PHE54      -0.0042
     61  CD2        5.6240    5.5470   29.8630 C.ar   54  PHE54      -0.0042
     62  CE1        5.6560    6.7260   27.3300 C.ar   54  PHE54      -0.0003
     63  CE2        6.5950    6.5100   29.5610 C.ar   54  PHE54      -0.0003
     64  CZ         6.6150    7.0930   28.2990 C.ar   54  PHE54      -0.0000
     65  N          0.3270    0.2330   28.0210 N.3    56  MET56      -0.1245
     66  CA         0.3700   -0.4390   26.7250 C.3    56  MET56       0.1570
     67  C         -0.8470   -1.3860   26.6180 C.2    56  MET56       0.2261
     68  O         -1.0540   -2.2020   27.4980 O.2    56  MET56      -0.2867
     69  CB         1.7000   -1.2150   26.6370 C.3    56  MET56       0.0387
     70  CG         1.9170   -1.9460   25.3080 C.3    56  MET56       0.0595
     71  SD         2.2250   -0.7050   24.0190 S.3    56  MET56      -0.1393
     72  CE         4.0110   -0.4720   24.1530 C.3    56  MET56       0.0692
     73  N         -0.1600   -2.4050   18.7710 N.3    65  LEU65      -0.1245
     74  CA        -0.3430   -2.1250   20.2040 C.3    65  LEU65       0.1561
     75  C         -0.7400   -0.6730   20.3550 C.2    65  LEU65       0.2260
     76  O         -0.2850    0.1580   19.5760 O.2    65  LEU65      -0.2867
     77  CB         0.9580   -2.3470   20.9770 C.3    65  LEU65       0.0270
     78  CG         1.6430   -3.7210   20.8770 C.3    65  LEU65       0.0019
     79  CD1        2.9660   -3.7300   21.6420 C.3    65  LEU65       0.0001
     80  CD2        0.7100   -4.8400   21.3750 C.3    65  LEU65       0.0001
     81  N         -0.5410    2.5750   22.7110 N.3    67  LEU67      -0.1245
     82  CA         0.2320    3.1500   23.7830 C.3    67  LEU67       0.1561
     83  C         -0.3840    4.4760   24.1700 C.2    67  LEU67       0.2260
     84  O         -0.6270    5.3370   23.3080 O.2    67  LEU67      -0.2867
     85  CB         1.6750    3.3530   23.3700 C.3    67  LEU67       0.0270
     86  CG         2.6330    3.7620   24.5040 C.3    67  LEU67       0.0019
     87  CD1        2.6140    2.7620   25.6160 C.3    67  LEU67       0.0001
     88  CD2        4.0480    3.8760   23.9750 C.3    67  LEU67       0.0001
     89  N         -0.4300   11.7360   25.7200 N.3    81  ARG81      -0.1245
     90  CA         0.0490   11.3150   24.3970 C.3    81  ARG81       0.1563
     91  C         -0.5450    9.9580   24.0650 C.2    81  ARG81       0.2260
     92  O         -0.9150    9.1960   24.9510 O.2    81  ARG81      -0.2867
     93  CB         1.5740   11.1560   24.3740 C.3    81  ARG81       0.0307
     94  CG         2.3290   12.3440   24.9210 C.3    81  ARG81       0.0489
     95  CD         2.5930   13.3500   23.8590 C.3    81  ARG81       0.2205
     96  NE         3.6810   12.9100   22.9870 N.pl3  81  ARG81      -0.0865
     97  CZ         4.8860   13.4800   22.9440 C.cat  81  ARG81       0.5346
     98  NH1        5.1620   14.5330   23.7240 N.pl3  81  ARG81       0.1354
     99  NH2        5.8090   13.0060   22.1040 N.pl3  81  ARG81       0.1354
    100  N         -0.0950    6.7500   20.9350 N.3    83  TRP83      -0.1241
    101  CA         0.2930    6.2670   19.6220 C.3    83  TRP83       0.1605
    102  C          0.1060    4.7850   19.3660 C.2    83  TRP83       0.2264
    103  O         -0.3080    4.0370   20.2390 O.2    83  TRP83      -0.2867
    104  CB         1.6850    6.7760   19.1860 C.3    83  TRP83       0.0550
    105  CG         2.8500    6.3750   20.0160 C.ar   83  TRP83       0.0003
    106  CD1        3.5700    5.2300   19.9110 C.ar   83  TRP83       0.0946
    107  CD2        3.4900    7.1670   21.0310 C.ar   83  TRP83       0.0152
    108  NE1        4.6090    5.2340   20.8290 N.ar   83  TRP83      -0.2442
    109  CE2        4.5720    6.4140   21.5290 C.ar   83  TRP83       0.0810
    110  CE3        3.2360    8.4280   21.5810 C.ar   83  TRP83       0.0012
    111  CZ2        5.4030    6.8840   22.5560 C.ar   83  TRP83       0.0191
    112  CZ3        4.0630    8.8970   22.6060 C.ar   83  TRP83       0.0001
    113  CH2        5.1290    8.1280   23.0800 C.ar   83  TRP83       0.0015
    114  N          1.8900    1.2760   17.9510 N.3    85  TYR85      -0.1241
    115  CA         3.0120    0.4750   17.4830 C.3    85  TYR85       0.1605
    116  C          2.5650   -0.6520   16.5880 C.2    85  TYR85       0.2264
    117  O          1.4940   -1.2260   16.7660 O.2    85  TYR85      -0.2867
    118  CB         3.8070   -0.1240   18.6330 C.3    85  TYR85       0.0534
    119  CG         4.7340    0.8340   19.3240 C.ar   85  TYR85      -0.0201
    120  CD1        5.7880    1.4550   18.6450 C.ar   85  TYR85      -0.0009
    121  CD2        4.5780    1.0950   20.6590 C.ar   85  TYR85      -0.0009
    122  CE1        6.6470    2.3230   19.3120 C.ar   85  TYR85       0.0417
    123  CE2        5.4250    1.9400   21.3300 C.ar   85  TYR85       0.0417
    124  CZ         6.4520    2.5500   20.6630 C.ar   85  TYR85       0.1957
    125  OH         7.2800    3.3850   21.3880 O.3    85  TYR85      -0.2866
    126  N          9.7450   -2.6950   17.6020 N.3    94  LEU94      -0.1245
    127  CA         8.5540   -1.8870   17.4370 C.3    94  LEU94       0.1561
    128  C          8.7450   -0.8930   16.3220 C.2    94  LEU94       0.2260
    129  O          9.8210   -0.3040   16.2000 O.2    94  LEU94      -0.2867
    130  CB         8.2130   -1.1440   18.7300 C.3    94  LEU94       0.0270
    131  CG         8.1520   -1.9590   20.0320 C.3    94  LEU94       0.0019
    132  CD1        7.6950   -1.0190   21.1410 C.3    94  LEU94       0.0001
    133  CD2        7.1890   -3.1500   19.8770 C.3    94  LEU94       0.0001
    134  N         13.9480   -3.9200   21.7570 N.3   106  LEU106     -0.1245
    135  CA        13.6430   -4.1940   23.1530 C.3   106  LEU106      0.1561
    136  C         14.7120   -5.0740   23.7510 C.2   106  LEU106      0.2260
    137  O         15.1130   -6.0760   23.1510 O.2   106  LEU106     -0.2867
    138  CB        12.2580   -4.8210   23.2870 C.3   106  LEU106      0.0270
    139  CG        11.0890   -4.0470   22.6500 C.3   106  LEU106      0.0019
    140  CD1        9.7340   -4.8120   22.7660 C.3   106  LEU106      0.0001
    141  CD2       10.8990   -2.6390   23.2200 C.3   106  LEU106      0.0001
    142  N         12.6130   -2.8280   31.5800 N.3   115  ILE115     -0.1245
    143  CA        12.8280   -3.1140   30.1510 C.3   115  ILE115      0.1561
    144  C         13.6030   -1.9270   29.6020 C.2   115  ILE115      0.2260
    145  O         13.3750   -0.7810   30.0320 O.2   115  ILE115     -0.2867
    146  CB        11.4600   -3.3000   29.4010 C.3   115  ILE115      0.0252
    147  CG1       11.6620   -3.8750   27.9790 C.3   115  ILE115      0.0019
    148  CG2       10.6260   -1.9420   29.3660 C.3   115  ILE115      0.0019
    149  CD1       10.3350   -4.4690   27.3430 C.3   115  ILE115      0.0001
    150  N         14.5650    0.1880   26.0550 N.3   117  LEU117     -0.1245
    151  CA        14.4110    0.3980   24.5860 C.3   117  LEU117      0.1561
    152  C         15.6420    1.0490   23.9400 C.2   117  LEU117      0.2260
    153  O         16.2880    1.9040   24.5420 O.2   117  LEU117     -0.2867
    154  CB        13.2110    1.3220   24.2830 C.3   117  LEU117      0.0270
    155  CG        11.7800    0.8360   24.4030 C.3   117  LEU117      0.0019
    156  CD1       11.5200   -0.0260   25.6260 C.3   117  LEU117      0.0001
    157  CD2       10.8040    2.0390   24.2880 C.3   117  LEU117      0.0001
    158  N         16.1340    3.1830   20.7230 N.3   119  GLU119     -0.1245
    159  CA        15.4280    3.9190   19.6960 C.3   119  GLU119      0.1567
    160  C         16.4440    4.4180   18.6880 C.2   119  GLU119      0.2260
    161  O         17.4150    5.0650   19.0540 O.2   119  GLU119     -0.2867
    162  CB        14.6930    5.1030   20.3180 C.3   119  GLU119      0.0388
    163  CG        13.3560    4.7670   20.8930 C.3   119  GLU119      0.1160
    164  CD        12.5700    5.9840   21.2830 C.2   119  GLU119      0.3649
    165  OE1       13.0720    7.1180   21.1150 O.co2 119  GLU119     -0.2457
    166  OE2       11.4510    5.7850   21.7930 O.co2 119  GLU119     -0.2457
    167  N         18.9740    6.7840   21.1100 N.3   126  ARG126     -0.1245
    168  CA        18.9810    6.8950   22.5580 C.3   126  ARG126      0.1563
    169  C         18.4730    5.6230   23.2300 C.2   126  ARG126      0.2260
    170  O         17.7180    4.8690   22.6490 O.2   126  ARG126     -0.2867
    171  CB        18.1230    8.0840   23.0060 C.3   126  ARG126      0.0307
    172  CG        16.6770    7.9260   22.7720 C.3   126  ARG126      0.0489
    173  CD        16.0590    9.2860   22.7400 C.3   126  ARG126      0.2205
    174  NE        14.6460    9.1680   22.4680 N.pl3 126  ARG126     -0.0865
    175  CZ        13.8300   10.1860   22.2270 C.cat 126  ARG126      0.5346
    176  NH1       14.2760   11.4470   22.2010 N.pl3 126  ARG126      0.1354
    177  NH2       12.5560    9.9300   21.9890 N.pl3 126  ARG126      0.1354
    178  N         16.3970    4.0000   26.4990 N.3   128  LEU128     -0.1245
    179  CA        15.3330    4.4270   27.3720 C.3   128  LEU128      0.1561
    180  C         14.9710    3.3170   28.3430 C.2   128  LEU128      0.2260
    181  O         14.6720    2.2070   27.9240 O.2   128  LEU128     -0.2867
    182  CB        14.0870    4.9020   26.5570 C.3   128  LEU128      0.0270
    183  CG        14.2600    6.0600   25.5710 C.3   128  LEU128      0.0019
    184  CD1       12.9900    6.3860   24.8230 C.3   128  LEU128      0.0001
    185  CD2       14.7510    7.3390   26.2600 C.3   128  LEU128      0.0001
    186  N         12.5940    1.8040   31.3930 N.3   130  TYR130     -0.1241
    187  CA        11.2420    1.7970   32.0070 C.3   130  TYR130      0.1605
    188  C         11.1900    0.7440   33.0990 C.2   130  TYR130      0.2264
    189  O         11.9590   -0.2320   33.0930 O.2   130  TYR130     -0.2867
    190  CB        10.1180    1.5340   30.9540 C.3   130  TYR130      0.0534
    191  CG        10.1930    2.5760   29.8690 C.ar  130  TYR130     -0.0201
    192  CD1        9.4470    3.7580   29.9500 C.ar  130  TYR130     -0.0009
    193  CD2       11.1050    2.4470   28.8390 C.ar  130  TYR130     -0.0009
    194  CE1        9.5760    4.7430   28.9920 C.ar  130  TYR130      0.0417
    195  CE2       11.2430    3.4380   27.8830 C.ar  130  TYR130      0.0417
    196  CZ        10.4820    4.5770   27.9710 C.ar  130  TYR130      0.1957
    197  OH        10.6380    5.5440   27.0100 O.3   130  TYR130     -0.2866
@<TRIPOS>BOND
     1   129   128    2
     2   128   127    1
     3   116   117    2
     4   116   115    1
     5   127   126    1
     6   127   130    1
     7   115   114    1
     8   115   118    1
     9   118   119    1
    10   120   122   ar
    11   120   119   ar
    12   160   161    2
    13   160   159    1
    14   130   131    1
    15    73    74    1
    16   104   101    1
    17   104   105    1
    18   122   124   ar
    19   119   121   ar
    20   102   101    1
    21   102   103    2
    22    76    75    2
    23   101   100    1
    24   159   162    1
    25   159   158    1
    26   133   131    1
    27   106   105   ar
    28   106   108   ar
    29   105   107   ar
    30   131   132    1
    31    74    75    1
    32    74    77    1
    33   162   163    1
    34    10     8   ar
    35    10    11   ar
    36   121   123   ar
    37   124   123   ar
    38   124   125    1
    39   108   109   ar
    40    78    77    1
    41    78    80    1
    42    78    79    1
    43   163   164    1
    44     8     6   ar
    45   107   109   ar
    46   107   110   ar
    47    11     9   ar
    48   167   168    1
    49   165   164   ar
    50   164   166   ar
    51   109   111   ar
    52   110   112   ar
    53     4     3    2
    54    18    17    1
    55    18    12    1
    56   134   135    1
    57    17    16    1
    58   177   175    1
    59    99    97    1
    60   176   175    1
    61   175   174    2
    62     6     7   ar
    63     6     5    1
    64     9     7   ar
    65   174   173    1
    66     3    12   am
    67     3     2    1
    68   111   113   ar
    69   168   171    1
    70   168   169    1
    71   112   113   ar
    72   170   169    2
    73   139   140    1
    74   139   141    1
    75   139   138    1
    76    12    13    1
    77    81    82    1
    78   173   172    1
    79   172   171    1
    80    16    13    1
    81    97    96    2
    82    97    98    1
    83     5     2    1
    84    96    95    1
    85   137   136    2
    86   135   138    1
    87   135   136    1
    88    84    83    2
    89    85    82    1
    90    85    86    1
    91     2     1    1
    92    13    14    1
    93    82    83    1
    94    95    94    1
    95   152   153    2
    96   152   151    1
    97    88    86    1
    98    71    72    1
    99    71    70    1
   100    91    90    1
   101    91    92    2
   102   154   155    1
   103   154   151    1
   104   157   155    1
   105    93    90    1
   106    93    94    1
   107    90    89    1
   108   155   156    1
   109    86    87    1
   110   151   150    1
   111   184   183    1
   112    14    15    2
   113    70    69    1
   114   183   185    1
   115   183   182    1
   116    53    52   ar
   117    53    51   ar
   118    52    50   ar
   119   178   179    1
   120   182   179    1
   121    67    66    1
   122    67    68    2
   123    69    66    1
   124    66    65    1
   125    26    28   ar
   126    26    24   ar
   127    51    49   ar
   128   197   196    1
   129    50    48   ar
   130    43    44    1
   131    62    60   ar
   132    62    64   ar
   133   149   147    1
   134    28    27   ar
   135   179   180    1
   136    23    24    1
   137    23    20    1
   138    24    25   ar
   139    60    59   ar
   140    49    48   ar
   141    48    47    1
   142   195   196   ar
   143   195   193   ar
   144   181   180    2
   145   196   194   ar
   146   147   146    1
   147    64    63   ar
   148    19    20    1
   149    21    20    1
   150    21    22    2
   151    44    47    1
   152    44    45    1
   153    27    25   ar
   154   193   191   ar
   155    59    58    1
   156    59    61   ar
   157   194   192   ar
   158    58    55    1
   159   148   146    1
   160   146   143    1
   161    63    61   ar
   162   144   145    2
   163   144   143    1
   164    45    46    2
   165   191   192   ar
   166   191   190    1
   167    37    35   ar
   168    37    38   ar
   169    55    56    1
   170    55    54    1
   171   143   142    1
   172    35    34   ar
   173    56    57    2
   174    38    40   ar
   175    38    36   ar
   176    40    42   ar
   177   190   187    1
   178    34    36   ar
   179    34    33    1
   180    36    39   ar
   181   186   187    1
   182    42    41   ar
   183    33    30    1
   184   187   188    1
   185    39    41   ar
   186    29    30    1
   187    30    31    1
   188    32    31    2
   189   189   188    2
