@<TRIPOS>MOLECULE
tmp/2wexA00.pdb
 246 235 0 0 0
SMALL
GASTEIGER

@<TRIPOS>ATOM
      1  N          5.2600  -12.9990   24.2450 N.3    18  PHE18      -0.1228
      2  CA         5.3810  -11.6370   23.7690 C.3    18  PHE18       0.1721
      3  C          4.2390  -11.3620   22.7680 C.2    18  PHE18       0.2437
      4  O          4.0530  -12.1270   21.8140 O.2    18  PHE18      -0.2733
      5  CB         6.7480  -11.4570   23.0790 C.3    18  PHE18       0.0547
      6  CG         6.9510  -10.0860   22.4760 C.ar   18  PHE18      -0.0202
      7  CD1        7.4750   -9.0490   23.2470 C.ar   18  PHE18      -0.0042
      8  CD2        6.6070   -9.8360   21.1340 C.ar   18  PHE18      -0.0042
      9  CE1        7.6640   -7.7900   22.7010 C.ar   18  PHE18      -0.0003
     10  CE2        6.7860   -8.5780   20.5750 C.ar   18  PHE18      -0.0003
     11  CZ         7.2920   -7.5380   21.3740 C.ar   18  PHE18      -0.0000
     12  N          3.5270  -10.2400   22.9330 N.am   19  PRO19      -0.2729
     13  CA         3.7660   -9.2420   23.9660 C.3    19  PRO19       0.1401
     14  C          2.8780   -9.2670   25.2070 C.2    19  PRO19       0.2269
     15  O          3.0100   -8.3530   26.0110 O.2    19  PRO19      -0.2865
     16  CB         3.3940   -7.9610   23.2410 C.3    19  PRO19       0.0296
     17  CG         2.1170   -8.3810   22.5040 C.3    19  PRO19       0.0237
     18  CD         2.4510   -9.8070   22.0110 C.3    19  PRO19       0.0939
     19  N          4.0740   -8.1220   28.4110 N.3    22  HIS22      -0.1226
     20  CA         4.5040   -6.7320   28.6950 C.3    22  HIS22       0.1752
     21  C          3.4540   -5.6420   28.8860 C.2    22  HIS22       0.2595
     22  O          3.7930   -4.4670   29.1580 O.2    22  HIS22      -0.2718
     23  CB         5.6070   -6.3130   27.7220 C.3    22  HIS22       0.0759
     24  CG         6.7760   -7.2460   27.7490 C.ar   22  HIS22       0.0818
     25  ND1        7.7710   -7.1630   28.6930 N.ar   22  HIS22      -0.2268
     26  CD2        7.0830   -8.3070   26.9700 C.ar   22  HIS22       0.1154
     27  CE1        8.6480   -8.1290   28.4930 C.ar   22  HIS22       0.1986
     28  NE2        8.2440   -8.8480   27.4660 N.ar   22  HIS22      -0.2212
     29  N          2.1840   -6.0400   28.7870 N.am   23  LEU23      -0.1980
     30  CA         1.0460   -5.1170   28.7750 C.3    23  LEU23       0.1596
     31  C          0.9100   -4.6710   30.1740 C.2    23  LEU23       0.2287
     32  O          1.5290   -5.2690   31.0270 O.2    23  LEU23      -0.2864
     33  CB        -0.2080   -5.8920   28.3570 C.3    23  LEU23       0.0297
     34  CG        -0.1660   -6.4730   26.9460 C.3    23  LEU23       0.0022
     35  CD1       -1.4600   -7.2730   26.7040 C.3    23  LEU23       0.0001
     36  CD2       -0.0870   -5.3510   26.0300 C.3    23  LEU23       0.0001
     37  N          3.7540    1.0570   33.2170 N.3    26  TRP26      -0.1241
     38  CA         5.2520    1.1930   33.2110 C.3    26  TRP26       0.1605
     39  C          5.5880    2.6690   33.5710 C.2    26  TRP26       0.2264
     40  O          4.8050    3.5770   33.2730 O.2    26  TRP26      -0.2867
     41  CB         5.8130    0.9730   31.7900 C.3    26  TRP26       0.0550
     42  CG         5.7940   -0.5120   31.2390 C.ar   26  TRP26       0.0003
     43  CD1        4.8940   -1.0590   30.3150 C.ar   26  TRP26       0.0946
     44  CD2        6.7040   -1.5790   31.5740 C.ar   26  TRP26       0.0152
     45  NE1        5.2010   -2.3790   30.0610 N.ar   26  TRP26      -0.2442
     46  CE2        6.3140   -2.7280   30.8040 C.ar   26  TRP26       0.0810
     47  CE3        7.8370   -1.6710   32.4110 C.ar   26  TRP26       0.0012
     48  CZ2        7.0290   -3.9500   30.8530 C.ar   26  TRP26       0.0191
     49  CZ3        8.5310   -2.8980   32.4910 C.ar   26  TRP26       0.0001
     50  CH2        8.1110   -4.0370   31.7340 C.ar   26  TRP26       0.0015
     51  N          8.6770    5.6930   33.3500 N.3    28  PHE28      -0.1241
     52  CA         9.9200    6.0700   32.6720 C.3    28  PHE28       0.1605
     53  C         10.8940    6.3890   33.7940 C.2    28  PHE28       0.2264
     54  O         10.5350    7.0780   34.7260 O.2    28  PHE28      -0.2867
     55  CB         9.7280    7.2970   31.7520 C.3    28  PHE28       0.0534
     56  CG        11.0050    7.8270   31.1630 C.ar   28  PHE28      -0.0203
     57  CD1       11.8600    6.9940   30.4400 C.ar   28  PHE28      -0.0042
     58  CD2       11.3150    9.2000   31.2590 C.ar   28  PHE28      -0.0042
     59  CE1       13.0230    7.4970   29.7920 C.ar   28  PHE28      -0.0003
     60  CE2       12.4680    9.6690   30.7320 C.ar   28  PHE28      -0.0003
     61  CZ        13.3330    8.8160   29.9600 C.ar   28  PHE28      -0.0000
     62  N         14.4130   16.7130   25.2790 N.3    41  THR41      -0.1203
     63  CA        12.9680   16.6150   25.3510 C.3    41  THR41       0.1994
     64  C         12.4600   16.2030   26.7570 C.2    41  THR41       0.2617
     65  O         11.3310   16.5430   27.1240 O.2    41  THR41      -0.2717
     66  CB        12.4000   15.7270   24.1880 C.3    41  THR41       0.1784
     67  OG1       10.9660   15.6950   24.2360 O.3    41  THR41      -0.2211
     68  CG2       12.9220   14.3010   24.2680 C.3    41  THR41       0.0376
     69  N         13.3030   15.5360   27.5530 N.am   42  PHE42      -0.1975
     70  CA        12.9250   15.0740   28.9100 C.3    42  PHE42       0.1639
     71  C         13.3220   16.0130   30.0430 C.2    42  PHE42       0.2290
     72  O         13.0720   15.7060   31.1860 O.2    42  PHE42      -0.2864
     73  CB        13.5250   13.6790   29.2180 C.3    42  PHE42       0.0560
     74  CG        13.1310   12.6050   28.2340 C.ar   42  PHE42      -0.0200
     75  CD1       11.7850   12.3230   27.9900 C.ar   42  PHE42      -0.0042
     76  CD2       14.0970   11.8900   27.5580 C.ar   42  PHE42      -0.0042
     77  CE1       11.4240   11.3670   27.0670 C.ar   42  PHE42      -0.0003
     78  CE2       13.7250   10.9200   26.6320 C.ar   42  PHE42      -0.0003
     79  CZ        12.3800   10.6620   26.3990 C.ar   42  PHE42      -0.0000
     80  N          6.8460   10.1540   33.8550 N.3    48  ILE48      -0.1245
     81  CA         5.9130    9.6810   32.8460 C.3    48  ILE48       0.1561
     82  C          5.3810    8.3090   33.2000 C.2    48  ILE48       0.2260
     83  O          6.1440    7.3860   33.4610 O.2    48  ILE48      -0.2867
     84  CB         6.5440    9.6340   31.4380 C.3    48  ILE48       0.0252
     85  CG1        7.4070   10.8870   31.1750 C.3    48  ILE48       0.0019
     86  CG2        5.4360    9.5030   30.3700 C.3    48  ILE48       0.0019
     87  CD1        8.1130   10.8500   29.7920 C.3    48  ILE48       0.0001
     88  N          2.9240    5.1150   31.7400 N.3    50  PHE50      -0.1241
     89  CA         2.4870    4.5280   30.4210 C.3    50  PHE50       0.1605
     90  C          1.5750    3.3420   30.7130 C.2    50  PHE50       0.2264
     91  O          1.5800    2.7520   31.8420 O.2    50  PHE50      -0.2867
     92  CB         3.6330    3.9950   29.5370 C.3    50  PHE50       0.0534
     93  CG         4.6900    5.0040   29.1990 C.ar   50  PHE50      -0.0203
     94  CD1        4.7640    5.5530   27.9170 C.ar   50  PHE50      -0.0042
     95  CD2        5.6640    5.3650   30.1590 C.ar   50  PHE50      -0.0042
     96  CE1        5.7210    6.5070   27.6210 C.ar   50  PHE50      -0.0003
     97  CE2        6.6390    6.2630   29.8720 C.ar   50  PHE50      -0.0003
     98  CZ         6.6640    6.8740   28.5920 C.ar   50  PHE50      -0.0000
     99  N          0.4400    0.1000   28.1610 N.3    52  MET52      -0.1245
    100  CA         0.4530   -0.6390   26.8810 C.3    52  MET52       0.1570
    101  C         -0.7780   -1.5450   26.7290 C.2    52  MET52       0.2261
    102  O         -1.0300   -2.3260   27.5820 O.2    52  MET52      -0.2867
    103  CB         1.7510   -1.4780   26.7220 C.3    52  MET52       0.0387
    104  CG         1.8700   -2.1060   25.2630 C.3    52  MET52       0.0595
    105  SD         2.2160   -0.7530   24.1380 S.3    52  MET52      -0.1393
    106  CE         3.9600   -0.5390   24.5320 C.3    52  MET52       0.0692
    107  N         -0.4160   -2.5100   18.8830 N.3    61  LEU61      -0.1245
    108  CA        -0.4160   -2.1610   20.3130 C.3    61  LEU61       0.1561
    109  C         -0.7680   -0.7030   20.5630 C.2    61  LEU61       0.2260
    110  O         -0.2050    0.1770   19.9600 O.2    61  LEU61      -0.2867
    111  CB         0.9680   -2.3930   20.8930 C.3    61  LEU61       0.0270
    112  CG         1.6340   -3.7460   20.6740 C.3    61  LEU61       0.0019
    113  CD1        3.1130   -3.6010   20.9450 C.3    61  LEU61       0.0001
    114  CD2        0.9740   -4.7960   21.5610 C.3    61  LEU61       0.0001
    115  N         -0.3120    2.2970   22.9070 N.3    63  LEU63      -0.1245
    116  CA         0.3590    2.9880   24.0170 C.3    63  LEU63       0.1561
    117  C         -0.3010    4.3210   24.4710 C.2    63  LEU63       0.2260
    118  O         -0.5030    5.2100   23.6790 O.2    63  LEU63      -0.2867
    119  CB         1.8540    3.1540   23.6880 C.3    63  LEU63       0.0270
    120  CG         2.8560    3.8050   24.6590 C.3    63  LEU63       0.0019
    121  CD1        2.9480    3.0180   25.8940 C.3    63  LEU63       0.0001
    122  CD2        4.1830    3.7520   23.9880 C.3    63  LEU63       0.0001
    123  N          2.5090   12.6710   30.8810 N.3    67  ILE67      -0.1245
    124  CA         3.7520   13.2400   31.3210 C.3    67  ILE67       0.1561
    125  C          3.3890   14.2140   32.4090 C.2    67  ILE67       0.2260
    126  O          2.5900   15.1120   32.1580 O.2    67  ILE67      -0.2867
    127  CB         4.4270   14.0420   30.1780 C.3    67  ILE67       0.0252
    128  CG1        4.7230   13.1140   28.9910 C.3    67  ILE67       0.0019
    129  CG2        5.7100   14.7120   30.7020 C.3    67  ILE67       0.0019
    130  CD1        4.8920   13.8490   27.6640 C.3    67  ILE67       0.0001
    131  N         -0.4670   11.6210   25.8850 N.3    77  ARG77      -0.1245
    132  CA         0.0880   11.1690   24.5830 C.3    77  ARG77       0.1563
    133  C         -0.4620    9.7810   24.2620 C.2    77  ARG77       0.2260
    134  O         -0.7860    9.0170   25.1710 O.2    77  ARG77      -0.2867
    135  CB         1.6220   11.0790   24.5960 C.3    77  ARG77       0.0307
    136  CG         2.3100   12.2500   25.2520 C.3    77  ARG77       0.0489
    137  CD         2.4490   13.4330   24.3410 C.3    77  ARG77       0.2205
    138  NE         3.8050   13.5390   23.7940 N.pl3  77  ARG77      -0.0865
    139  CZ         4.6260   14.5830   23.9700 C.cat  77  ARG77       0.5346
    140  NH1        4.2500   15.6600   24.6760 N.pl3  77  ARG77       0.1354
    141  NH2        5.8370   14.5520   23.4060 N.pl3  77  ARG77       0.1354
    142  N          0.1680    6.5880   21.1830 N.3    79  TRP79      -0.1241
    143  CA         0.8660    6.1180   19.9640 C.3    79  TRP79       0.1605
    144  C          0.3250    4.7270   19.6230 C.2    79  TRP79       0.2264
    145  O         -0.1960    4.0310   20.5070 O.2    79  TRP79      -0.2867
    146  CB         2.4060    6.0670   20.1560 C.3    79  TRP79       0.0550
    147  CG         2.9590    6.9110   21.3350 C.ar   79  TRP79       0.0003
    148  CD1        2.6660    6.7450   22.7030 C.ar   79  TRP79       0.0946
    149  CD2        3.8990    8.0050   21.2730 C.ar   79  TRP79       0.0152
    150  NE1        3.3430    7.6770   23.4520 N.ar   79  TRP79      -0.2442
    151  CE2        4.1090    8.4580   22.6170 C.ar   79  TRP79       0.0810
    152  CE3        4.5710    8.6570   20.2210 C.ar   79  TRP79       0.0012
    153  CZ2        4.9650    9.5410   22.9310 C.ar   79  TRP79       0.0191
    154  CZ3        5.4370    9.7370   20.5290 C.ar   79  TRP79       0.0001
    155  CH2        5.6220   10.1620   21.8820 C.ar   79  TRP79       0.0015
    156  N          1.6850    1.0630   17.9060 N.3    81  TYR81      -0.1241
    157  CA         2.8420    0.3010   17.4270 C.3    81  TYR81       0.1605
    158  C          2.4430   -0.8950   16.6160 C.2    81  TYR81       0.2264
    159  O          1.3810   -1.4630   16.8460 O.2    81  TYR81      -0.2867
    160  CB         3.7220   -0.1810   18.5790 C.3    81  TYR81       0.0534
    161  CG         4.4280    0.9270   19.2860 C.ar   81  TYR81      -0.0201
    162  CD1        5.6140    1.4370   18.8000 C.ar   81  TYR81      -0.0009
    163  CD2        3.9120    1.4560   20.4660 C.ar   81  TYR81      -0.0009
    164  CE1        6.2710    2.4480   19.4530 C.ar   81  TYR81       0.0417
    165  CE2        4.5560    2.4780   21.1260 C.ar   81  TYR81       0.0417
    166  CZ         5.7410    2.9660   20.6160 C.ar   81  TYR81       0.1957
    167  OH         6.3880    3.9920   21.2730 O.3    81  TYR81      -0.2866
    168  N          9.5470   -2.6170   17.8620 N.3    90  LEU90      -0.1245
    169  CA         8.3560   -1.7860   17.7370 C.3    90  LEU90       0.1561
    170  C          8.5420   -0.7580   16.6160 C.2    90  LEU90       0.2260
    171  O          9.5130    0.0040   16.6000 O.2    90  LEU90      -0.2867
    172  CB         8.0520   -1.0570   19.0550 C.3    90  LEU90       0.0270
    173  CG         8.0730   -1.8070   20.3900 C.3    90  LEU90       0.0019
    174  CD1        7.4990   -0.9490   21.5100 C.3    90  LEU90       0.0001
    175  CD2        7.3300   -3.1300   20.2810 C.3    90  LEU90       0.0001
    176  N         12.3950    0.7480   17.5580 N.3    95  THR95      -0.1218
    177  CA        12.6790    0.5220   18.9400 C.3    95  THR95       0.1862
    178  C         13.0470   -0.9480   19.1060 C.2    95  THR95       0.2287
    179  O         12.2840   -1.8180   18.7120 O.2    95  THR95      -0.2866
    180  CB        11.4380    0.8590   19.8020 C.3    95  THR95       0.1770
    181  OG1       11.0540    2.2110   19.5380 O.3    95  THR95      -0.2211
    182  CG2       11.7380    0.7370   21.2280 C.3    95  THR95       0.0375
    183  N         13.8770   -3.8480   21.9070 N.3    97  LEU97      -0.1245
    184  CA        13.6520   -4.0830   23.3220 C.3    97  LEU97       0.1561
    185  C         14.7910   -4.9230   23.8600 C.2    97  LEU97       0.2260
    186  O         15.2320   -5.8220   23.1790 O.2    97  LEU97      -0.2867
    187  CB        12.3070   -4.7840   23.5270 C.3    97  LEU97       0.0270
    188  CG        11.1290   -4.0400   22.9020 C.3    97  LEU97       0.0019
    189  CD1        9.8800   -4.8780   23.0020 C.3    97  LEU97       0.0001
    190  CD2       10.9360   -2.7670   23.6870 C.3    97  LEU97       0.0001
    191  N         12.7550   -2.8890   31.9200 N.3   106  ILE106     -0.1245
    192  CA        12.9150   -3.1380   30.4900 C.3   106  ILE106      0.1561
    193  C         13.6670   -1.9560   29.8860 C.2   106  ILE106      0.2260
    194  O         13.4640   -0.8240   30.3290 O.2   106  ILE106     -0.2867
    195  CB        11.5420   -3.2940   29.7870 C.3   106  ILE106      0.0252
    196  CG1       11.7310   -3.8210   28.3430 C.3   106  ILE106      0.0019
    197  CG2       10.7360   -1.9790   29.7980 C.3   106  ILE106      0.0019
    198  CD1       10.4250   -4.5240   27.7490 C.3   106  ILE106      0.0001
    199  N         14.7630    0.1860   26.2920 N.3   108  LEU108     -0.1245
    200  CA        14.5920    0.3970   24.8510 C.3   108  LEU108      0.1561
    201  C         15.7680    1.0940   24.1940 C.2   108  LEU108      0.2260
    202  O         16.4620    1.9090   24.7990 O.2   108  LEU108     -0.2867
    203  CB        13.3150    1.2160   24.5490 C.3   108  LEU108      0.0270
    204  CG        11.8980    0.6650   24.5880 C.3   108  LEU108      0.0019
    205  CD1       11.5740    0.0180   25.9350 C.3   108  LEU108      0.0001
    206  CD2       10.8960    1.8240   24.3030 C.3   108  LEU108      0.0001
    207  N         16.1330    3.4020   20.8730 N.3   110  GLU110     -0.1245
    208  CA        15.4780    4.0650   19.7290 C.3   110  GLU110      0.1567
    209  C         16.5170    4.5080   18.7120 C.2   110  GLU110      0.2260
    210  O         17.4670    5.2200   19.0480 O.2   110  GLU110     -0.2867
    211  CB        14.6140    5.2570   20.1700 C.3   110  GLU110      0.0388
    212  CG        13.6960    4.9850   21.3740 C.3   110  GLU110      0.1160
    213  CD        12.5830    6.0120   21.5030 C.2   110  GLU110      0.3649
    214  OE1       12.8830    7.2230   21.5430 O.co2 110  GLU110     -0.2457
    215  OE2       11.3980    5.6170   21.5610 O.co2 110  GLU110     -0.2457
    216  N         19.1160    6.7610   21.2830 N.3   117  ARG117     -0.1245
    217  CA        19.0590    6.8390   22.7360 C.3   117  ARG117      0.1563
    218  C         18.4480    5.6320   23.4240 C.2   117  ARG117      0.2260
    219  O         17.5980    4.9250   22.8640 O.2   117  ARG117     -0.2867
    220  CB        18.3210    8.1140   23.1810 C.3   117  ARG117      0.0307
    221  CG        16.8230    8.0610   23.1600 C.3   117  ARG117      0.0489
    222  CD        16.3060    9.4580   22.9680 C.3   117  ARG117      0.2205
    223  NE        14.8530    9.4640   22.9270 N.pl3 117  ARG117     -0.0865
    224  CZ        14.1080   10.4780   22.4890 C.cat 117  ARG117      0.5346
    225  NH1       14.6570   11.5850   22.0160 N.pl3 117  ARG117      0.1354
    226  NH2       12.8000   10.3670   22.5030 N.pl3 117  ARG117      0.1354
    227  N         16.5270    4.0730   26.8820 N.3   119  LEU119     -0.1245
    228  CA        15.4760    4.5120   27.7530 C.3   119  LEU119      0.1561
    229  C         15.0800    3.3370   28.6200 C.2   119  LEU119      0.2260
    230  O         14.7640    2.2610   28.1050 O.2   119  LEU119     -0.2867
    231  CB        14.2750    5.0450   26.9160 C.3   119  LEU119      0.0270
    232  CG        14.4520    6.1590   25.8790 C.3   119  LEU119      0.0019
    233  CD1       13.1830    6.3840   25.0790 C.3   119  LEU119      0.0001
    234  CD2       14.8970    7.4490   26.5150 C.3   119  LEU119      0.0001
    235  N         12.7220    1.6800   31.6150 N.3   121  TYR121     -0.1241
    236  CA        11.3620    1.7040   32.2240 C.3   121  TYR121      0.1605
    237  C         11.2910    0.6220   33.2680 C.2   121  TYR121      0.2264
    238  O         12.0490   -0.3380   33.2170 O.2   121  TYR121     -0.2867
    239  CB        10.2780    1.4760   31.1500 C.3   121  TYR121      0.0534
    240  CG        10.3880    2.4880   30.0240 C.ar  121  TYR121     -0.0201
    241  CD1        9.6390    3.6730   30.0560 C.ar  121  TYR121     -0.0009
    242  CD2       11.2470    2.2780   28.9590 C.ar  121  TYR121     -0.0009
    243  CE1        9.7590    4.6120   29.1070 C.ar  121  TYR121      0.0417
    244  CE2       11.3640    3.2260   27.9380 C.ar  121  TYR121      0.0417
    245  CZ        10.6160    4.3880   28.0230 C.ar  121  TYR121      0.1957
    246  OH        10.7100    5.3220   27.0380 O.3   121  TYR121     -0.2866
@<TRIPOS>BOND
     1   171   170    2
     2   158   159    2
     3   158   157    1
     4   170   169    1
     5   157   156    1
     6   157   160    1
     7   176   177    1
     8   169   168    1
     9   169   172    1
    10   160   161    1
    11   209   210    2
    12   209   208    1
    13   179   178    2
    14   162   161   ar
    15   162   164   ar
    16   107   108    1
    17   177   178    1
    18   177   180    1
    19   172   173    1
    20   161   163   ar
    21   164   166   ar
    22   181   180    1
    23   144   143    1
    24   144   145    2
    25   208   211    1
    26   208   207    1
    27   180   182    1
    28   110   109    2
    29   143   146    1
    30   143   142    1
    31   146   147    1
    32   211   212    1
    33   152   154   ar
    34   152   149   ar
    35   175   173    1
    36   108   109    1
    37   108   111    1
    38   173   174    1
    39   163   165   ar
    40   154   155   ar
    41    10     8   ar
    42    10    11   ar
    43   166   165   ar
    44   166   167    1
    45   112   111    1
    46   112   113    1
    47   112   114    1
    48     8     6   ar
    49   149   147   ar
    50   149   151   ar
    51   216   217    1
    52   147   148   ar
    53    11     9   ar
    54   212   213    1
    55   213   214   ar
    56   213   215   ar
    57     4     3    2
    58   155   153   ar
    59   183   184    1
    60    18    17    1
    61    18    12    1
    62   225   224    1
    63     6     5    1
    64     6     7   ar
    65   224   226    1
    66   224   223    2
    67    17    16    1
    68   151   153   ar
    69   151   150   ar
    70     9     7   ar
    71   148   150   ar
    72   217   220    1
    73   217   218    1
    74     3    12   am
    75     3     2    1
    76   219   218    2
    77   188   189    1
    78   188   187    1
    79   188   190    1
    80   115   116    1
    81   223   222    1
    82    12    13    1
    83   222   221    1
    84     5     2    1
    85   221   220    1
    86   186   185    2
    87    16    13    1
    88   184   187    1
    89   184   185    1
    90   141   139    1
    91   118   117    2
    92   119   116    1
    93   119   120    1
    94     2     1    1
    95   138   139    2
    96   138   137    1
    97    13    14    1
    98   139   140    1
    99   122   120    1
   100   116   117    1
   101   105   106    1
   102   105   104    1
   103    66    67    1
   104    66    68    1
   105    66    63    1
   106   201   202    2
   107   201   200    1
   108   133   132    1
   109   133   134    2
   110   206   204    1
   111   137   136    1
   112   203   204    1
   113   203   200    1
   114   132   135    1
   115   132   131    1
   116   204   205    1
   117   135   136    1
   118   120   121    1
   119   200   199    1
   120   233   232    1
   121    14    15    2
   122   104   103    1
   123    62    63    1
   124    63    64    1
   125   232   234    1
   126   232   231    1
   127    36    34    1
   128    79    78   ar
   129    79    77   ar
   130    78    76   ar
   131    35    34    1
   132   103   100    1
   133   101   100    1
   134   101   102    2
   135    64    65    2
   136    64    69   am
   137   100    99    1
   138   227   228    1
   139   231   228    1
   140    34    33    1
   141    26    28   ar
   142    26    24   ar
   143   246   245    1
   144    77    75   ar
   145    28    27   ar
   146    69    70    1
   147    76    74   ar
   148    96    94   ar
   149    96    98   ar
   150   130   128    1
   151    23    24    1
   152    23    20    1
   153    24    25   ar
   154   198   196    1
   155   228   229    1
   156    94    93   ar
   157   244   245   ar
   158   244   242   ar
   159    75    74   ar
   160   245   243   ar
   161   230   229    2
   162    74    73    1
   163   196   195    1
   164    33    30    1
   165    19    20    1
   166    27    25   ar
   167    98    97   ar
   168    20    21    1
   169    30    29    1
   170    30    31    1
   171    29    21   am
   172    21    22    2
   173    70    73    1
   174    70    71    1
   175   242   240   ar
   176   128   127    1
   177   243   241   ar
   178    93    92    1
   179    93    95   ar
   180    92    89    1
   181   195   197    1
   182   195   192    1
   183    59    61   ar
   184    59    57   ar
   185    87    85    1
   186    97    95   ar
   187   193   194    2
   188   193   192    1
   189    61    60   ar
   190   240   241   ar
   191   240   239    1
   192    71    72    2
   193    45    43   ar
   194    45    46   ar
   195    31    32    2
   196   127   129    1
   197   127   124    1
   198    43    42   ar
   199    86    84    1
   200    89    90    1
   201    89    88    1
   202    57    56   ar
   203   192   191    1
   204    90    91    2
   205    60    58   ar
   206    46    48   ar
   207    46    44   ar
   208    48    50   ar
   209   123   124    1
   210   239   236    1
   211    56    58   ar
   212    56    55    1
   213    85    84    1
   214    42    44   ar
   215    42    41    1
   216   124   125    1
   217    84    81    1
   218    44    47   ar
   219   235   236    1
   220    50    49   ar
   221    55    52    1
   222    41    38    1
   223   126   125    2
   224   236   237    1
   225    47    49   ar
   226    52    51    1
   227    52    53    1
   228    81    82    1
   229    81    80    1
   230    82    83    2
   231    38    37    1
   232    38    39    1
   233   238   237    2
   234    40    39    2
   235    53    54    2
