@<TRIPOS>MOLECULE
tmp/2weyA00.pdb
 167 163 0 0 0
SMALL
GASTEIGER

@<TRIPOS>ATOM
      1  N        -14.9620  -25.8480   31.2310 N.3    78  TYR78      -0.1227
      2  CA       -13.7440  -26.4280   30.6520 C.3    78  TYR78       0.1736
      3  C        -13.8840  -27.8360   30.0790 C.2    78  TYR78       0.2595
      4  O        -13.5900  -28.0430   28.8950 O.2    78  TYR78      -0.2718
      5  CB       -12.5870  -26.3650   31.6520 C.3    78  TYR78       0.0548
      6  CG       -11.3380  -27.0850   31.2140 C.ar   78  TYR78      -0.0200
      7  CD1      -10.4980  -26.5440   30.2530 C.ar   78  TYR78      -0.0009
      8  CD2      -10.9940  -28.3070   31.7730 C.ar   78  TYR78      -0.0009
      9  CE1       -9.3410  -27.2030   29.8530 C.ar   78  TYR78       0.0417
     10  CE2       -9.8470  -28.9770   31.3840 C.ar   78  TYR78       0.0417
     11  CZ        -9.0210  -28.4220   30.4240 C.ar   78  TYR78       0.1957
     12  OH        -7.8770  -29.0910   30.0530 O.3    78  TYR78      -0.2866
     13  N        -14.2940  -28.7980   30.9100 N.am   79  HIS79      -0.1975
     14  CA       -14.4980  -30.1860   30.4620 C.3    79  HIS79       0.1656
     15  C        -15.7410  -30.2920   29.6010 C.2    79  HIS79       0.2291
     16  O        -16.7870  -30.7860   30.0320 O.2    79  HIS79      -0.2864
     17  CB       -14.5940  -31.1490   31.6430 C.3    79  HIS79       0.0771
     18  CG       -13.3260  -31.2710   32.4200 C.ar   79  HIS79       0.0820
     19  ND1      -13.2800  -31.1580   33.7920 N.ar   79  HIS79      -0.2267
     20  CD2      -12.0500  -31.4710   32.0130 C.ar   79  HIS79       0.1154
     21  CE1      -12.0300  -31.3050   34.1970 C.ar   79  HIS79       0.1986
     22  NE2      -11.2620  -31.4860   33.1370 N.ar   79  HIS79      -0.2212
     23  N        -18.8400  -34.8750   31.8460 N.3   121  HIS121     -0.1241
     24  CA       -18.1430  -34.4480   33.0500 C.3   121  HIS121      0.1621
     25  C        -19.0320  -33.3800   33.6700 C.2   121  HIS121      0.2264
     26  O        -19.7910  -32.7300   32.9550 O.2   121  HIS121     -0.2867
     27  CB       -16.7660  -33.8840   32.6770 C.3   121  HIS121      0.0745
     28  CG       -15.7950  -33.8330   33.8110 C.ar  121  HIS121      0.0817
     29  ND1      -15.8130  -32.8350   34.7600 N.ar  121  HIS121     -0.2268
     30  CD2      -14.7530  -34.6380   34.1320 C.ar  121  HIS121      0.1154
     31  CE1      -14.8350  -33.0360   35.6280 C.ar  121  HIS121      0.1986
     32  NE2      -14.1720  -34.1210   35.2660 N.ar  121  HIS121     -0.2212
     33  N        -14.2810  -32.5710   40.3550 N.3   125  SER125     -0.1217
     34  CA       -13.1430  -33.4900   40.3720 C.3   125  SER125      0.1889
     35  C        -13.4220  -34.7310   41.2180 C.2   125  SER125      0.2288
     36  O        -14.3760  -34.7600   41.9990 O.2   125  SER125     -0.2866
     37  CB       -11.8890  -32.7720   40.8790 C.3   125  SER125      0.2089
     38  OG       -12.0810  -32.2710   42.1900 O.3   125  SER125     -0.2183
     39  N         -4.9800  -38.1380   36.3020 N.3   189  LEU189     -0.1245
     40  CA        -3.6830  -37.6130   36.7130 C.3   189  LEU189      0.1561
     41  C         -3.0910  -38.3240   37.9200 C.2   189  LEU189      0.2260
     42  O         -1.8630  -38.3840   38.0680 O.2   189  LEU189     -0.2867
     43  CB        -3.7780  -36.1190   36.9830 C.3   189  LEU189      0.0270
     44  CG        -3.7920  -35.2390   35.7410 C.3   189  LEU189      0.0019
     45  CD1       -4.0560  -33.8080   36.1460 C.3   189  LEU189      0.0001
     46  CD2       -2.4670  -35.3580   34.9830 C.3   189  LEU189      0.0001
     47  N         -4.1610  -34.5470   26.7760 N.3   228  ASP228     -0.1225
     48  CA        -5.0340  -33.9660   27.7720 C.3   228  ASP228      0.1805
     49  C         -4.6240  -32.5910   28.2770 C.2   228  ASP228      0.2597
     50  O         -5.4820  -31.7530   28.5810 O.2   228  ASP228     -0.2718
     51  CB        -5.2740  -34.9230   28.9370 C.3   228  ASP228      0.1424
     52  CG        -6.6610  -34.7340   29.5510 C.2   228  ASP228      0.3668
     53  OD1       -7.4000  -33.9100   29.0060 O.co2 228  ASP228     -0.2456
     54  OD2       -6.9800  -35.3720   30.5690 O.co2 228  ASP228     -0.2456
     55  N         -3.3170  -32.3630   28.3550 N.am  229  LEU229     -0.1979
     56  CA        -2.7750  -31.0720   28.7830 C.3   229  LEU229      0.1596
     57  C         -2.5450  -30.0800   27.6470 C.2   229  LEU229      0.2287
     58  O         -2.4220  -28.8940   27.9060 O.2   229  LEU229     -0.2864
     59  CB        -1.4660  -31.2740   29.5530 C.3   229  LEU229      0.0297
     60  CG        -1.4520  -32.2550   30.7260 C.3   229  LEU229      0.0022
     61  CD1       -0.0510  -32.3430   31.3030 C.3   229  LEU229      0.0001
     62  CD2       -2.4670  -31.8720   31.8020 C.3   229  LEU229      0.0001
     63  N         -3.2520  -27.7800   25.8140 N.3   231  SER231     -0.1202
     64  CA        -3.4020  -26.3270   25.8170 C.3   231  SER231      0.2020
     65  C         -2.1550  -25.6580   26.4280 C.2   231  SER231      0.2618
     66  O         -1.8850  -24.4830   26.1720 O.2   231  SER231     -0.2717
     67  CB        -4.7130  -25.8760   26.4740 C.3   231  SER231      0.2103
     68  OG        -4.6580  -25.9280   27.8850 O.3   231  SER231     -0.2182
     69  N         -1.3770  -26.4120   27.1970 N.am  232  VAL232     -0.1979
     70  CA        -0.0470  -25.9500   27.6330 C.3   232  VAL232      0.1595
     71  C          0.9730  -25.9150   26.4770 C.2   232  VAL232      0.2287
     72  O          2.1280  -25.5270   26.6720 O.2   232  VAL232     -0.2864
     73  CB         0.5380  -26.8000   28.8200 C.3   232  VAL232      0.0276
     74  CG1       -0.3440  -26.6980   30.0650 C.3   232  VAL232      0.0022
     75  CG2        0.7310  -28.2520   28.4220 C.3   232  VAL232      0.0022
     76  N        -10.4220  -23.0330   32.8800 N.3   246  ILE246     -0.1231
     77  CA       -10.0080  -24.0410   33.8500 C.3   246  ILE246      0.1692
     78  C        -10.4050  -23.5930   35.2450 C.2   246  ILE246      0.2592
     79  O        -11.1180  -24.2980   35.9600 O.2   246  ILE246     -0.2718
     80  CB        -8.4770  -24.2720   33.8200 C.3   246  ILE246      0.0266
     81  CG1       -8.0140  -24.7850   32.4520 C.3   246  ILE246      0.0019
     82  CG2       -8.0610  -25.2530   34.9030 C.3   246  ILE246      0.0020
     83  CD1       -6.4770  -24.7970   32.2670 C.3   246  ILE246      0.0001
     84  N         -9.9320  -22.4100   35.6250 N.am  247  TYR247     -0.1976
     85  CA       -10.2080  -21.8570   36.9410 C.3   247  TYR247      0.1639
     86  C        -11.6820  -21.5540   37.1430 C.2   247  TYR247      0.2290
     87  O        -12.2120  -21.7940   38.2200 O.2   247  TYR247     -0.2864
     88  CB        -9.3350  -20.6370   37.2020 C.3   247  TYR247      0.0560
     89  CG        -7.9130  -21.0210   37.4990 C.ar  247  TYR247     -0.0198
     90  CD1       -6.9310  -20.9460   36.5150 C.ar  247  TYR247     -0.0009
     91  CD2       -7.5490  -21.4820   38.7590 C.ar  247  TYR247     -0.0009
     92  CE1       -5.6190  -21.3080   36.7830 C.ar  247  TYR247      0.0417
     93  CE2       -6.2440  -21.8470   39.0380 C.ar  247  TYR247      0.0417
     94  CZ        -5.2850  -21.7580   38.0460 C.ar  247  TYR247      0.1957
     95  OH        -3.9910  -22.1210   38.3260 O.3   247  TYR247     -0.2866
     96  N        -13.9140  -23.3090   36.4550 N.3   249  GLU249     -0.1231
     97  CA       -14.4360  -24.5810   36.9420 C.3   249  GLU249      0.1699
     98  C        -13.9860  -24.9340   38.3480 C.2   249  GLU249      0.2592
     99  O        -14.8030  -25.3410   39.1760 O.2   249  GLU249     -0.2718
    100  CB       -14.0650  -25.7200   35.9960 C.3   249  GLU249      0.0402
    101  CG       -15.2220  -26.2030   35.1450 C.3   249  GLU249      0.1161
    102  CD       -14.9160  -27.4840   34.4060 C.2   249  GLU249      0.3649
    103  OE1      -15.1680  -27.5230   33.1920 O.co2 249  GLU249     -0.2457
    104  OE2      -14.4210  -28.4470   35.0260 O.co2 249  GLU249     -0.2457
    105  N        -12.6870  -24.8080   38.6070 N.am  250  PHE250     -0.1976
    106  CA       -12.1430  -25.0570   39.9340 C.3   250  PHE250      0.1639
    107  C        -12.8580  -24.2120   40.9800 C.2   250  PHE250      0.2290
    108  O        -13.2540  -24.7140   42.0300 O.2   250  PHE250     -0.2864
    109  CB       -10.6540  -24.7300   39.9720 C.3   250  PHE250      0.0560
    110  CG        -9.7850  -25.7410   39.2890 C.ar  250  PHE250     -0.0200
    111  CD1      -10.1930  -27.0690   39.1570 C.ar  250  PHE250     -0.0042
    112  CD2       -8.5290  -25.3760   38.8140 C.ar  250  PHE250     -0.0042
    113  CE1       -9.3650  -28.0090   38.5360 C.ar  250  PHE250     -0.0003
    114  CE2       -7.7030  -26.3010   38.1930 C.ar  250  PHE250     -0.0003
    115  CZ        -8.1170  -27.6200   38.0550 C.ar  250  PHE250     -0.0000
    116  N         -5.8500  -23.4710   45.0830 N.3   267  MET267     -0.1230
    117  CA        -6.0760  -23.6130   43.6460 C.3   267  MET267      0.1702
    118  C         -7.5430  -23.4570   43.2120 C.2   267  MET267      0.2592
    119  O         -7.8110  -23.0390   42.0900 O.2   267  MET267     -0.2718
    120  CB        -5.5310  -24.9720   43.1930 C.3   267  MET267      0.0401
    121  CG        -5.2900  -25.1180   41.6980 C.3   267  MET267      0.0596
    122  SD        -5.1010  -26.8460   41.2010 S.3   267  MET267     -0.1393
    123  CE        -6.7790  -27.4480   41.3940 C.3   267  MET267      0.0692
    124  N         -8.4770  -23.8010   44.0960 N.am  268  MET268     -0.1979
    125  CA        -9.9120  -23.7610   43.7940 C.3   268  MET268      0.1605
    126  C        -10.6160  -22.6480   44.5620 C.2   268  MET268      0.2287
    127  O        -11.8490  -22.5360   44.5310 O.2   268  MET268     -0.2864
    128  CB       -10.5690  -25.1000   44.1230 C.3   268  MET268      0.0413
    129  CG        -9.9710  -26.2800   43.3860 C.3   268  MET268      0.0598
    130  SD       -10.8220  -27.8130   43.7670 S.3   268  MET268     -0.1393
    131  CE       -10.2430  -28.8640   42.4390 C.3   268  MET268      0.0692
    132  N          1.1000  -21.5000   40.9900 N.3   279  GLY279     -0.1210
    133  CA         0.5950  -22.8610   40.8150 C.3   279  GLY279      0.1956
    134  C          0.8970  -23.4180   39.4410 C.2   279  GLY279      0.2611
    135  O          1.2980  -24.5760   39.3030 O.2   279  GLY279     -0.2717
    136  N          0.7120  -22.5790   38.4240 N.am  280  GLN280     -0.1979
    137  CA         1.0000  -22.9540   37.0450 C.3   280  GLN280      0.1601
    138  C          2.4720  -23.3080   36.8530 C.2   280  GLN280      0.2287
    139  O          2.7930  -24.3640   36.3130 O.2   280  GLN280     -0.2864
    140  CB         0.5700  -21.8440   36.0990 C.3   280  GLN280      0.0394
    141  CG        -0.9210  -21.5540   36.1520 C.3   280  GLN280      0.0908
    142  CD        -1.7360  -22.4950   35.2990 C.2   280  GLN280      0.2608
    143  OE1       -1.1990  -23.2260   34.4680 O.2   280  GLN280     -0.2717
    144  NE2       -3.0460  -22.4750   35.4880 N.am  280  GLN280     -0.0878
    145  N          2.9930  -26.4810   38.4200 N.3   283  PHE283     -0.1227
    146  CA         2.3940  -27.5410   37.6120 C.3   283  PHE283      0.1736
    147  C          3.1760  -27.8660   36.3470 C.2   283  PHE283      0.2595
    148  O          3.3400  -29.0270   36.0080 O.2   283  PHE283     -0.2718
    149  CB         0.9490  -27.2040   37.2450 C.3   283  PHE283      0.0547
    150  CG         0.3270  -28.2010   36.3270 C.ar  283  PHE283     -0.0202
    151  CD1       -0.1990  -29.3830   36.8270 C.ar  283  PHE283     -0.0042
    152  CD2        0.2930  -27.9750   34.9540 C.ar  283  PHE283     -0.0042
    153  CE1       -0.7700  -30.3180   35.9760 C.ar  283  PHE283     -0.0003
    154  CE2       -0.2720  -28.9060   34.0910 C.ar  283  PHE283     -0.0003
    155  CZ        -0.8070  -30.0780   34.6000 C.ar  283  PHE283     -0.0000
    156  N          3.6160  -26.8360   35.6350 N.am  284  TYR284     -0.1976
    157  CA         4.4880  -27.0130   34.4700 C.3   284  TYR284      0.1639
    158  C          5.7650  -27.7630   34.8500 C.2   284  TYR284      0.2290
    159  O          6.1640  -28.7100   34.1690 O.2   284  TYR284     -0.2864
    160  CB         4.8430  -25.6570   33.8330 C.3   284  TYR284      0.0560
    161  CG         3.8010  -25.1160   32.8700 C.ar  284  TYR284     -0.0198
    162  CD1        2.4880  -24.8670   33.2920 C.ar  284  TYR284     -0.0009
    163  CD2        4.1260  -24.8430   31.5480 C.ar  284  TYR284     -0.0009
    164  CE1        1.5290  -24.3770   32.4220 C.ar  284  TYR284      0.0417
    165  CE2        3.1740  -24.3500   30.6670 C.ar  284  TYR284      0.0417
    166  CZ         1.8770  -24.1170   31.1120 C.ar  284  TYR284      0.1957
    167  OH         0.9260  -23.6250   30.2480 O.3   284  TYR284     -0.2866
@<TRIPOS>BOND
     1    63    64    1
     2    64    65    1
     3    64    67    1
     4    66    65    2
     5    65    69   am
     6    67    68    1
     7    71    72    2
     8    71    70    1
     9    47    48    1
    10    69    70    1
    11    70    73    1
    12    57    58    2
    13    57    56    1
    14    48    49    1
    15    48    51    1
    16    49    55   am
    17    49    50    2
    18    55    56    1
    19    75    73    1
    20    56    59    1
    21    73    74    1
    22     4     3    2
    23    51    52    1
    24    53    52   ar
    25    52    54   ar
    26    59    60    1
    27    15    16    2
    28    15    14    1
    29     9     7   ar
    30     9    11   ar
    31    12    11    1
    32     3     2    1
    33     3    13   am
    34   167   166    1
    35     7     6   ar
    36    11    10   ar
    37    14    13    1
    38    14    17    1
    39     2     1    1
    40     2     5    1
    41   165   166   ar
    42   165   163   ar
    43    60    61    1
    44    60    62    1
    45   166   164   ar
    46     6     5    1
    47     6     8   ar
    48    10     8   ar
    49   163   161   ar
    50    17    18    1
    51    23    24    1
    52    20    18   ar
    53    20    22   ar
    54    83    81    1
    55    18    19   ar
    56   164   162   ar
    57    81    80    1
    58    27    24    1
    59    27    28    1
    60   161   162   ar
    61   161   160    1
    62    76    77    1
    63    26    25    2
    64    24    25    1
    65    22    21   ar
    66   103   102   ar
    67    19    21   ar
    68    28    30   ar
    69    28    29   ar
    70    80    77    1
    71    80    82    1
    72   160   157    1
    73    77    78    1
    74   154   155   ar
    75   154   152   ar
    76    30    32   ar
    77   159   158    2
    78   102   104   ar
    79   102   101    1
    80   143   142    2
    81   157   158    1
    82   157   156    1
    83   155   153   ar
    84    29    31   ar
    85   152   150   ar
    86    46    44    1
    87   101   100    1
    88    78    84   am
    89    78    79    2
    90    32    31   ar
    91   142   144   am
    92   142   141    1
    93    84    85    1
    94   156   147   am
    95    44    45    1
    96    44    43    1
    97   153   151   ar
    98   100    97    1
    99   148   147    2
   100   140   141    1
   101   140   137    1
   102    39    40    1
   103   139   138    2
   104   150   151   ar
   105   150   149    1
   106   147   146    1
   107    96    97    1
   108    90    92   ar
   109    90    89   ar
   110    40    43    1
   111    40    41    1
   112    92    94   ar
   113   138   137    1
   114    85    86    1
   115    85    88    1
   116    97    98    1
   117   137   136    1
   118    86    87    2
   119    88    89    1
   120   149   146    1
   121    89    91   ar
   122   146   145    1
   123    41    42    2
   124    94    95    1
   125    94    93   ar
   126   115   114   ar
   127   115   113   ar
   128   114   112   ar
   129    98   105   am
   130    98    99    2
   131   136   134   am
   132   113   111   ar
   133   105   106    1
   134    91    93   ar
   135   112   110   ar
   136   111   110   ar
   137   110   109    1
   138   135   134    2
   139   134   133    1
   140   106   109    1
   141   106   107    1
   142    33    34    1
   143    34    37    1
   144    34    35    1
   145   133   132    1
   146    37    38    1
   147   107   108    2
   148   122   123    1
   149   122   121    1
   150    35    36    2
   151   121   120    1
   152   119   118    2
   153   131   130    1
   154   120   117    1
   155   118   117    1
   156   118   124   am
   157   129   130    1
   158   129   128    1
   159   117   116    1
   160   125   124    1
   161   125   128    1
   162   125   126    1
   163   127   126    2
