@<TRIPOS>MOLECULE
tmp/2wf4A00.pdb
 211 197 0 0 0
SMALL
GASTEIGER

@<TRIPOS>ATOM
      1  N         25.8410   -8.8180   37.3630 N.3    11  GLY11      -0.1210
      2  CA        27.0840   -8.0660   37.3610 C.3    11  GLY11       0.1956
      3  C         27.5270   -7.5730   35.9930 C.2    11  GLY11       0.2612
      4  O         28.5780   -6.9450   35.8710 O.2    11  GLY11      -0.2717
      5  N         26.7380   -7.8550   34.9610 N.am   12  GLN12      -0.1965
      6  CA        27.1320   -7.5250   33.5950 C.3    12  GLN12       0.1733
      7  C         26.1170   -6.6390   32.8720 C.2    12  GLN12       0.2616
      8  O         26.1970   -6.4580   31.6580 O.2    12  GLN12      -0.2715
      9  CB        27.3700   -8.8120   32.7950 C.3    12  GLN12       0.0408
     10  CG        28.3990   -9.7350   33.4350 C.3    12  GLN12       0.0908
     11  CD        28.8290  -10.8750   32.5260 C.2    12  GLN12       0.2608
     12  OE1       28.3040  -11.0440   31.4260 O.2    12  GLN12      -0.2717
     13  NE2       29.7920  -11.6640   32.9890 N.am   12  GLN12      -0.0878
     14  N         25.1660   -6.0880   33.6190 N.am   13  GLY13      -0.1955
     15  CA        24.2060   -5.1680   33.0350 C.3    13  GLY13       0.1869
     16  C         22.9240   -5.8390   32.5740 C.2    13  GLY13       0.2309
     17  O         22.8640   -7.0660   32.4650 O.2    13  GLY13      -0.2863
     18  N         22.5130   -2.7730   26.1920 N.3    30  LEU30      -0.1245
     19  CA        22.5240   -2.5430   27.6360 C.3    30  LEU30       0.1561
     20  C         21.8570   -1.2140   27.9600 C.2    30  LEU30       0.2260
     21  O         22.1590   -0.1980   27.3410 O.2    30  LEU30      -0.2867
     22  CB        23.9710   -2.5370   28.1520 C.3    30  LEU30       0.0270
     23  CG        24.1690   -2.3310   29.6580 C.3    30  LEU30       0.0019
     24  CD1       25.4260   -3.0670   30.0990 C.3    30  LEU30       0.0001
     25  CD2       24.2660   -0.8470   29.9870 C.3    30  LEU30       0.0001
     26  N         21.4120    1.9680   30.0800 N.3    32  ASP32      -0.1239
     27  CA        22.3580    2.6970   30.9220 C.3    32  ASP32       0.1674
     28  C         21.8820    4.1080   31.2620 C.2    32  ASP32       0.2266
     29  O         21.9790    5.0160   30.4380 O.2    32  ASP32      -0.2867
     30  CB        23.7150    2.7710   30.2200 C.3    32  ASP32       0.1410
     31  CG        24.7770    3.4380   31.0690 C.2    32  ASP32       0.3668
     32  OD1       24.5610    3.5860   32.2920 O.co2  32  ASP32      -0.2456
     33  OD2       25.8310    3.8100   30.5090 O.co2  32  ASP32      -0.2456
     34  N         23.3390    5.9510   33.2120 N.3    34  GLY34      -0.1225
     35  CA        24.5140    6.7140   33.5980 C.3    34  GLY34       0.1811
     36  C         25.3690    7.2170   32.4410 C.2    34  GLY34       0.2280
     37  O         26.5250    7.5920   32.6380 O.2    34  GLY34      -0.2866
     38  N         34.1870    5.1860   30.1180 N.3    71  TYR71      -0.1227
     39  CA        33.3540    4.9600   31.2910 C.3    71  TYR71       0.1736
     40  C         34.2720    4.6870   32.4830 C.2    71  TYR71       0.2596
     41  O         35.5000    4.7330   32.3530 O.2    71  TYR71      -0.2718
     42  CB        32.4260    3.7620   31.0540 C.3    71  TYR71       0.0548
     43  CG        31.5600    3.8830   29.8150 C.ar   71  TYR71      -0.0200
     44  CD1       30.3760    4.6110   29.8350 C.ar   71  TYR71      -0.0009
     45  CD2       31.9160    3.2470   28.6330 C.ar   71  TYR71      -0.0009
     46  CE1       29.5680    4.6970   28.7100 C.ar   71  TYR71       0.0417
     47  CE2       31.1190    3.3280   27.5060 C.ar   71  TYR71       0.0417
     48  CZ        29.9450    4.0530   27.5490 C.ar   71  TYR71       0.1957
     49  OH        29.1470    4.1240   26.4250 O.3    71  TYR71      -0.2866
     50  N         33.6880    4.4000   33.6410 N.am   72  THR72      -0.1939
     51  CA        34.4930    3.9950   34.7890 C.3    72  THR72       0.2028
     52  C         35.1730    2.6850   34.4280 C.2    72  THR72       0.2642
     53  O         36.3630    2.4990   34.6760 O.2    72  THR72      -0.2714
     54  CB        33.6330    3.7640   36.0430 C.3    72  THR72       0.1808
     55  OG1       32.7660    4.8840   36.2430 O.3    72  THR72      -0.2208
     56  CG2       34.5330    3.6140   37.2750 C.3    72  THR72       0.0379
     57  N         34.3990    1.7780   33.8390 N.am   73  GLN73      -0.1976
     58  CA        34.9280    0.5330   33.3110 C.3    73  GLN73       0.1601
     59  C         34.8070    0.5510   31.7930 C.2    73  GLN73       0.2287
     60  O         33.7060    0.6490   31.2520 O.2    73  GLN73      -0.2864
     61  CB        34.1500   -0.6580   33.8830 C.3    73  GLN73       0.0394
     62  CG        34.5520   -2.0080   33.3070 C.3    73  GLN73       0.0908
     63  CD        33.9510   -3.1760   34.0690 C.2    73  GLN73       0.2608
     64  OE1       33.1760   -3.9610   33.5180 O.2    73  GLN73      -0.2717
     65  NE2       34.3100   -3.3000   35.3390 N.am   73  GLN73      -0.0878
     66  N         35.5530   -2.9390   27.3080 N.3   108  PHE108     -0.1241
     67  CA        34.1530   -2.5200   27.3030 C.3   108  PHE108      0.1605
     68  C         33.2370   -3.7270   27.1670 C.2   108  PHE108      0.2264
     69  O         32.4710   -4.0410   28.0770 O.2   108  PHE108     -0.2867
     70  CB        33.8900   -1.5460   26.1480 C.3   108  PHE108      0.0534
     71  CG        32.4540   -1.1130   26.0370 C.ar  108  PHE108     -0.0203
     72  CD1       31.8330   -0.4530   27.0850 C.ar  108  PHE108     -0.0042
     73  CD2       31.7260   -1.3670   24.8860 C.ar  108  PHE108     -0.0042
     74  CE1       30.5070   -0.0530   26.9910 C.ar  108  PHE108     -0.0003
     75  CE2       30.4010   -0.9700   24.7830 C.ar  108  PHE108     -0.0003
     76  CZ        29.7900   -0.3110   25.8380 C.ar  108  PHE108     -0.0000
     77  N         32.0280   -7.5070   27.2400 N.3   110  ILE110     -0.1245
     78  CA        32.3010   -8.4990   28.2690 C.3   110  ILE110      0.1561
     79  C         32.1260   -9.9140   27.7180 C.2   110  ILE110      0.2260
     80  O         31.1030  -10.2300   27.1110 O.2   110  ILE110     -0.2867
     81  CB        31.3610   -8.2820   29.4760 C.3   110  ILE110      0.0252
     82  CG1       31.5810   -6.8750   30.0420 C.3   110  ILE110      0.0019
     83  CG2       31.6110   -9.3470   30.5420 C.3   110  ILE110      0.0019
     84  CD1       30.5590   -6.4470   31.0760 C.3   110  ILE110      0.0001
     85  N         25.0800   -8.8730   25.1950 N.3   115  TRP115     -0.1241
     86  CA        24.7450   -7.5850   24.5960 C.3   115  TRP115      0.1605
     87  C         25.8610   -7.0680   23.6910 C.2   115  TRP115      0.2264
     88  O         27.0290   -7.4000   23.8760 O.2   115  TRP115     -0.2867
     89  CB        24.3960   -6.5410   25.6740 C.3   115  TRP115      0.0550
     90  CG        25.4110   -6.3570   26.7720 C.ar  115  TRP115      0.0003
     91  CD1       25.3970   -6.9400   28.0150 C.ar  115  TRP115      0.0946
     92  CD2       26.5470   -5.4830   26.7530 C.ar  115  TRP115      0.0152
     93  NE1       26.4520   -6.4730   28.7690 N.ar  115  TRP115     -0.2442
     94  CE2       27.1740   -5.5810   28.0160 C.ar  115  TRP115      0.0810
     95  CE3       27.0950   -4.6250   25.7930 C.ar  115  TRP115      0.0012
     96  CZ2       28.3210   -4.8520   28.3410 C.ar  115  TRP115      0.0191
     97  CZ3       28.2380   -3.9000   26.1190 C.ar  115  TRP115      0.0001
     98  CH2       28.8360   -4.0190   27.3820 C.ar  115  TRP115      0.0015
     99  N         25.0700   -0.2540   23.7280 N.3   118  ILE118     -0.1245
    100  CA        24.6640    0.4160   24.9540 C.3   118  ILE118      0.1561
    101  C         23.7340    1.5910   24.6410 C.2   118  ILE118      0.2260
    102  O         23.9450    2.3230   23.6740 O.2   118  ILE118     -0.2867
    103  CB        25.9220    0.8740   25.7450 C.3   118  ILE118      0.0252
    104  CG1       25.5170    1.4610   27.1000 C.3   118  ILE118      0.0019
    105  CG2       26.7270    1.8700   24.9150 C.3   118  ILE118      0.0019
    106  CD1       26.6930    1.6410   28.0530 C.3   118  ILE118      0.0001
    107  N         23.5380   13.7780   34.4370 N.3   185  TYR185     -0.1241
    108  CA        23.2120   12.4400   34.9350 C.3   185  TYR185      0.1605
    109  C         21.8580   12.5640   35.6140 C.2   185  TYR185      0.2264
    110  O         21.3380   13.6700   35.7500 O.2   185  TYR185     -0.2867
    111  CB        24.2460   11.9640   35.9580 C.3   185  TYR185      0.0534
    112  CG        25.6400   11.8810   35.3970 C.ar  185  TYR185     -0.0201
    113  CD1       26.0030   10.8460   34.5490 C.ar  185  TYR185     -0.0009
    114  CD2       26.5820   12.8630   35.6780 C.ar  185  TYR185     -0.0009
    115  CE1       27.2670   10.7880   33.9860 C.ar  185  TYR185      0.0417
    116  CE2       27.8510   12.8120   35.1220 C.ar  185  TYR185      0.0417
    117  CZ        28.1860   11.7730   34.2770 C.ar  185  TYR185      0.1957
    118  OH        29.4440   11.7130   33.7190 O.3   185  TYR185     -0.2866
    119  N         28.5780   14.5840   43.3740 N.3   211  LYS211     -0.1245
    120  CA        27.2250   14.4110   42.8670 C.3   211  LYS211      0.1561
    121  C         26.7950   12.9990   43.2420 C.2   211  LYS211      0.2260
    122  O         27.6350   12.1160   43.4080 O.2   211  LYS211     -0.2867
    123  CB        27.2020   14.5600   41.3470 C.3   211  LYS211      0.0271
    124  CG        28.0280   13.5020   40.6380 C.3   211  LYS211      0.0035
    125  CD        28.2220   13.8310   39.1800 C.3   211  LYS211      0.0206
    126  CE        29.0870   12.7900   38.4960 C.3   211  LYS211      0.1093
    127  NZ        30.5020   12.8330   38.9670 N.3   211  LYS211     -0.1314
    128  N         24.1230    9.9330   41.8810 N.3   213  ILE213     -0.1245
    129  CA        23.3360    9.6010   40.7010 C.3   213  ILE213      0.1561
    130  C         22.7390    8.2070   40.7790 C.2   213  ILE213      0.2260
    131  O         23.1890    7.3620   41.5610 O.2   213  ILE213     -0.2867
    132  CB        24.1820    9.6680   39.4200 C.3   213  ILE213      0.0252
    133  CG1       25.2140    8.5380   39.4290 C.3   213  ILE213      0.0019
    134  CG2       24.8770   11.0280   39.3160 C.3   213  ILE213      0.0019
    135  CD1       25.9050    8.3510   38.1070 C.3   213  ILE213      0.0001
    136  N         22.2590    4.9870   38.4710 N.3   215  ASP215     -0.1239
    137  CA        23.0260    4.5340   37.3130 C.3   215  ASP215      0.1674
    138  C         22.8440    3.0320   37.0900 C.2   215  ASP215      0.2266
    139  O         23.4880    2.2110   37.7460 O.2   215  ASP215     -0.2867
    140  CB        24.5090    4.8500   37.5330 C.3   215  ASP215      0.1410
    141  CG        25.3650    4.5120   36.3340 C.2   215  ASP215      0.3668
    142  OD1       24.8290    3.9520   35.3510 O.co2 215  ASP215     -0.2456
    143  OD2       26.5820    4.8090   36.3780 O.co2 215  ASP215     -0.2456
    144  N         23.8060    1.3480   34.6940 N.3   217  GLY217     -0.1210
    145  CA        24.9320    0.7700   33.9700 C.3   217  GLY217      0.1956
    146  C         26.1260    0.4250   34.8460 C.2   217  GLY217      0.2613
    147  O         27.0890   -0.2110   34.3990 O.2   217  GLY217     -0.2717
    148  N         26.0690    0.8520   36.1000 N.am  218  THR218     -0.1938
    149  CA        27.0990    0.5180   37.0760 C.3   218  THR218      0.2028
    150  C         26.5480   -0.5390   38.0240 C.2   218  THR218      0.2643
    151  O         25.4190   -0.4280   38.4910 O.2   218  THR218     -0.2714
    152  CB        27.5090    1.7560   37.9070 C.3   218  THR218      0.1808
    153  OG1       28.1980    2.6960   37.0680 O.3   218  THR218     -0.2208
    154  CG2       28.4200    1.3430   39.0740 C.3   218  THR218      0.0379
    155  N         27.3420   -1.5660   38.3050 N.am  219  THR219     -0.1936
    156  CA        26.8780   -2.6650   39.1450 C.3   219  THR219      0.2028
    157  C         26.7270   -2.2740   40.6110 C.2   219  THR219      0.2642
    158  O         25.6820   -2.5080   41.2200 O.2   219  THR219     -0.2714
    159  CB        27.8430   -3.8610   39.0780 C.3   219  THR219      0.1808
    160  OG1       27.8490   -4.3880   37.7470 O.3   219  THR219     -0.2208
    161  CG2       27.4130   -4.9520   40.0620 C.3   219  THR219      0.0379
    162  N         27.7800   -1.6830   41.1670 N.am  220  ASN220     -0.1971
    163  CA        27.9010   -1.4890   42.6130 C.3   220  ASN220      0.1688
    164  C         27.1970   -0.2370   43.1330 C.2   220  ASN220      0.2292
    165  O         26.8580    0.6700   42.3730 O.2   220  ASN220     -0.2864
    166  CB        29.3790   -1.3980   43.0150 C.3   220  ASN220      0.1181
    167  CG        30.1060   -2.7200   42.8880 C.2   220  ASN220      0.2629
    168  OD1       29.5190   -3.7380   42.5140 O.2   220  ASN220     -0.2716
    169  ND2       31.3960   -2.7120   43.2050 N.am  220  ASN220     -0.0877
    170  N         28.5710    2.7120   44.7290 N.3   222  ARG222     -0.1245
    171  CA        29.9010    3.3070   44.8490 C.3   222  ARG222      0.1563
    172  C         29.8150    4.5660   45.7080 C.2   222  ARG222      0.2260
    173  O         28.9370    5.4050   45.5050 O.2   222  ARG222     -0.2867
    174  CB        30.4490    3.6350   43.4580 C.3   222  ARG222      0.0307
    175  CG        30.4460    2.4290   42.5130 C.3   222  ARG222      0.0489
    176  CD        31.1370    2.7210   41.1870 C.3   222  ARG222      0.2205
    177  NE        32.5390    3.0600   41.3970 N.pl3 222  ARG222     -0.0865
    178  CZ        33.1520    4.0880   40.8210 C.cat 222  ARG222      0.5346
    179  NH1       34.4300    4.3230   41.0860 N.pl3 222  ARG222      0.1354
    180  NH2       32.4940    4.8650   39.9660 N.pl3 222  ARG222      0.1354
    181  N         26.8940   -9.6960   46.1330 N.3   294  ARG294     -0.1245
    182  CA        26.5010  -10.1340   44.7960 C.3   294  ARG294      0.1563
    183  C         26.9850  -11.5580   44.5440 C.2   294  ARG294      0.2260
    184  O         28.1640  -11.8600   44.7160 O.2   294  ARG294     -0.2867
    185  CB        27.0970   -9.1860   43.7440 C.3   294  ARG294      0.0307
    186  CG        26.7430   -9.5350   42.3020 C.3   294  ARG294      0.0489
    187  CD        27.2890   -8.5000   41.3240 C.3   294  ARG294      0.2205
    188  NE        28.7470   -8.5360   41.2250 N.pl3 294  ARG294     -0.0865
    189  CZ        29.4200   -9.4000   40.4700 C.cat 294  ARG294      0.5346
    190  NH1       28.7640  -10.2980   39.7480 N.pl3 294  ARG294      0.1354
    191  NH2       30.7470   -9.3710   40.4390 N.pl3 294  ARG294      0.1354
    192  N         31.6630   -0.2380   46.8290 N.3   312  SER312     -0.1217
    193  CA        33.0500    0.1020   46.5360 C.3   312  SER312      0.1889
    194  C         33.3000    1.6030   46.5360 C.2   312  SER312      0.2288
    195  O         32.3840    2.4020   46.7370 O.2   312  SER312     -0.2866
    196  CB        33.4650   -0.4950   45.1840 C.3   312  SER312      0.2089
    197  OG        32.5900   -0.0860   44.1490 O.3   312  SER312     -0.2183
    198  N         34.4100   10.1690   42.2200 N.3   316  THR316     -0.1218
    199  CA        33.5600   11.1100   41.5000 C.3   316  THR316      0.1862
    200  C         32.1610   11.2270   42.0950 C.2   316  THR316      0.2287
    201  O         31.2490   11.7300   41.4410 O.2   316  THR316     -0.2866
    202  CB        33.4170   10.7170   40.0200 C.3   316  THR316      0.1770
    203  OG1       32.8020    9.4260   39.9280 O.3   316  THR316     -0.2211
    204  CG2       34.7780   10.6810   39.3450 C.3   316  THR316      0.0375
    205  N         27.4700    6.5900   43.3680 N.3   319  VAL319     -0.1245
    206  CA        26.7590    5.9600   42.2670 C.3   319  VAL319      0.1561
    207  C         25.8410    4.8830   42.8280 C.2   319  VAL319      0.2260
    208  O         26.2950    3.8640   43.3540 O.2   319  VAL319     -0.2867
    209  CB        27.7380    5.3250   41.2500 C.3   319  VAL319      0.0252
    210  CG1       26.9630    4.7060   40.0890 C.3   319  VAL319      0.0019
    211  CG2       28.7040    6.3860   40.7280 C.3   319  VAL319      0.0019
@<TRIPOS>BOND
     1   102   101    2
     2    87    88    2
     3    87    86    1
     4    99   100    1
     5    86    85    1
     6    86    89    1
     7   101   100    1
     8    75    73   ar
     9    75    76   ar
    10    73    71   ar
    11   105   103    1
    12   100   103    1
    13    89    90    1
    14   103   104    1
    15    95    97   ar
    16    95    92   ar
    17    76    74   ar
    18    71    70    1
    19    71    72   ar
    20    97    98   ar
    21    70    67    1
    22    18    19    1
    23    49    48    1
    24    92    90   ar
    25    92    94   ar
    26    90    91   ar
    27    74    72   ar
    28   104   106    1
    29    80    79    2
    30    68    67    1
    31    68    69    2
    32    77    78    1
    33    67    66    1
    34    21    20    2
    35    98    96   ar
    36    47    48   ar
    37    47    45   ar
    38    48    46   ar
    39    19    20    1
    40    19    22    1
    41    79    78    1
    42    91    93   ar
    43    94    96   ar
    44    94    93   ar
    45    22    23    1
    46    78    81    1
    47    45    43   ar
    48    46    44   ar
    49    81    82    1
    50    81    83    1
    51    23    25    1
    52    23    24    1
    53    43    44   ar
    54    43    42    1
    55    82    84    1
    56    26    27    1
    57    38    39    1
    58    30    27    1
    59    30    31    1
    60    29    28    2
    61    33    31   ar
    62    27    28    1
    63    42    39    1
    64    31    32   ar
    65    60    59    2
    66    39    40    1
    67    12    11    2
    68     8     7    2
    69    59    58    1
    70    41    40    2
    71    36    37    2
    72    36    35    1
    73    17    16    2
    74    40    50   am
    75    11    13   am
    76    11    10    1
    77    16    15    1
    78     9    10    1
    79     9     6    1
    80     7     6    1
    81     7    14   am
    82    15    14    1
    83    34    35    1
    84    62    61    1
    85    62    63    1
    86    58    57    1
    87    58    61    1
    88    64    63    2
    89     6     5    1
    90    50    51    1
    91   118   117    1
    92    57    52   am
    93   145   144    1
    94   145   146    1
    95   115   117   ar
    96   115   113   ar
    97    63    65   am
    98   117   116   ar
    99   147   146    2
   100    52    53    2
   101    52    51    1
   102   107   108    1
   103   113   112   ar
   104    51    54    1
   105   146   148   am
   106   108   109    1
   107   108   111    1
   108     5     3   am
   109   116   114   ar
   110   142   141   ar
   111   112   114   ar
   112   112   111    1
   113   109   110    2
   114     4     3    2
   115     3     2    1
   116    54    55    1
   117    54    56    1
   118   148   149    1
   119   141   143   ar
   120   141   140    1
   121   153   152    1
   122   149   152    1
   123   149   150    1
   124   138   137    1
   125   138   139    2
   126   137   140    1
   127   137   136    1
   128     2     1    1
   129   160   159    1
   130   152   154    1
   131   150   155   am
   132   150   151    2
   133   135   133    1
   134   155   156    1
   135   126   127    1
   136   126   125    1
   137   159   156    1
   138   159   161    1
   139   156   157    1
   140   125   124    1
   141   134   132    1
   142   204   202    1
   143   132   133    1
   144   132   129    1
   145   190   189    1
   146   203   202    1
   147   180   178    1
   148   202   199    1
   149   210   209    1
   150   191   189    1
   151   189   188    2
   152   157   162   am
   153   157   158    2
   154   124   123    1
   155   129   130    1
   156   129   128    1
   157   211   209    1
   158   130   131    2
   159   178   179    1
   160   178   177    2
   161   162   163    1
   162   176   177    1
   163   176   175    1
   164   188   187    1
   165   209   206    1
   166   187   186    1
   167   123   120    1
   168   201   200    2
   169   199   200    1
   170   199   198    1
   171   206   207    1
   172   206   205    1
   173   186   185    1
   174   165   164    2
   175   175   174    1
   176   168   167    2
   177   163   166    1
   178   163   164    1
   179   207   208    2
   180   120   121    1
   181   120   119    1
   182   167   166    1
   183   167   169   am
   184   121   122    2
   185   174   171    1
   186   185   182    1
   187   197   196    1
   188   183   184    2
   189   183   182    1
   190   170   171    1
   191   182   181    1
   192   171   172    1
   193   196   193    1
   194   173   172    2
   195   194   193    1
   196   194   195    2
   197   193   192    1
