@<TRIPOS>MOLECULE
tmp/2wf7A00.pdb
 164 156 0 0 0
SMALL
GASTEIGER

@<TRIPOS>ATOM
      1  N        -11.5490    3.5240  -11.4010 N.3     8  ASP8       -0.1239
      2  CA       -11.6160    2.0710  -11.2790 C.3     8  ASP8        0.1674
      3  C        -11.8930    1.7370   -9.7980 C.2     8  ASP8        0.2266
      4  O        -11.6500    2.5660   -8.9180 O.2     8  ASP8       -0.2867
      5  CB       -10.2840    1.4740  -11.7440 C.3     8  ASP8        0.1410
      6  CG       -10.2410   -0.0140  -11.6470 C.2     8  ASP8        0.3668
      7  OD1      -11.1660   -0.6680  -12.1920 O.co2   8  ASP8       -0.2456
      8  OD2       -9.2790   -0.5040  -11.0200 O.co2   8  ASP8       -0.2456
      9  N        -11.4560   -2.0270   -8.2260 N.3    10  ASP10      -0.1239
     10  CA       -10.6100   -3.0710   -7.6480 C.3    10  ASP10       0.1674
     11  C         -9.1320   -2.6730   -7.7750 C.2    10  ASP10       0.2266
     12  O         -8.6370   -2.4100   -8.8740 O.2    10  ASP10      -0.2867
     13  CB       -10.9010   -4.4110   -8.3390 C.3    10  ASP10       0.1410
     14  CG       -12.3860   -4.7440   -8.3740 C.2    10  ASP10       0.3668
     15  OD1      -13.0080   -4.7790   -7.2840 O.co2  10  ASP10      -0.2456
     16  OD2      -12.9310   -4.9810   -9.4830 O.co2  10  ASP10      -0.2456
     17  N         -8.6440   -6.3210   -5.9100 N.3    17  ALA17      -0.1245
     18  CA        -7.8560   -6.9870   -6.9550 C.3    17  ALA17       0.1562
     19  C         -7.2220   -8.2650   -6.3890 C.2    17  ALA17       0.2260
     20  O         -7.1590   -9.2880   -7.0730 O.2    17  ALA17      -0.2867
     21  CB        -6.8000   -6.0510   -7.5270 C.3    17  ALA17       0.0290
     22  N        -10.0180  -10.9550   -6.3410 N.3    20  HIS20      -0.1241
     23  CA       -10.2510  -11.4890   -7.6770 C.3    20  HIS20       0.1621
     24  C         -9.1410  -12.4670   -8.0720 C.2    20  HIS20       0.2264
     25  O         -9.4200  -13.5270   -8.6250 O.2    20  HIS20      -0.2867
     26  CB       -10.3490  -10.3650   -8.7040 C.3    20  HIS20       0.0745
     27  CG       -11.6770   -9.6870   -8.7180 C.ar   20  HIS20       0.0817
     28  ND1      -12.8470  -10.3650   -8.9970 N.ar   20  HIS20      -0.2268
     29  CD2      -12.0210   -8.3990   -8.4690 C.ar   20  HIS20       0.1154
     30  CE1      -13.8480   -9.5050   -8.9380 C.ar   20  HIS20       0.1986
     31  NE2      -13.3780   -8.3100   -8.6270 N.ar   20  HIS20      -0.2212
     32  N         -9.8120  -16.3500   -8.9130 N.3    24  TRP24      -0.1241
     33  CA        -9.5250  -16.8640  -10.2600 C.3    24  TRP24       0.1605
     34  C         -8.5030  -17.9770  -10.2150 C.2    24  TRP24       0.2264
     35  O         -8.6120  -18.9450  -10.9570 O.2    24  TRP24      -0.2867
     36  CB        -9.0650  -15.7660  -11.2510 C.3    24  TRP24       0.0550
     37  CG       -10.1540  -14.9760  -11.8260 C.ar   24  TRP24       0.0003
     38  CD1      -10.3190  -13.6190  -11.7810 C.ar   24  TRP24       0.0946
     39  CD2      -11.2540  -15.4860  -12.5730 C.ar   24  TRP24       0.0152
     40  NE1      -11.4630  -13.2540  -12.4280 N.ar   24  TRP24      -0.2442
     41  CE2      -12.0490  -14.3800  -12.9440 C.ar   24  TRP24       0.0810
     42  CE3      -11.6370  -16.7720  -12.9960 C.ar   24  TRP24       0.0012
     43  CZ2      -13.2120  -14.5200  -13.6780 C.ar   24  TRP24       0.0191
     44  CZ3      -12.7950  -16.8990  -13.7350 C.ar   24  TRP24       0.0001
     45  CH2      -13.5650  -15.7860  -14.0670 C.ar   24  TRP24       0.0015
     46  N         -4.9830  -10.2480  -16.2600 N.3    44  LEU44      -0.1231
     47  CA        -6.3740  -10.3880  -15.8410 C.3    44  LEU44       0.1693
     48  C         -6.9410   -9.1320  -15.1810 C.2    44  LEU44       0.2592
     49  O         -8.1440   -8.9400  -15.1840 O.2    44  LEU44      -0.2718
     50  CB        -6.5140  -11.5660  -14.8780 C.3    44  LEU44       0.0284
     51  CG        -6.1100  -12.9440  -15.4030 C.3    44  LEU44       0.0019
     52  CD1       -6.3530  -13.9960  -14.3380 C.3    44  LEU44       0.0001
     53  CD2       -6.8640  -13.3010  -16.6640 C.3    44  LEU44       0.0001
     54  N         -6.0950   -8.2910  -14.5970 N.am   45  LYS45      -0.1966
     55  CA        -6.6080   -7.0790  -13.9660 C.3    45  LYS45       0.1728
     56  C         -7.3240   -6.2350  -15.0190 C.2    45  LYS45       0.2617
     57  O         -6.8520   -6.0780  -16.1440 O.2    45  LYS45      -0.2715
     58  CB        -5.4990   -6.2780  -13.2790 C.3    45  LYS45       0.0311
     59  CG        -4.8600   -6.9780  -12.0880 C.3    45  LYS45       0.0038
     60  CD        -3.7870   -6.1150  -11.4400 C.3    45  LYS45       0.0206
     61  CE        -3.2420   -6.7690  -10.1750 C.3    45  LYS45       0.1093
     62  NZ        -2.0930   -6.0240   -9.6020 N.3    45  LYS45      -0.1314
     63  N         -8.4760   -5.7030  -14.6410 N.am   46  GLY46      -0.1940
     64  CA        -9.2590   -4.8500  -15.5200 C.3    46  GLY46       0.2014
     65  C        -10.1990   -5.5610  -16.4820 C.2    46  GLY46       0.2639
     66  O        -11.1070   -4.9460  -17.0170 O.2    46  GLY46      -0.2714
     67  N         -9.9950   -6.8640  -16.6890 N.am   47  VAL47      -0.1963
     68  CA       -10.6800   -7.6470  -17.7080 C.3    47  VAL47       0.1727
     69  C        -11.9800   -8.1980  -17.1250 C.2    47  VAL47       0.2617
     70  O        -12.0310   -8.5740  -15.9490 O.2    47  VAL47      -0.2715
     71  CB        -9.7290   -8.8060  -18.1610 C.3    47  VAL47       0.0290
     72  CG1      -10.4000   -9.7420  -19.1300 C.3    47  VAL47       0.0023
     73  CG2       -8.4390   -8.2080  -18.7490 C.3    47  VAL47       0.0023
     74  N        -13.0320   -8.2610  -17.9380 N.am   48  SER48      -0.1936
     75  CA       -14.3380   -8.7030  -17.4580 C.3    48  SER48       0.2055
     76  C        -14.3020  -10.1470  -16.9610 C.2    48  SER48       0.2642
     77  O        -13.3410  -10.8760  -17.1970 O.2    48  SER48      -0.2714
     78  CB       -15.3620   -8.6190  -18.5830 C.3    48  SER48       0.2130
     79  OG       -15.1520   -9.6740  -19.5120 O.3    48  SER48      -0.2179
     80  N        -15.3820  -10.5590  -16.3120 N.am   49  ARG49      -0.1977
     81  CA       -15.4610  -11.9010  -15.7490 C.3    49  ARG49       0.1597
     82  C        -15.2900  -12.9690  -16.8430 C.2    49  ARG49       0.2287
     83  O        -14.4600  -13.8650  -16.7180 O.2    49  ARG49      -0.2864
     84  CB       -16.7930  -12.0740  -15.0250 C.3    49  ARG49       0.0334
     85  CG       -16.8680  -13.3360  -14.1800 C.3    49  ARG49       0.0492
     86  CD       -18.2360  -13.5200  -13.5540 C.3    49  ARG49       0.2205
     87  NE       -18.6540  -12.3120  -12.8430 N.pl3  49  ARG49      -0.0865
     88  CZ       -19.8950  -12.0280  -12.4900 C.cat  49  ARG49       0.5346
     89  NH1      -20.8760  -12.9050  -12.6890 N.pl3  49  ARG49       0.1354
     90  NH2      -20.1550  -10.8620  -11.9100 N.pl3  49  ARG49       0.1354
     91  N        -11.8700  -12.8680  -18.4770 N.3    52  SER52      -0.1217
     92  CA       -10.8640  -13.4280  -17.5770 C.3    52  SER52       0.1889
     93  C        -10.8400  -14.9520  -17.6690 C.2    52  SER52       0.2288
     94  O         -9.7810  -15.5670  -17.7910 O.2    52  SER52      -0.2866
     95  CB       -11.1420  -13.0280  -16.1250 C.3    52  SER52       0.2089
     96  OG       -10.9170  -11.6510  -15.8920 O.3    52  SER52      -0.2183
     97  N        -16.8400  -19.0250   -9.7950 N.3    76  LYS76      -0.1231
     98  CA       -15.8810  -18.0250   -9.3520 C.3    76  LYS76       0.1693
     99  C        -16.5890  -16.8230   -8.7270 C.2    76  LYS76       0.2592
    100  O        -16.1690  -16.3390   -7.6710 O.2    76  LYS76      -0.2718
    101  CB       -14.9800  -17.5870  -10.5140 C.3    76  LYS76       0.0285
    102  CG       -13.9680  -16.5190  -10.1010 C.3    76  LYS76       0.0035
    103  CD       -14.4680  -15.0990  -10.3100 C.3    76  LYS76       0.0206
    104  CE       -13.5200  -14.0640   -9.7300 C.3    76  LYS76       0.1093
    105  NZ       -14.0160  -12.7020  -10.0320 N.3    76  LYS76      -0.1314
    106  N        -17.6560  -16.3430   -9.3600 N.am   77  ASN77      -0.1974
    107  CA       -18.3580  -15.1950   -8.8000 C.3    77  ASN77       0.1688
    108  C        -18.9690  -15.5140   -7.4510 C.2    77  ASN77       0.2292
    109  O        -18.8980  -14.6910   -6.5400 O.2    77  ASN77      -0.2864
    110  CB       -19.4360  -14.6640   -9.7350 C.3    77  ASN77       0.1181
    111  CG       -20.0470  -13.3750   -9.2180 C.2    77  ASN77       0.2629
    112  OD1      -19.3410  -12.3870   -8.9740 O.2    77  ASN77      -0.2716
    113  ND2      -21.3550  -13.3830   -9.0270 N.am   77  ASN77      -0.0877
    114  N        -15.9920    1.0830  -13.3570 N.3   114  SER114     -0.1202
    115  CA       -15.5980   -0.2830  -13.0320 C.3   114  SER114      0.2020
    116  C        -16.3060   -1.2950  -13.9220 C.2   114  SER114      0.2619
    117  O        -17.4900   -1.1770  -14.2370 O.2   114  SER114     -0.2717
    118  CB       -15.9150   -0.6100  -11.5740 C.3   114  SER114      0.2103
    119  OG       -15.5490   -1.9490  -11.2240 O.3   114  SER114     -0.2182
    120  N        -15.5630   -2.3290  -14.2840 N.am  115  ALA115     -0.1965
    121  CA       -16.0910   -3.4920  -14.9750 C.3   115  ALA115      0.1728
    122  C        -16.9230   -4.3830  -14.0460 C.2   115  ALA115      0.2617
    123  O        -17.6160   -5.2790  -14.5210 O.2   115  ALA115     -0.2715
    124  CB       -14.9310   -4.3120  -15.5320 C.3   115  ALA115      0.0334
    125  N        -16.8270   -4.1850  -12.7360 N.am  116  SER116     -0.1936
    126  CA       -17.3910   -5.1480  -11.8020 C.3   116  SER116      0.2055
    127  C        -18.8850   -4.9880  -11.6080 C.2   116  SER116      0.2643
    128  O        -19.3620   -3.9270  -11.1940 O.2   116  SER116     -0.2714
    129  CB       -16.6850   -5.0470  -10.4450 C.3   116  SER116      0.2130
    130  OG       -17.2370   -5.9620   -9.5160 O.3   116  SER116     -0.2179
    131  N        -19.6190   -6.0770  -11.8310 N.am  117  LYS117     -0.1963
    132  CA       -21.0380   -6.0870  -11.5410 C.3   117  LYS117      0.1728
    133  C        -21.2970   -6.0450  -10.0340 C.2   117  LYS117      0.2616
    134  O        -22.4010   -5.7110   -9.6050 O.2   117  LYS117     -0.2715
    135  CB       -21.7050   -7.2820  -12.2100 C.3   117  LYS117      0.0311
    136  CG       -21.7610   -7.0960  -13.7340 C.3   117  LYS117      0.0038
    137  CD       -22.2660   -8.3100  -14.4920 C.3   117  LYS117      0.0206
    138  CE       -22.1850   -8.1010  -16.0040 C.3   117  LYS117      0.1093
    139  NZ       -22.4740   -9.3520  -16.7610 N.3   117  LYS117     -0.1314
    140  N        -20.2710   -6.3610   -9.2400 N.am  118  ASN118     -0.1972
    141  CA       -20.3060   -6.2690   -7.7770 C.3   118  ASN118      0.1688
    142  C        -19.9380   -4.8660   -7.2600 C.2   118  ASN118      0.2292
    143  O        -19.8680   -4.6560   -6.0540 O.2   118  ASN118     -0.2864
    144  CB       -19.3810   -7.3360   -7.1850 C.3   118  ASN118      0.1181
    145  CG       -19.9110   -8.7280   -7.4190 C.2   118  ASN118      0.2629
    146  OD1      -20.9730   -9.0700   -6.9020 O.2   118  ASN118     -0.2716
    147  ND2      -19.2000   -9.5290   -8.2170 N.am  118  ASN118     -0.0877
    148  N        -13.0550   -3.2600  -20.9590 N.3   145  LYS145     -0.1245
    149  CA       -11.6080   -2.9180  -20.9570 C.3   145  LYS145      0.1561
    150  C        -10.7820   -4.0170  -21.6450 C.2   145  LYS145      0.2260
    151  O        -11.0210   -5.1890  -21.3730 O.2   145  LYS145     -0.2867
    152  CB       -11.0920   -2.6890  -19.5240 C.3   145  LYS145      0.0271
    153  CG       -11.7610   -1.5520  -18.7650 C.3   145  LYS145      0.0035
    154  CD       -11.3430   -1.4600  -17.2940 C.3   145  LYS145      0.0206
    155  CE       -12.2640   -0.5260  -16.5310 C.3   145  LYS145      0.1093
    156  NZ       -11.8760   -0.3710  -15.1060 N.3   145  LYS145     -0.1314
    157  N         -5.2700    0.6490  -11.7440 N.3   170  ASP170     -0.1239
    158  CA        -4.1730   -0.2110  -11.3100 C.3   170  ASP170      0.1674
    159  C         -3.7980   -1.2750  -12.3460 C.2   170  ASP170      0.2266
    160  O         -2.9550   -2.1180  -12.0460 O.2   170  ASP170     -0.2867
    161  CB        -4.5180   -0.9220   -9.9880 C.3   170  ASP170      0.1410
    162  CG        -5.6250   -1.9480  -10.1490 C.2   170  ASP170      0.3668
    163  OD1       -6.6070   -1.6170  -10.8420 O.co2 170  ASP170     -0.2456
    164  OD2       -5.4970   -3.0880   -9.6340 O.co2 170  ASP170     -0.2456
@<TRIPOS>BOND
     1   150   151    2
     2   150   149    1
     3   148   149    1
     4   149   152    1
     5   152   153    1
     6    79    78    1
     7    72    71    1
     8   153   154    1
     9    73    71    1
    10    78    75    1
    11    91    92    1
    12    71    68    1
    13    74    75    1
    14    74    69   am
    15    94    93    2
    16    68    69    1
    17    68    67    1
    18    93    92    1
    19    92    95    1
    20    75    76    1
    21   154   155    1
    22    77    76    2
    23    69    70    2
    24    66    65    2
    25    76    80   am
    26    82    83    2
    27    82    81    1
    28   139   138    1
    29    67    65   am
    30    53    51    1
    31   155   156    1
    32    65    64    1
    33    80    81    1
    34    46    47    1
    35    57    56    2
    36    95    96    1
    37   138   137    1
    38    47    48    1
    39    47    50    1
    40    81    84    1
    41   124   121    1
    42    64    63    1
    43    51    50    1
    44    51    52    1
    45    49    48    2
    46    48    54   am
    47    84    85    1
    48    56    63   am
    49    56    55    1
    50   121   120    1
    51   121   122    1
    52    54    55    1
    53   123   122    2
    54   137   136    1
    55   120   116   am
    56   117   116    2
    57    85    86    1
    58    45    44   ar
    59    45    43   ar
    60   122   125   am
    61    55    58    1
    62   116   115    1
    63    44    42   ar
    64   136   135    1
    65    43    41   ar
    66    86    87    1
    67   114   115    1
    68    58    59    1
    69   115   118    1
    70    42    39   ar
    71    41    39   ar
    72    41    40   ar
    73    87    88    2
    74   125   126    1
    75    89    88    1
    76    39    37   ar
    77    88    90    1
    78    40    38   ar
    79   159   160    2
    80   159   158    1
    81   135   132    1
    82     7     6   ar
    83    59    60    1
    84   131   127   am
    85   131   132    1
    86    37    38   ar
    87    37    36    1
    88   126   127    1
    89   126   129    1
    90     5     6    1
    91     5     2    1
    92   157   158    1
    93     6     8   ar
    94   127   128    2
    95   118   119    1
    96   132   133    1
    97    60    61    1
    98     1     2    1
    99   158   161    1
   100     2     3    1
   101    36    33    1
   102    35    34    2
   103   163   162   ar
   104   101   102    1
   105   101    98    1
   106   129   130    1
   107   103   102    1
   108   103   104    1
   109    33    34    1
   110    33    32    1
   111    61    62    1
   112   162   161    1
   113   162   164   ar
   114   133   134    2
   115   133   140   am
   116   105   104    1
   117     3     4    2
   118    97    98    1
   119   110   111    1
   120   110   107    1
   121    16    14   ar
   122   106   107    1
   123   106    99   am
   124    98    99    1
   125   140   141    1
   126   111   113   am
   127   111   112    2
   128    28    30   ar
   129    28    27   ar
   130    30    31   ar
   131    12    11    2
   132   107   108    1
   133    99   100    2
   134    27    26    1
   135    27    29   ar
   136    26    23    1
   137    31    29   ar
   138    25    24    2
   139    14    13    1
   140    14    15   ar
   141    13    10    1
   142     9    10    1
   143   147   145   am
   144    24    23    1
   145   141   142    1
   146   141   144    1
   147    11    10    1
   148    23    22    1
   149    21    18    1
   150   108   109    2
   151   145   144    1
   152   145   146    2
   153   142   143    2
   154    20    19    2
   155    18    19    1
   156    18    17    1
