@<TRIPOS>MOLECULE
tmp/2wf9A00.pdb
 175 168 0 0 0
SMALL
GASTEIGER

@<TRIPOS>ATOM
      1  N         -0.3850   25.1170   15.4220 N.3     8  ASP8       -0.1239
      2  CA         0.2040   25.9490   14.3890 C.3     8  ASP8        0.1674
      3  C          1.3590   25.1480   13.7570 C.2     8  ASP8        0.2266
      4  O          1.8630   24.2060   14.3650 O.2     8  ASP8       -0.2867
      5  CB         0.6890   27.2520   15.0130 C.3     8  ASP8        0.1410
      6  CG         1.3560   28.1620   14.0240 C.2     8  ASP8        0.3668
      7  OD1        0.8370   28.3230   12.8940 O.co2   8  ASP8       -0.2456
      8  OD2        2.4070   28.7250   14.3790 O.co2   8  ASP8       -0.2456
      9  N          4.2920   26.7140   11.3800 N.3    10  ASP10      -0.1239
     10  CA         5.5480   27.4610   11.3870 C.3    10  ASP10       0.1674
     11  C          5.8900   27.9450   12.7940 C.2    10  ASP10       0.2266
     12  O          5.1050   28.6490   13.4320 O.2    10  ASP10      -0.2867
     13  CB         5.5030   28.6470   10.4120 C.3    10  ASP10       0.1410
     14  CG         6.7950   29.4580   10.4060 C.2    10  ASP10       0.3668
     15  OD1        7.8960   28.8600   10.4120 O.co2  10  ASP10      -0.2456
     16  OD2        6.7110   30.7030   10.3940 O.co2  10  ASP10      -0.2456
     17  N          9.6260   27.3190    8.6290 N.3    16  THR16      -0.1203
     18  CA         9.4970   27.5580    7.1930 C.3    16  THR16       0.1994
     19  C         10.0370   28.9410    6.8240 C.2    16  THR16       0.2617
     20  O         10.1100   29.2950    5.6440 O.2    16  THR16      -0.2717
     21  CB         8.0150   27.4720    6.7400 C.3    16  THR16       0.1784
     22  OG1        7.2300   28.4450    7.4460 O.3    16  THR16      -0.2211
     23  CG2        7.4450   26.0790    7.0000 C.3    16  THR16       0.0376
     24  N         10.4340   29.7150    7.8330 N.am   17  ALA17      -0.1979
     25  CA        10.7540   31.1370    7.6540 C.3    17  ALA17       0.1597
     26  C         11.8980   31.4630    6.6930 C.2    17  ALA17       0.2287
     27  O         11.8210   32.4530    5.9670 O.2    17  ALA17      -0.2864
     28  CB        11.0140   31.7870    9.0110 C.3    17  ALA17       0.0319
     29  N         10.5200   31.0080    3.1150 N.3    20  HIS20      -0.1241
     30  CA         9.6410   32.1370    2.8150 C.3    20  HIS20       0.1621
     31  C         10.4430   33.4090    2.5560 C.2    20  HIS20       0.2264
     32  O         10.1320   34.1630    1.6350 O.2    20  HIS20      -0.2867
     33  CB         8.6420   32.3800    3.9510 C.3    20  HIS20       0.0745
     34  CG         7.4790   31.4360    3.9480 C.ar   20  HIS20       0.0817
     35  ND1        6.6060   31.3370    2.8870 N.ar   20  HIS20      -0.2268
     36  CD2        7.0370   30.5590    4.8810 C.ar   20  HIS20       0.1154
     37  CE1        5.6790   30.4380    3.1620 C.ar   20  HIS20       0.1986
     38  NE2        5.9170   29.9500    4.3660 N.ar   20  HIS20      -0.2212
     39  N         10.3160   35.5800   -0.8690 N.3    24  TRP24      -0.1241
     40  CA         9.8290   36.9690   -0.8720 C.3    24  TRP24       0.1605
     41  C         10.9140   37.9510   -1.3220 C.2    24  TRP24       0.2264
     42  O         10.6270   38.9070   -2.0390 O.2    24  TRP24      -0.2867
     43  CB         9.3090   37.3990    0.5050 C.3    24  TRP24       0.0550
     44  CG         7.9550   36.8560    0.8890 C.ar   24  TRP24       0.0003
     45  CD1        7.6500   36.1520    2.0170 C.ar   24  TRP24       0.0946
     46  CD2        6.7240   37.0090    0.1670 C.ar   24  TRP24       0.0152
     47  NE1        6.3120   35.8470    2.0400 N.ar   24  TRP24      -0.2442
     48  CE2        5.7190   36.3510    0.9120 C.ar   24  TRP24       0.0810
     49  CE3        6.3740   37.6200   -1.0450 C.ar   24  TRP24       0.0012
     50  CZ2        4.3900   36.2970    0.4930 C.ar   24  TRP24       0.0191
     51  CZ3        5.0500   37.5600   -1.4640 C.ar   24  TRP24       0.0001
     52  CH2        4.0750   36.9010   -0.6960 C.ar   24  TRP24       0.0015
     53  N          6.6370   39.5580    8.7610 N.3    44  LEU44      -0.1231
     54  CA         5.8800   38.6010    7.9470 C.3    44  LEU44       0.1693
     55  C          5.6760   37.2480    8.6420 C.2    44  LEU44       0.2592
     56  O          4.9910   36.3730    8.1100 O.2    44  LEU44      -0.2718
     57  CB         6.5900   38.3810    6.6070 C.3    44  LEU44       0.0284
     58  CG         6.9200   39.6350    5.7920 C.3    44  LEU44       0.0019
     59  CD1        7.7170   39.2690    4.5480 C.3    44  LEU44       0.0001
     60  CD2        5.6530   40.3890    5.4180 C.3    44  LEU44       0.0001
     61  N          6.2700   37.0820    9.8240 N.am   45  LYS45      -0.1966
     62  CA         6.1930   35.8300   10.5790 C.3    45  LYS45       0.1728
     63  C          4.7580   35.5350   11.0180 C.2    45  LYS45       0.2617
     64  O          4.1490   36.3170   11.7490 O.2    45  LYS45      -0.2715
     65  CB         7.1110   35.9070   11.8020 C.3    45  LYS45       0.0311
     66  CG         7.2220   34.6230   12.6150 C.3    45  LYS45       0.0038
     67  CD         8.2990   34.7650   13.6830 C.3    45  LYS45       0.0206
     68  CE         8.2780   33.6080   14.6610 C.3    45  LYS45       0.1093
     69  NZ         9.2830   33.7740   15.7480 N.3    45  LYS45      -0.1314
     70  N          4.2220   34.4050   10.5600 N.am   46  GLY46      -0.1940
     71  CA         2.8490   34.0130   10.8790 C.3    46  GLY46       0.2014
     72  C          1.7820   34.7080   10.0460 C.2    46  GLY46       0.2639
     73  O          0.5950   34.4180   10.1950 O.2    46  GLY46      -0.2714
     74  N          2.1990   35.6090    9.1550 N.am   47  VAL47      -0.1963
     75  CA         1.2760   36.4080    8.3480 C.3    47  VAL47       0.1727
     76  C          0.9050   35.6640    7.0660 C.2    47  VAL47       0.2617
     77  O          1.7230   34.9320    6.5100 O.2    47  VAL47      -0.2715
     78  CB         1.9050   37.7760    7.9910 C.3    47  VAL47       0.0290
     79  CG1        0.9640   38.6090    7.1350 C.3    47  VAL47       0.0023
     80  CG2        2.2820   38.5290    9.2630 C.3    47  VAL47       0.0023
     81  N         -0.3280   35.8580    6.5990 N.am   48  SER48      -0.1936
     82  CA        -0.8120   35.1880    5.3910 C.3    48  SER48       0.2055
     83  C         -0.0170   35.6270    4.1620 C.2    48  SER48       0.2642
     84  O          0.6570   36.6580    4.1810 O.2    48  SER48      -0.2714
     85  CB        -2.3030   35.4670    5.1670 C.3    48  SER48       0.2130
     86  OG        -2.5120   36.7690    4.6390 O.3    48  SER48      -0.2179
     87  N         -0.1070   34.8320    3.1010 N.am   49  ARG49      -0.1977
     88  CA         0.6000   35.1120    1.8470 C.3    49  ARG49       0.1597
     89  C          0.2060   36.4710    1.2730 C.2    49  ARG49       0.2287
     90  O          1.0610   37.2540    0.8550 O.2    49  ARG49      -0.2864
     91  CB         0.2980   34.0160    0.8230 C.3    49  ARG49       0.0334
     92  CG         1.1990   34.0370   -0.4100 C.3    49  ARG49       0.0492
     93  CD         0.8010   32.9550   -1.4090 C.3    49  ARG49       0.2205
     94  NE         0.7150   31.6420   -0.7740 N.pl3  49  ARG49      -0.0865
     95  CZ         0.2150   30.5490   -1.3450 C.cat  49  ARG49       0.5346
     96  NH1       -0.2520   30.5750   -2.5890 N.pl3  49  ARG49       0.1354
     97  NH2        0.1770   29.4130   -0.6580 N.pl3  49  ARG49       0.1354
     98  N          1.2670   39.3610    3.4910 N.3    52  SER52      -0.1217
     99  CA         2.7180   39.5000    3.3540 C.3    52  SER52       0.1889
    100  C          3.0820   40.2810    2.0880 C.2    52  SER52       0.2288
    101  O          3.9030   41.1970    2.1360 O.2    52  SER52      -0.2866
    102  CB         3.3990   38.1260    3.3320 C.3    52  SER52       0.2089
    103  OG         3.3460   37.5010    4.6070 O.3    52  SER52      -0.2183
    104  N          5.7920   33.9660   -6.2300 N.3    76  LYS76      -0.1231
    105  CA         6.5060   33.6890   -4.9870 C.3    76  LYS76       0.1693
    106  C          6.1920   32.2900   -4.4700 C.2    76  LYS76       0.2592
    107  O          7.0950   31.5630   -4.0600 O.2    76  LYS76      -0.2718
    108  CB         6.1750   34.7270   -3.9150 C.3    76  LYS76       0.0285
    109  CG         6.8420   34.4540   -2.5600 C.3    76  LYS76       0.0035
    110  CD         5.9200   33.7020   -1.6020 C.3    76  LYS76       0.0206
    111  CE         6.6630   33.2660   -0.3520 C.3    76  LYS76       0.1093
    112  NZ         5.7430   32.6150    0.6160 N.3    76  LYS76      -0.1314
    113  N          4.9180   31.9070   -4.4740 N.am   77  ASN77      -0.1974
    114  CA         4.5550   30.5810   -3.9860 C.3    77  ASN77       0.1688
    115  C          5.1830   29.4670   -4.8160 C.2    77  ASN77       0.2292
    116  O          5.6390   28.4620   -4.2670 O.2    77  ASN77      -0.2864
    117  CB         3.0440   30.3880   -3.9390 C.3    77  ASN77       0.1181
    118  CG         2.6640   29.0620   -3.3200 C.2    77  ASN77       0.2629
    119  OD1        3.0030   28.7890   -2.1690 O.2    77  ASN77      -0.2716
    120  ND2        1.9900   28.2190   -4.0880 N.am   77  ASN77      -0.0877
    121  N          8.6670   29.1710   -3.6540 N.3    80  TYR80      -0.1241
    122  CA         8.6470   28.5920   -2.3070 C.3    80  TYR80       0.1605
    123  C          8.4470   27.0770   -2.3610 C.2    80  TYR80       0.2264
    124  O          9.1620   26.3220   -1.6960 O.2    80  TYR80      -0.2867
    125  CB         7.5500   29.2560   -1.4580 C.3    80  TYR80       0.0534
    126  CG         7.3350   28.6070   -0.1090 C.ar   80  TYR80      -0.0201
    127  CD1        8.2100   28.8390    0.9460 C.ar   80  TYR80      -0.0009
    128  CD2        6.2620   27.7490    0.1080 C.ar   80  TYR80      -0.0009
    129  CE1        8.0220   28.2350    2.1760 C.ar   80  TYR80       0.0417
    130  CE2        6.0640   27.1440    1.3380 C.ar   80  TYR80       0.0417
    131  CZ         6.9450   27.3900    2.3650 C.ar   80  TYR80       0.1957
    132  OH         6.7310   26.7790    3.5740 O.3    80  TYR80      -0.2866
    133  N         -2.8230   26.0950   10.8380 N.3   114  SER114     -0.1202
    134  CA        -1.7730   26.9130   10.2390 C.3   114  SER114      0.2020
    135  C         -2.3440   27.8560    9.1920 C.2   114  SER114      0.2619
    136  O         -3.3110   27.5210    8.5170 O.2   114  SER114     -0.2717
    137  CB        -0.7350   26.0050    9.5730 C.3   114  SER114      0.2103
    138  OG         0.2020   26.7460    8.8060 O.3   114  SER114     -0.2182
    139  N         -1.7210   29.0230    9.0500 N.am  115  ALA115     -0.1965
    140  CA        -2.0400   29.9610    7.9750 C.3   115  ALA115      0.1728
    141  C         -1.5360   29.4800    6.6070 C.2   115  ALA115      0.2617
    142  O         -1.9490   30.0090    5.5720 O.2   115  ALA115     -0.2715
    143  CB        -1.4510   31.3280    8.2900 C.3   115  ALA115      0.0334
    144  N         -0.6310   28.4990    6.6050 N.am  116  SER116     -0.1936
    145  CA        -0.0110   28.0160    5.3740 C.3   116  SER116      0.2055
    146  C         -0.9320   27.1250    4.5530 C.2   116  SER116      0.2643
    147  O         -1.4020   26.0910    5.0270 O.2   116  SER116     -0.2714
    148  CB         1.2690   27.2400    5.6850 C.3   116  SER116      0.2130
    149  OG         1.8510   26.7410    4.4860 O.3   116  SER116     -0.2179
    150  N         -1.1610   27.5170    3.3040 N.am  117  LYS117     -0.1963
    151  CA        -1.8820   26.6730    2.3590 C.3   117  LYS117      0.1728
    152  C         -1.0070   25.5040    1.8780 C.2   117  LYS117      0.2616
    153  O         -1.4970   24.5880    1.2210 O.2   117  LYS117     -0.2715
    154  CB        -2.3800   27.5100    1.1750 C.3   117  LYS117      0.0311
    155  CG        -3.4310   28.5590    1.5570 C.3   117  LYS117      0.0038
    156  CD        -3.8540   29.4110    0.3610 C.3   117  LYS117      0.0206
    157  CE        -2.9980   30.6630    0.2160 C.3   117  LYS117      0.1093
    158  NZ        -3.4440   31.7580    1.1270 N.3   117  LYS117     -0.1314
    159  N          0.2800   25.5370    2.2210 N.am  118  ASN118     -0.1972
    160  CA         1.2030   24.4370    1.9360 C.3   118  ASN118      0.1688
    161  C          1.3360   23.4420    3.0970 C.2   118  ASN118      0.2292
    162  O          2.1940   22.5610    3.0740 O.2   118  ASN118     -0.2864
    163  CB         2.5760   25.0050    1.5690 C.3   118  ASN118      0.1181
    164  CG         2.5670   25.7170    0.2330 C.2   118  ASN118      0.2629
    165  OD1        2.7320   26.9410    0.1550 O.2   118  ASN118     -0.2716
    166  ND2        2.3550   24.9550   -0.8290 N.am  118  ASN118     -0.0877
    167  N         -5.4850   35.1260   11.4180 N.3   145  LYS145     -0.1245
    168  CA        -5.1380   35.4060   12.8160 C.3   145  LYS145      0.1561
    169  C         -4.8170   36.9140   12.9170 C.2   145  LYS145      0.2260
    170  O         -4.1690   37.4570   12.0180 O.2   145  LYS145     -0.2867
    171  CB        -3.9330   34.5620   13.2520 C.3   145  LYS145      0.0271
    172  CG        -4.1730   33.0410   13.2140 C.3   145  LYS145      0.0035
    173  CD        -2.8550   32.2570   13.1980 C.3   145  LYS145      0.0206
    174  CE        -3.0700   30.7890   12.8400 C.3   145  LYS145      0.1093
    175  NZ        -1.8240   29.9560   12.9420 N.3   145  LYS145     -0.1314
@<TRIPOS>BOND
     1   104   105    1
     2   105   106    1
     3   105   108    1
     4   115   116    2
     5   115   114    1
     6   113   106   am
     7   113   114    1
     8   106   107    2
     9   120   118   am
    10   114   117    1
    11   117   118    1
    12   108   109    1
    13   121   122    1
    14   118   119    2
    15    96    95    1
    16   109   110    1
    17   123   122    1
    18   123   124    2
    19   122   125    1
    20    42    41    2
    21   110   111    1
    22    51    49   ar
    23    51    52   ar
    24   125   126    1
    25    93    94    1
    26    93    92    1
    27    95    94    2
    28    95    97    1
    29    41    40    1
    30    49    46   ar
    31    40    39    1
    32    40    43    1
    33   166   164   am
    34    52    50   ar
    35    92    91    1
    36   111   112    1
    37   126   128   ar
    38   126   127   ar
    39   128   130   ar
    40   165   164    2
    41    46    44   ar
    42    46    48   ar
    43   157   156    1
    44   157   158    1
    45   164   163    1
    46   156   155    1
    47    50    48   ar
    48    43    44    1
    49    91    88    1
    50    90    89    2
    51    44    45   ar
    52    48    47   ar
    53   127   129   ar
    54   154   155    1
    55   154   151    1
    56   153   152    2
    57    89    88    1
    58   130   131   ar
    59   163   160    1
    60    32    31    2
    61    88    87    1
    62   152   159   am
    63   152   151    1
    64   160   159    1
    65   160   161    1
    66    45    47   ar
    67   100   101    2
    68   100    99    1
    69   129   131   ar
    70   151   150    1
    71   131   132    1
    72    31    30    1
    73    30    29    1
    74    30    33    1
    75    35    37   ar
    76    35    34   ar
    77   162   161    2
    78    87    83   am
    79    37    38   ar
    80   150   146   am
    81   102    99    1
    82   102   103    1
    83    99    98    1
    84    34    33    1
    85    34    36   ar
    86    83    84    2
    87    83    82    1
    88    38    36   ar
    89   149   148    1
    90    59    58    1
    91   146   147    2
    92   146   145    1
    93    86    85    1
    94    85    82    1
    95   145   148    1
    96   145   144    1
    97    82    81    1
    98    60    58    1
    99   142   141    2
   100    20    19    2
   101    58    57    1
   102    27    26    2
   103    77    76    2
   104    81    76   am
   105   144   141   am
   106   141   140    1
   107    57    54    1
   108    26    25    1
   109    21    23    1
   110    21    18    1
   111    21    22    1
   112    19    18    1
   113    19    24   am
   114    76    75    1
   115    79    78    1
   116    18    17    1
   117    25    24    1
   118    25    28    1
   119    54    55    1
   120    54    53    1
   121   140   143    1
   122   140   139    1
   123    78    75    1
   124    78    80    1
   125    56    55    2
   126    75    74    1
   127   136   135    2
   128    55    61   am
   129   138   137    1
   130   139   135   am
   131    74    72   am
   132   135   134    1
   133   137   134    1
   134    61    62    1
   135    72    73    2
   136    72    71    1
   137   134   133    1
   138    16    14   ar
   139    14    15   ar
   140    14    13    1
   141    13    10    1
   142    70    71    1
   143    70    63   am
   144    62    63    1
   145    62    65    1
   146    63    64    2
   147     9    10    1
   148    10    11    1
   149   167   168    1
   150    65    66    1
   151   170   169    2
   152    66    67    1
   153    11    12    2
   154   168   169    1
   155   168   171    1
   156   174   175    1
   157   174   173    1
   158     7     6   ar
   159   173   172    1
   160   172   171    1
   161    67    68    1
   162     3     4    2
   163     3     2    1
   164     6     8   ar
   165     6     5    1
   166     2     5    1
   167     2     1    1
   168    68    69    1
