@<TRIPOS>MOLECULE
tmp/2wfjA00.pdb
 168 162 0 0 0
SMALL
GASTEIGER

@<TRIPOS>ATOM
      1  N         22.9150   64.9410   17.1240 N.3    61  HIS61      -0.1226
      2  CA        22.2440   66.1920   16.9540 C.3    61  HIS61       0.1752
      3  C         20.7270   66.0740   16.8980 C.2    61  HIS61       0.2595
      4  O         20.0590   67.1200   16.8800 O.2    61  HIS61      -0.2718
      5  CB        22.7400   66.9350   15.7040 C.3    61  HIS61       0.0759
      6  CG        22.3320   66.2470   14.4400 C.ar   61  HIS61       0.0818
      7  ND1       23.0910   65.2200   13.9050 N.ar   61  HIS61      -0.2268
      8  CD2       21.2050   66.4270   13.6840 C.ar   61  HIS61       0.1154
      9  CE1       22.4020   64.8280   12.8390 C.ar   61  HIS61       0.1986
     10  NE2       21.2890   65.5100   12.6720 N.ar   61  HIS61      -0.2212
     11  N         20.1560   64.8810   16.8450 N.am   62  ARG62      -0.1980
     12  CA        18.7110   64.7640   16.7110 C.3    62  ARG62       0.1597
     13  C         18.2620   63.5140   17.4800 C.2    62  ARG62       0.2287
     14  O         18.7890   62.4310   17.2680 O.2    62  ARG62      -0.2864
     15  CB        18.2810   64.7260   15.2490 C.3    62  ARG62       0.0334
     16  CG        16.7850   64.5420   15.0410 C.3    62  ARG62       0.0492
     17  CD        16.3490   64.9500   13.6390 C.3    62  ARG62       0.2205
     18  NE        14.9680   64.5700   13.3950 N.pl3  62  ARG62      -0.0865
     19  CZ        14.6010   63.4400   12.8450 C.cat  62  ARG62       0.5346
     20  NH1       13.3120   63.1610   12.6820 N.pl3  62  ARG62       0.1354
     21  NH2       15.4980   62.5130   12.4600 N.pl3  62  ARG62       0.1354
     22  N         14.6300   61.5780   19.0110 N.3    64  VAL64      -0.1245
     23  CA        13.1840   61.4920   19.0610 C.3    64  VAL64       0.1561
     24  C         12.8270   60.2680   19.9000 C.2    64  VAL64       0.2260
     25  O         13.0490   59.1170   19.4870 O.2    64  VAL64      -0.2867
     26  CB        12.5420   61.4270   17.6700 C.3    64  VAL64       0.0252
     27  CG1       11.0040   61.3180   17.8280 C.3    64  VAL64       0.0019
     28  CG2       12.9270   62.6320   16.8350 C.3    64  VAL64       0.0019
     29  N         11.1650   57.1680   21.4900 N.3    66  ASP66      -0.1225
     30  CA        10.3750   56.1040   20.9400 C.3    66  ASP66       0.1805
     31  C         10.5570   55.9770   19.4210 C.2    66  ASP66       0.2598
     32  O          9.7710   55.3060   18.7590 O.2    66  ASP66      -0.2718
     33  CB         8.8750   56.1830   21.2880 C.3    66  ASP66       0.1424
     34  CG         8.6100   56.0520   22.7680 C.2    66  ASP66       0.3668
     35  OD1        9.3330   55.3470   23.4660 O.co2  66  ASP66      -0.2456
     36  OD2        7.6520   56.7010   23.2320 O.co2  66  ASP66      -0.2456
     37  N         11.6330   56.5540   18.8780 N.am   67  PHE67      -0.1962
     38  CA        11.9260   56.4640   17.4600 C.3    67  PHE67       0.1771
     39  C         13.4250   56.1190   17.2590 C.2    67  PHE67       0.2619
     40  O         13.7470   54.9870   16.9110 O.2    67  PHE67      -0.2715
     41  CB        11.4610   57.7340   16.7430 C.3    67  PHE67       0.0574
     42  CG        11.7780   57.8000   15.2700 C.ar   67  PHE67      -0.0200
     43  CD1       11.9120   56.6920   14.4720 C.ar   67  PHE67      -0.0042
     44  CD2       11.9730   59.0300   14.6470 C.ar   67  PHE67      -0.0042
     45  CE1       12.2390   56.7950   13.1480 C.ar   67  PHE67      -0.0003
     46  CE2       12.2810   59.1440   13.3260 C.ar   67  PHE67      -0.0003
     47  CZ        12.4200   58.0240   12.5460 C.ar   67  PHE67      -0.0000
     48  N         14.3020   57.1160   17.4070 N.am   68  MET68      -0.1977
     49  CA        15.7170   56.8880   17.1380 C.3    68  MET68       0.1605
     50  C         16.5360   58.0460   17.7160 C.2    68  MET68       0.2287
     51  O         16.0060   59.0790   18.1250 O.2    68  MET68      -0.2864
     52  CB        15.9570   56.6940   15.6270 C.3    68  MET68       0.0413
     53  CG        15.5460   57.8140   14.7260 C.3    68  MET68       0.0598
     54  SD        16.6930   59.2370   14.7010 S.3    68  MET68      -0.1393
     55  CE        15.5850   60.5290   15.3200 C.3    68  MET68       0.0692
     56  N         20.1440   60.1590   16.3710 N.3    70  GLN70      -0.1245
     57  CA        20.8580   60.4090   15.1110 C.3    70  GLN70       0.1566
     58  C         22.0970   61.2610   15.3770 C.2    70  GLN70       0.2260
     59  O         22.0680   62.2300   16.1340 O.2    70  GLN70      -0.2867
     60  CB        19.9070   61.1450   14.1480 C.3    70  GLN70       0.0367
     61  CG        20.5390   61.5820   12.8370 C.3    70  GLN70       0.0905
     62  CD        19.5620   62.3400   11.9370 C.2    70  GLN70       0.2608
     63  OE1       18.4020   62.5230   12.2890 O.2    70  GLN70      -0.2717
     64  NE2       20.0500   62.7460   10.7860 N.am   70  GLN70      -0.0878
     65  N         24.5140   69.5390   12.8250 N.3    78  ASN78      -0.1225
     66  CA        23.1040   69.8860   12.8540 C.3    78  ASN78       0.1785
     67  C         22.2430   69.1290   11.8470 C.2    78  ASN78       0.2598
     68  O         21.0480   69.3800   11.7900 O.2    78  ASN78      -0.2718
     69  CB        22.9030   71.3910   12.7150 C.3    78  ASN78       0.1169
     70  CG        23.4220   71.9080   11.3930 C.2    78  ASN78       0.2627
     71  OD1       23.6650   71.1680   10.4310 O.2    78  ASN78      -0.2716
     72  ND2       23.6310   73.2280   11.3550 N.am   78  ASN78      -0.0877
     73  N         22.8320   68.1800   11.1060 N.am   79  GLY79      -0.1942
     74  CA        22.1420   67.4280   10.0920 C.3    79  GLY79       0.2014
     75  C         22.3820   67.8870    8.6770 C.2    79  GLY79       0.2638
     76  O         22.1190   67.1190    7.7490 O.2    79  GLY79      -0.2714
     77  N         22.8670   69.1160    8.4890 N.am   80  ARG80      -0.1977
     78  CA        23.0880   69.5990    7.1490 C.3    80  ARG80       0.1597
     79  C         24.3900   69.1180    6.5350 C.2    80  ARG80       0.2287
     80  O         24.5120   69.0580    5.3280 O.2    80  ARG80      -0.2864
     81  CB        23.0770   71.1450    7.1770 C.3    80  ARG80       0.0334
     82  CG        21.7100   71.6780    7.5530 C.3    80  ARG80       0.0492
     83  CD        21.7610   73.1740    7.4280 C.3    80  ARG80       0.2205
     84  NE        20.5640   73.7160    8.0450 N.pl3  80  ARG80      -0.0865
     85  CZ        20.5060   74.8580    8.7120 C.cat  80  ARG80       0.5346
     86  NH1       21.5270   75.6790    8.8850 N.pl3  80  ARG80       0.1354
     87  NH2       19.3850   75.2830    9.2590 N.pl3  80  ARG80       0.1354
     88  N         21.3610   57.4840    8.0100 N.3   108  ALA108     -0.1231
     89  CA        20.5480   58.6330    7.6630 C.3   108  ALA108      0.1694
     90  C         20.9170   59.0630    6.2450 C.2   108  ALA108      0.2592
     91  O         22.0060   58.7660    5.7710 O.2   108  ALA108     -0.2718
     92  CB        20.8210   59.7820    8.6310 C.3   108  ALA108      0.0304
     93  N         20.0120   59.7700    5.5430 N.am  109  ASN109     -0.1960
     94  CA        20.3560   60.2410    4.2120 C.3   109  ASN109      0.1819
     95  C         19.4630   61.4100    3.8340 C.2   109  ASN109      0.2621
     96  O         18.7270   61.9350    4.6760 O.2   109  ASN109     -0.2715
     97  CB        20.3150   59.0500    3.2160 C.3   109  ASN109      0.1195
     98  CG        18.9300   58.4650    3.1170 C.2   109  ASN109      0.2630
     99  OD1       17.9550   59.2030    2.9810 O.2   109  ASN109     -0.2716
    100  ND2       18.8510   57.1550    3.1720 N.am  109  ASN109     -0.0877
    101  N         19.5870   61.8710    2.5990 N.am  110  ARG110     -0.1963
    102  CA        18.7390   62.9280    2.0690 C.3   110  ARG110      0.1729
    103  C         18.1270   62.5000    0.7680 C.2   110  ARG110      0.2616
    104  O         17.9820   63.2970   -0.1590 O.2   110  ARG110     -0.2715
    105  CB        19.4980   64.2810    2.0390 C.3   110  ARG110      0.0348
    106  CG        20.8050   64.3350    1.2500 C.3   110  ARG110      0.0492
    107  CD        21.6950   65.4960    1.7380 C.3   110  ARG110      0.2205
    108  NE        22.6320   65.0920    2.8400 N.pl3 110  ARG110     -0.0865
    109  CZ        23.3070   65.9080    3.6120 C.cat 110  ARG110      0.5346
    110  NH1       24.1570   65.3000    4.4930 N.pl3 110  ARG110      0.1354
    111  NH2       23.2100   67.2710    3.5550 N.pl3 110  ARG110      0.1354
    112  N         17.6960   61.2320    0.7400 N.am  111  GLY111     -0.1955
    113  CA        17.1310   60.6390   -0.4480 C.3   111  GLY111      0.1869
    114  C         17.9230   59.4660   -0.9670 C.2   111  GLY111      0.2309
    115  O         18.9160   59.0240   -0.3510 O.2   111  GLY111     -0.2863
    116  N         26.2150   60.3660    8.3630 N.3   118  GLN118     -0.1245
    117  CA        25.2030   60.3960    9.4100 C.3   118  GLN118      0.1566
    118  C         24.5040   59.0450    9.5240 C.2   118  GLN118      0.2260
    119  O         24.1780   58.3860    8.5380 O.2   118  GLN118     -0.2867
    120  CB        24.1900   61.5050    9.1600 C.3   118  GLN118      0.0367
    121  CG        24.8030   62.8760    9.3370 C.3   118  GLN118      0.0905
    122  CD        23.7370   63.9570    9.1730 C.2   118  GLN118      0.2608
    123  OE1       22.7050   63.9250    9.8490 O.2   118  GLN118     -0.2717
    124  NE2       23.9690   64.8920    8.2600 N.am  118  GLN118     -0.0878
    125  N         21.7910   56.5900   12.3940 N.3   120  PHE120     -0.1241
    126  CA        20.8740   56.5830   13.5220 C.3   120  PHE120      0.1605
    127  C         20.8950   55.1930   14.1600 C.2   120  PHE120      0.2264
    128  O         21.2360   54.2020   13.5390 O.2   120  PHE120     -0.2867
    129  CB        19.4430   57.0310   13.1440 C.3   120  PHE120      0.0534
    130  CG        18.7310   56.1640   12.1190 C.ar  120  PHE120     -0.0203
    131  CD1       19.0270   56.2800   10.7560 C.ar  120  PHE120     -0.0042
    132  CD2       17.7400   55.2860   12.5010 C.ar  120  PHE120     -0.0042
    133  CE1       18.3340   55.5430    9.8230 C.ar  120  PHE120     -0.0003
    134  CE2       17.0230   54.5560   11.5490 C.ar  120  PHE120     -0.0003
    135  CZ        17.3060   54.6850   10.2210 C.ar  120  PHE120     -0.0000
    136  N          8.9380   51.2410    8.4630 N.3   128  HIS128     -0.1226
    137  CA         8.6690   52.0840    7.3320 C.3   128  HIS128      0.1752
    138  C          9.9370   52.6120    6.6620 C.2   128  HIS128      0.2595
    139  O          9.8830   53.1160    5.5340 O.2   128  HIS128     -0.2718
    140  CB         7.7840   53.2740    7.7380 C.3   128  HIS128      0.0759
    141  CG         8.4000   54.1210    8.8120 C.ar  128  HIS128      0.0818
    142  ND1        8.5210   53.7040   10.0990 N.ar  128  HIS128     -0.2268
    143  CD2        8.9680   55.3630    8.6570 C.ar  128  HIS128      0.1154
    144  CE1        9.1440   54.6720   10.7560 C.ar  128  HIS128      0.1986
    145  NE2        9.4270   55.6890    9.9080 N.ar  128  HIS128     -0.2212
    146  N         11.0740   52.5290    7.3690 N.am  129  LEU129     -0.1980
    147  CA        12.3490   52.9580    6.7870 C.3   129  LEU129      0.1596
    148  C         12.9960   51.8820    5.9190 C.2   129  LEU129      0.2287
    149  O         13.9850   52.1760    5.2270 O.2   129  LEU129     -0.2864
    150  CB        13.3000   53.4020    7.9090 C.3   129  LEU129      0.0297
    151  CG        12.7410   54.5580    8.7490 C.3   129  LEU129      0.0022
    152  CD1       13.7640   54.9410    9.8010 C.3   129  LEU129      0.0001
    153  CD2       12.3580   55.7580    7.9010 C.3   129  LEU129      0.0001
    154  N         16.5640   53.4150    4.0420 N.3   133  HIS133     -0.1241
    155  CA        17.7800   53.5740    4.8360 C.3   133  HIS133      0.1621
    156  C         18.4390   52.2080    4.9590 C.2   133  HIS133      0.2264
    157  O         17.7600   51.2200    5.2030 O.2   133  HIS133     -0.2867
    158  CB        17.4300   54.1160    6.2470 C.3   133  HIS133      0.0745
    159  CG        16.7910   55.4500    6.1160 C.ar  133  HIS133      0.0817
    160  ND1       17.5190   56.6040    6.0630 N.ar  133  HIS133     -0.2268
    161  CD2       15.5190   55.8260    5.8270 C.ar  133  HIS133      0.1154
    162  CE1       16.6680   57.6240    5.7460 C.ar  133  HIS133      0.1986
    163  NE2       15.4490   57.1620    5.6150 N.ar  133  HIS133     -0.2212
    164  N         14.1830   71.7250   16.9230 N.3   157  ALA157     -0.1245
    165  CA        14.7340   70.8880   15.8750 C.3   157  ALA157      0.1562
    166  C         15.0300   69.4970   16.3800 C.2   157  ALA157      0.2260
    167  O         15.7310   68.7350   15.6780 O.2   157  ALA157     -0.2867
    168  CB        15.9600   71.5260   15.2860 C.3   157  ALA157      0.0290
@<TRIPOS>BOND
     1   114   113    1
     2   114   115    2
     3   113   112    1
     4   104   103    2
     5   112   103   am
     6   103   102    1
     7   106   107    1
     8   106   105    1
     9   107   108    1
    10   105   102    1
    11   102   101    1
    12   101    95   am
    13   108   109    2
    14    99    98    2
    15    98   100   am
    16    98    97    1
    17    97    94    1
    18   111   109    1
    19   109   110    1
    20    95    94    1
    21    95    96    2
    22   154   155    1
    23    94    93    1
    24   155   156    1
    25   155   158    1
    26   156   157    2
    27   149   148    2
    28    80    79    2
    29   139   138    2
    30    93    90   am
    31   163   162   ar
    32   163   161   ar
    33   162   160   ar
    34    91    90    2
    35   161   159   ar
    36   148   147    1
    37   160   159   ar
    38   159   158    1
    39    90    89    1
    40    79    78    1
    41   138   137    1
    42   138   146   am
    43   147   146    1
    44   147   150    1
    45    78    81    1
    46    78    77    1
    47    81    82    1
    48   137   140    1
    49   137   136    1
    50    83    82    1
    51    83    84    1
    52    89    88    1
    53    89    92    1
    54   140   141    1
    55    76    75    2
    56   153   151    1
    57   150   151    1
    58    84    85    2
    59   124   122   am
    60   116   117    1
    61    77    75   am
    62   119   118    2
    63   143   141   ar
    64   143   145   ar
    65    75    74    1
    66    85    86    1
    67    85    87    1
    68   151   152    1
    69   141   142   ar
    70   120   121    1
    71   120   117    1
    72   122   121    1
    73   122   123    2
    74   117   118    1
    75   133   135   ar
    76   133   131   ar
    77   145   144   ar
    78    74    73    1
    79   142   144   ar
    80   135   134   ar
    81    71    70    2
    82   131   130   ar
    83    64    62   am
    84    73    67   am
    85    72    70   am
    86    70    69    1
    87   134   132   ar
    88    68    67    2
    89    67    66    1
    90    62    63    2
    91    62    61    1
    92   130   132   ar
    93   130   129    1
    94   125   126    1
    95    21    19    1
    96    47    45   ar
    97    47    46   ar
    98    10     9   ar
    99    10     8   ar
   100    20    19    1
   101    69    66    1
   102    65    66    1
   103    61    60    1
   104     9     7   ar
   105    19    18    2
   106   129   126    1
   107    45    43   ar
   108    46    44   ar
   109    18    17    1
   110   126   127    1
   111   128   127    2
   112    17    16    1
   113     8     6   ar
   114     7     6   ar
   115    60    57    1
   116     6     5    1
   117    43    42   ar
   118    44    42   ar
   119    54    53    1
   120    54    55    1
   121    53    52    1
   122    16    15    1
   123    57    58    1
   124    57    56    1
   125    15    12    1
   126    42    41    1
   127   168   165    1
   128    58    59    2
   129    52    49    1
   130   167   166    2
   131     5     2    1
   132   165   166    1
   133   165   164    1
   134    12    11    1
   135    12    13    1
   136    41    38    1
   137    28    26    1
   138    11     3   am
   139     4     3    2
   140     3     2    1
   141    40    39    2
   142     2     1    1
   143    49    48    1
   144    49    50    1
   145    39    48   am
   146    39    38    1
   147    14    13    2
   148    38    37    1
   149    26    27    1
   150    26    23    1
   151    50    51    2
   152    32    31    2
   153    37    31   am
   154    22    23    1
   155    23    24    1
   156    31    30    1
   157    25    24    2
   158    30    33    1
   159    30    29    1
   160    33    34    1
   161    34    36   ar
   162    34    35   ar
