@<TRIPOS>MOLECULE
tmp/2wfoA01.pdb
 114 105 0 0 0
SMALL
GASTEIGER

@<TRIPOS>ATOM
      1  N         21.8140   35.2930   -0.2330 N.3    30  SER30      -0.1217
      2  CA        22.7220   36.3410   -0.7220 C.3    30  SER30       0.1889
      3  C         21.9450   37.3370   -1.5460 C.2    30  SER30       0.2288
      4  O         21.0340   36.9490   -2.2690 O.2    30  SER30      -0.2866
      5  CB        23.8050   35.7620   -1.6150 C.3    30  SER30       0.2089
      6  OG        24.6350   36.8220   -2.1140 O.3    30  SER30      -0.2183
      7  N         23.9850   39.5180   -3.3300 N.3    32  LEU32      -0.1231
      8  CA        25.0310   39.8360   -4.2990 C.3    32  LEU32       0.1693
      9  C         24.8230   39.0360   -5.5950 C.2    32  LEU32       0.2592
     10  O         24.1240   37.9900   -5.5900 O.2    32  LEU32      -0.2718
     11  CB        26.4460   39.5950   -3.7170 C.3    32  LEU32       0.0284
     12  CG        26.8550   40.4360   -2.4950 C.3    32  LEU32       0.0019
     13  CD1       28.3350   40.1650   -2.1120 C.3    32  LEU32       0.0001
     14  CD2       26.6130   41.9690   -2.6940 C.3    32  LEU32       0.0001
     15  N         25.3820   39.5520   -6.6980 N.am   33  MET33      -0.1965
     16  CA        25.2020   38.9620   -8.0180 C.3    33  MET33       0.1736
     17  C         26.4920   39.1400   -8.8160 C.2    33  MET33       0.2616
     18  O         27.0260   40.2550   -8.9430 O.2    33  MET33      -0.2715
     19  CB        23.9900   39.6580   -8.6910 C.3    33  MET33       0.0427
     20  CG        23.7600   39.4360  -10.1840 C.3    33  MET33       0.0599
     21  SD        23.6810   37.6990  -10.6010 S.3    33  MET33      -0.1393
     22  CE        22.6060   37.0560   -9.3810 C.3    33  MET33       0.0692
     23  N         27.0080   38.0360   -9.3460 N.am   34  LYS34      -0.1977
     24  CA        28.1710   38.0900  -10.2250 C.3    34  LYS34       0.1596
     25  C         27.8730   38.9180  -11.4700 C.2    34  LYS34       0.2287
     26  O         26.7770   38.8470  -12.0240 O.2    34  LYS34      -0.2864
     27  CB        28.5830   36.6870  -10.6910 C.3    34  LYS34       0.0298
     28  CG        29.3210   35.8570   -9.6720 C.3    34  LYS34       0.0038
     29  CD        30.2470   34.8560  -10.4170 C.3    34  LYS34       0.0206
     30  CE        30.0740   33.4180   -9.9520 C.3    34  LYS34       0.1093
     31  NZ        30.4210   32.4450  -11.0520 N.3    34  LYS34      -0.1314
     32  N         32.8090   37.5440   -3.9290 N.3    77  LEU77      -0.1245
     33  CA        32.0290   38.6630   -4.4520 C.3    77  LEU77       0.1561
     34  C         31.9460   39.6710   -3.3360 C.2    77  LEU77       0.2260
     35  O         31.8590   39.2840   -2.1630 O.2    77  LEU77      -0.2867
     36  CB        30.6120   38.2300   -4.8290 C.3    77  LEU77       0.0270
     37  CG        30.4080   37.4430   -6.1070 C.3    77  LEU77       0.0019
     38  CD1       28.9090   37.0760   -6.2740 C.3    77  LEU77       0.0001
     39  CD2       30.9050   38.2590   -7.3130 C.3    77  LEU77       0.0001
     40  N         31.6700   38.0690    0.3200 N.3    90  GLN90      -0.1245
     41  CA        30.9750   36.7850    0.3500 C.3    90  GLN90       0.1566
     42  C         31.7370   35.6200   -0.3080 C.2    90  GLN90       0.2260
     43  O         32.2010   35.7570   -1.4460 O.2    90  GLN90      -0.2867
     44  CB        29.6380   36.9780   -0.3490 C.3    90  GLN90       0.0367
     45  CG        28.7170   35.7950   -0.2970 C.3    90  GLN90       0.0905
     46  CD        27.3910   36.1340   -0.9250 C.2    90  GLN90       0.2608
     47  OE1       26.4130   36.4020   -0.2250 O.2    90  GLN90      -0.2717
     48  NE2       27.3590   36.1850   -2.2430 N.am   90  GLN90      -0.0878
     49  N         31.0200   31.8040   -1.5460 N.3    92  ASN92      -0.1240
     50  CA        29.9000   30.9080   -1.8720 C.3    92  ASN92       0.1653
     51  C         30.2930   29.4770   -1.5420 C.2    92  ASN92       0.2266
     52  O         31.1310   28.9100   -2.2320 O.2    92  ASN92      -0.2867
     53  CB        29.5810   31.0270   -3.3470 C.3    92  ASN92       0.1155
     54  CG        28.2890   30.3630   -3.7230 C.2    92  ASN92       0.2627
     55  OD1       27.7850   29.4730   -3.0350 O.2    92  ASN92      -0.2716
     56  ND2       27.7370   30.8020   -4.8430 N.am   92  ASN92      -0.0877
     57  N         28.0390   26.8530   -1.2950 N.3    94  SER94      -0.1217
     58  CA        26.8630   26.0440   -1.5920 C.3    94  SER94       0.1889
     59  C         27.2320   24.5730   -1.8720 C.2    94  SER94       0.2288
     60  O         28.2090   24.2850   -2.5750 O.2    94  SER94      -0.2866
     61  CB        26.1160   26.5880   -2.8210 C.3    94  SER94       0.2089
     62  OG        25.7740   27.9520   -2.6620 O.3    94  SER94      -0.2183
     63  N         26.4160   22.4120   -4.0700 N.3    96  ALA96      -0.1245
     64  CA        25.8640   22.2890   -5.4040 C.3    96  ALA96       0.1562
     65  C         27.0850   22.0810   -6.2780 C.2    96  ALA96       0.2260
     66  O         28.2020   22.4760   -5.8980 O.2    96  ALA96      -0.2867
     67  CB        25.1020   23.5360   -5.7710 C.3    96  ALA96       0.0290
     68  N         28.8210   22.9580   -8.8740 N.3    98  GLU98      -0.1231
     69  CA        29.8100   23.9670   -9.2790 C.3    98  GLU98       0.1699
     70  C         30.7020   24.4630   -8.1210 C.2    98  GLU98       0.2592
     71  O         31.9060   24.7080   -8.3030 O.2    98  GLU98      -0.2718
     72  CB        29.0830   25.1600   -9.9140 C.3    98  GLU98       0.0402
     73  CG        29.9720   26.2390  -10.5120 C.3    98  GLU98       0.1161
     74  CD        29.1670   27.3620  -11.1880 C.2    98  GLU98       0.3649
     75  OE1       28.3180   28.0030  -10.5170 O.co2  98  GLU98      -0.2457
     76  OE2       29.3830   27.6070  -12.3970 O.co2  98  GLU98      -0.2457
     77  N         30.1130   24.6260   -6.9320 N.am   99  SER99      -0.1952
     78  CA        30.8640   25.1200   -5.7630 C.3    99  SER99       0.1924
     79  C         31.0900   24.0350   -4.7000 C.2    99  SER99       0.2314
     80  O         31.5460   24.3400   -3.5990 O.2    99  SER99      -0.2863
     81  CB        30.1250   26.3080   -5.1520 C.3    99  SER99       0.2116
     82  OG        28.7960   25.9290   -4.8780 O.3    99  SER99      -0.2180
     83  N         22.0570   20.8080   -2.3290 N.3   124  GLY124     -0.1210
     84  CA        21.3840   21.3590   -3.4890 C.3   124  GLY124      0.1956
     85  C         20.7810   22.7360   -3.2810 C.2   124  GLY124      0.2612
     86  O         19.9410   23.1630   -4.0730 O.2   124  GLY124     -0.2717
     87  N         21.1980   23.4260   -2.2160 N.am  125  LYS125     -0.1965
     88  CA        20.7060   24.7540   -1.8890 C.3   125  LYS125      0.1728
     89  C         21.9120   25.6820   -1.8010 C.2   125  LYS125      0.2616
     90  O         23.0520   25.2100   -1.8100 O.2   125  LYS125     -0.2715
     91  CB        19.9810   24.7210   -0.5530 C.3   125  LYS125      0.0311
     92  CG        18.8330   23.6980   -0.4940 C.3   125  LYS125      0.0038
     93  CD        17.7200   24.0450   -1.4860 C.3   125  LYS125      0.0206
     94  CE        16.4670   23.1760   -1.2620 C.3   125  LYS125      0.1093
     95  NZ        15.9510   23.3660    0.1220 N.3   125  LYS125     -0.1314
     96  N         21.6610   26.9880   -1.6710 N.am  126  VAL126     -0.1977
     97  CA        22.7540   27.9460   -1.5640 C.3   126  VAL126      0.1596
     98  C         23.1970   28.0850   -0.1120 C.2   126  VAL126      0.2287
     99  O         22.4180   27.8730    0.8210 O.2   126  VAL126     -0.2864
    100  CB        22.4110   29.3410   -2.1890 C.3   126  VAL126      0.0276
    101  CG1       22.1130   29.2100   -3.6700 C.3   126  VAL126      0.0022
    102  CG2       21.2810   30.0400   -1.4110 C.3   126  VAL126      0.0022
    103  N         26.3750   30.5250    2.1970 N.3   128  TYR128     -0.1241
    104  CA        27.3770   31.5750    2.1350 C.3   128  TYR128      0.1605
    105  C         28.0530   31.8570    3.4600 C.2   128  TYR128      0.2264
    106  O         27.4640   31.6660    4.5480 O.2   128  TYR128     -0.2867
    107  CB        26.7360   32.8860    1.6470 C.3   128  TYR128      0.0534
    108  CG        26.0060   32.7380    0.3510 C.ar  128  TYR128     -0.0201
    109  CD1       26.6790   32.8440   -0.8620 C.ar  128  TYR128     -0.0009
    110  CD2       24.6300   32.4940    0.3320 C.ar  128  TYR128     -0.0009
    111  CE1       26.0080   32.6980   -2.0700 C.ar  128  TYR128      0.0417
    112  CE2       23.9510   32.3320   -0.8540 C.ar  128  TYR128      0.0417
    113  CZ        24.6390   32.4450   -2.0620 C.ar  128  TYR128      0.1957
    114  OH        23.9800   32.3000   -3.2620 O.3   128  TYR128     -0.2866
@<TRIPOS>BOND
     1    76    74   ar
     2    26    25    2
     3    25    24    1
     4    74    75   ar
     5    74    73    1
     6    31    30    1
     7    27    24    1
     8    27    28    1
     9    21    20    1
    10    21    22    1
    11    73    72    1
    12    29    30    1
    13    29    28    1
    14    24    23    1
    15    20    19    1
    16    72    69    1
    17    23    17   am
    18    69    68    1
    19    69    70    1
    20    18    17    2
    21    17    16    1
    22    19    16    1
    23    71    70    2
    24    70    77   am
    25    16    15    1
    26    39    37    1
    27    77    78    1
    28    15     9   am
    29    65    66    2
    30    65    64    1
    31    38    37    1
    32    37    36    1
    33    67    64    1
    34    78    81    1
    35    78    79    1
    36     9    10    2
    37     9     8    1
    38    64    63    1
    39    81    82    1
    40    56    54   am
    41    36    33    1
    42    79    80    2
    43    33    32    1
    44    33    34    1
    45     8    11    1
    46     8     7    1
    47    86    85    2
    48    54    53    1
    49    54    55    2
    50    11    12    1
    51   101   100    1
    52    84    85    1
    53    84    83    1
    54    53    50    1
    55    34    35    2
    56    85    87   am
    57   114   113    1
    58    61    62    1
    59    61    58    1
    60    14    12    1
    61    60    59    2
    62    12    13    1
    63     4     3    2
    64    48    46   am
    65    52    51    2
    66    87    88    1
    67   100    97    1
    68   100   102    1
    69     6     5    1
    70   111   113   ar
    71   111   109   ar
    72   113   112   ar
    73    88    89    1
    74    88    91    1
    75    59    58    1
    76    50    49    1
    77    50    51    1
    78    90    89    2
    79    89    96   am
    80    96    97    1
    81     5     2    1
    82    58    57    1
    83    97    98    1
    84     3     2    1
    85    93    94    1
    86    93    92    1
    87    43    42    2
    88    94    95    1
    89    46    45    1
    90    46    47    2
    91   109   108   ar
    92   112   110   ar
    93     2     1    1
    94    91    92    1
    95    44    45    1
    96    44    41    1
    97    42    41    1
    98    98    99    2
    99    40    41    1
   100   110   108   ar
   101   108   107    1
   102   107   104    1
   103   104   103    1
   104   104   105    1
   105   105   106    2
