@<TRIPOS>MOLECULE
tmp/2wfzA00.pdb
 148 149 0 0 0
SMALL
GASTEIGER

@<TRIPOS>ATOM
      1  N         -0.2430   73.4790   65.4460 N.3    81  TRP81      -0.1241
      2  CA        -0.3920   72.2240   64.7140 C.3    81  TRP81       0.1605
      3  C         -1.8110   71.6740   64.7760 C.2    81  TRP81       0.2264
      4  O         -2.1520   70.7590   64.0200 O.2    81  TRP81      -0.2867
      5  CB         0.6060   71.1600   65.2150 C.3    81  TRP81       0.0550
      6  CG         2.0350   71.6210   65.1630 C.ar   81  TRP81       0.0003
      7  CD1        2.8360   71.9280   66.2270 C.ar   81  TRP81       0.0946
      8  CD2        2.8320   71.8370   63.9850 C.ar   81  TRP81       0.0152
      9  NE1        4.0830   72.3170   65.7880 N.ar   81  TRP81      -0.2442
     10  CE2        4.1100   72.2640   64.4180 C.ar   81  TRP81       0.0810
     11  CE3        2.5950   71.6930   62.6040 C.ar   81  TRP81       0.0012
     12  CZ2        5.1520   72.5560   63.5220 C.ar   81  TRP81       0.0191
     13  CZ3        3.6270   71.9840   61.7150 C.ar   81  TRP81       0.0001
     14  CH2        4.8900   72.4140   62.1780 C.ar   81  TRP81       0.0015
     15  N          1.8410   66.8030   57.2230 N.3   114  GLY114     -0.1210
     16  CA         2.2180   65.6950   58.1270 C.3   114  GLY114      0.1956
     17  C          1.2880   65.6610   59.3290 C.2   114  GLY114      0.2612
     18  O          0.2330   66.3010   59.3160 O.2   114  GLY114     -0.2717
     19  N          1.6960   64.9350   60.3660 N.am  115  GLY115     -0.1942
     20  CA         0.8680   64.7130   61.5560 C.3   115  GLY115      0.2014
     21  C          0.7770   63.2510   61.9260 C.2   115  GLY115      0.2639
     22  O         -0.2110   62.8220   62.5070 O.2   115  GLY115     -0.2714
     23  N          1.8020   62.4820   61.5780 N.am  116  GLY116     -0.1954
     24  CA         1.8990   61.0590   61.9630 C.3   116  GLY116      0.1869
     25  C          0.7740   60.1660   61.4700 C.2   116  GLY116      0.2309
     26  O          0.5200   59.1040   62.0490 O.2   116  GLY116     -0.2863
     27  N         -2.1860   60.6120   61.9900 N.3   118  TYR118     -0.1227
     28  CA        -3.3180   60.6550   62.9390 C.3   118  TYR118      0.1736
     29  C         -3.8970   62.0630   63.0550 C.2   118  TYR118      0.2596
     30  O         -4.9210   62.2750   63.7110 O.2   118  TYR118     -0.2718
     31  CB        -2.9070   60.1320   64.3320 C.3   118  TYR118      0.0548
     32  CG        -1.9460   61.0370   65.0900 C.ar  118  TYR118     -0.0200
     33  CD1       -2.4220   62.0900   65.8990 C.ar  118  TYR118     -0.0009
     34  CD2       -0.5690   60.8470   64.9980 C.ar  118  TYR118     -0.0009
     35  CE1       -1.5270   62.9450   66.5860 C.ar  118  TYR118      0.0417
     36  CE2        0.3270   61.6850   65.6870 C.ar  118  TYR118      0.0417
     37  CZ        -0.1660   62.7200   66.4790 C.ar  118  TYR118      0.1957
     38  OH         0.7220   63.5460   67.1580 O.3   118  TYR118     -0.2866
     39  N         -3.2300   63.0310   62.4260 N.am  119  SER119     -0.1952
     40  CA        -3.6490   64.4160   62.5380 C.3   119  SER119      0.1924
     41  C         -3.1230   65.2090   61.3550 C.2   119  SER119      0.2314
     42  O         -2.3650   64.6750   60.5320 O.2   119  SER119     -0.2863
     43  CB        -3.0880   65.0140   63.8440 C.3   119  SER119      0.2116
     44  OG        -1.6690   65.0620   63.8090 O.3   119  SER119     -0.2180
     45  N          1.0970   76.7360   56.8640 N.3   127  TYR127     -0.1241
     46  CA         0.9840   76.1970   55.4780 C.3   127  TYR127      0.1605
     47  C          0.3200   77.1990   54.5090 C.2   127  TYR127      0.2264
     48  O         -0.1050   76.8310   53.4040 O.2   127  TYR127     -0.2867
     49  CB         0.1590   74.9010   55.4520 C.3   127  TYR127      0.0534
     50  CG         0.6290   73.7690   56.3560 C.ar  127  TYR127     -0.0201
     51  CD1        1.9660   73.6370   56.7250 C.ar  127  TYR127     -0.0009
     52  CD2       -0.2740   72.8160   56.8060 C.ar  127  TYR127     -0.0009
     53  CE1        2.3880   72.5790   57.5470 C.ar  127  TYR127      0.0417
     54  CE2        0.1300   71.7640   57.6360 C.ar  127  TYR127      0.0417
     55  CZ         1.4610   71.6500   57.9950 C.ar  127  TYR127      0.1957
     56  OH         1.8590   70.6000   58.8150 O.3   127  TYR127     -0.2866
     57  N          5.9640   67.1500   54.6530 N.3   196  GLU196     -0.1231
     58  CA         6.8530   67.0120   55.7950 C.3   196  GLU196      0.1699
     59  C          6.3640   65.9010   56.7360 C.2   196  GLU196      0.2593
     60  O          5.1530   65.7480   56.9410 O.2   196  GLU196     -0.2718
     61  CB         7.0010   68.3560   56.5130 C.3   196  GLU196      0.0402
     62  CG         8.0220   68.3340   57.6840 C.3   196  GLU196      0.1161
     63  CD         7.3820   67.9620   59.0270 C.2   196  GLU196      0.3649
     64  OE1        6.1430   67.8510   59.0890 O.co2 196  GLU196     -0.2457
     65  OE2        8.1200   67.7740   60.0260 O.co2 196  GLU196     -0.2457
     66  N          7.3150   65.1360   57.2800 N.am  197  SER197     -0.1938
     67  CA         7.0500   64.0740   58.2720 C.3   197  SER197      0.2055
     68  C          6.1380   63.0140   57.6300 C.2   197  SER197      0.2642
     69  O          6.5560   62.4100   56.6260 O.2   197  SER197     -0.2714
     70  CB         6.5060   64.6850   59.5880 C.3   197  SER197      0.2130
     71  OG         6.4850   63.7680   60.6690 O.3   197  SER197     -0.2179
     72  N          4.9290   62.7720   58.1510 N.am  198  ALA198     -0.1977
     73  CA         4.0080   61.8630   57.4380 C.3   198  ALA198      0.1597
     74  C          3.7040   62.3000   55.9930 C.2   198  ALA198      0.2287
     75  O          3.4240   61.4490   55.1400 O.2   198  ALA198     -0.2864
     76  CB         2.6960   61.6440   58.2050 C.3   198  ALA198      0.0319
     77  N          7.5930   54.0030   61.7620 N.3   230  TRP230     -0.1241
     78  CA         6.2460   54.3840   62.1760 C.3   230  TRP230      0.1605
     79  C          5.2620   54.5400   60.9980 C.2   230  TRP230      0.2264
     80  O          4.0540   54.7090   61.2160 O.2   230  TRP230     -0.2867
     81  CB         6.3040   55.7280   62.9290 C.3   230  TRP230      0.0550
     82  CG         7.0900   56.7640   62.1920 C.ar  230  TRP230      0.0003
     83  CD1        8.4350   56.9880   62.2980 C.ar  230  TRP230      0.0946
     84  CD2        6.6020   57.6950   61.2070 C.ar  230  TRP230      0.0152
     85  NE1        8.8120   58.0030   61.4560 N.ar  230  TRP230     -0.2442
     86  CE2        7.7100   58.4510   60.7690 C.ar  230  TRP230      0.0810
     87  CE3        5.3340   57.9570   60.6530 C.ar  230  TRP230      0.0012
     88  CZ2        7.6020   59.4700   59.8100 C.ar  230  TRP230      0.0191
     89  CZ3        5.2210   58.9700   59.6800 C.ar  230  TRP230      0.0001
     90  CH2        6.3530   59.7250   59.2820 C.ar  230  TRP230      0.0015
     91  N          6.8190   57.7700   69.2140 N.3   285  PHE285     -0.1241
     92  CA         6.9630   57.8330   67.7380 C.3   285  PHE285      0.1605
     93  C          6.3530   56.5870   67.0680 C.2   285  PHE285      0.2264
     94  O          6.9210   56.0260   66.1260 O.2   285  PHE285     -0.2867
     95  CB         8.4350   58.0130   67.3250 C.3   285  PHE285      0.0534
     96  CG         8.6490   59.0300   66.2040 C.ar  285  PHE285     -0.0203
     97  CD1        7.8450   59.0190   65.0440 C.ar  285  PHE285     -0.0042
     98  CD2        9.6510   59.9800   66.3060 C.ar  285  PHE285     -0.0042
     99  CE1        8.0370   59.9560   64.0190 C.ar  285  PHE285     -0.0003
    100  CE2        9.8710   60.9170   65.2780 C.ar  285  PHE285     -0.0003
    101  CZ         9.0550   60.9050   64.1280 C.ar  285  PHE285     -0.0000
    102  N          2.2870   55.3490   65.8620 N.3   287  PHE287     -0.1241
    103  CA         0.9240   55.8330   65.6890 C.3   287  PHE287      0.1605
    104  C          0.0180   54.6680   65.2700 C.2   287  PHE287      0.2264
    105  O          0.4490   53.7170   64.6080 O.2   287  PHE287     -0.2867
    106  CB         0.9000   56.9910   64.6730 C.3   287  PHE287      0.0534
    107  CG         2.0860   57.9330   64.8080 C.ar  287  PHE287     -0.0203
    108  CD1        2.2420   58.7230   65.9530 C.ar  287  PHE287     -0.0042
    109  CD2        3.0610   57.9890   63.8220 C.ar  287  PHE287     -0.0042
    110  CE1        3.3430   59.5760   66.0910 C.ar  287  PHE287     -0.0003
    111  CE2        4.1620   58.8330   63.9370 C.ar  287  PHE287     -0.0003
    112  CZ         4.3080   59.6360   65.0830 C.ar  287  PHE287     -0.0000
    113  N         10.7680   66.5380   70.0400 N.3   327  PHE327     -0.1227
    114  CA         9.3140   66.6980   70.1610 C.3   327  PHE327      0.1736
    115  C          8.6670   65.5090   70.8780 C.2   327  PHE327      0.2595
    116  O          7.8260   65.6830   71.7830 O.2   327  PHE327     -0.2718
    117  CB         8.6510   66.8480   68.7700 C.3   327  PHE327      0.0547
    118  CG         7.6820   68.0070   68.6550 C.ar  327  PHE327     -0.0202
    119  CD1        6.9030   68.4100   69.7300 C.ar  327  PHE327     -0.0042
    120  CD2        7.5400   68.6790   67.4370 C.ar  327  PHE327     -0.0042
    121  CE1        6.0160   69.4710   69.6170 C.ar  327  PHE327     -0.0003
    122  CE2        6.6550   69.7540   67.3000 C.ar  327  PHE327     -0.0003
    123  CZ         5.8870   70.1510   68.4000 C.ar  327  PHE327     -0.0000
    124  N          9.0370   64.3040   70.4430 N.am  328  PHE328     -0.1976
    125  CA         8.4040   63.0660   70.9050 C.3   328  PHE328      0.1639
    126  C          8.8770   62.6440   72.2910 C.2   328  PHE328      0.2290
    127  O          8.1080   62.0750   73.0620 O.2   328  PHE328     -0.2864
    128  CB         8.6010   61.9500   69.8600 C.3   328  PHE328      0.0560
    129  CG         8.0890   62.3530   68.4970 C.ar  328  PHE328     -0.0200
    130  CD1        8.8870   63.1180   67.6390 C.ar  328  PHE328     -0.0042
    131  CD2        6.7830   62.0880   68.1350 C.ar  328  PHE328     -0.0042
    132  CE1        8.3910   63.5490   66.3940 C.ar  328  PHE328     -0.0003
    133  CE2        6.2780   62.5100   66.8830 C.ar  328  PHE328     -0.0003
    134  CZ         7.0800   63.2310   66.0270 C.ar  328  PHE328     -0.0000
    135  N         11.7000   68.9160   64.8300 N.3   437  HIS437     -0.1226
    136  CA        10.7900   68.2990   63.8770 C.3   437  HIS437      0.1752
    137  C          9.6780   69.2780   63.4960 C.2   437  HIS437      0.2596
    138  O          8.8670   69.6560   64.3390 O.2   437  HIS437     -0.2718
    139  CB        10.1780   67.0550   64.5330 C.3   437  HIS437      0.0759
    140  CG         9.5070   66.1290   63.5740 C.ar  437  HIS437      0.0818
    141  ND1       10.1880   65.4880   62.5570 N.ar  437  HIS437     -0.2268
    142  CD2        8.2250   65.7040   63.4950 C.ar  437  HIS437      0.1154
    143  CE1        9.3520   64.7080   61.8930 C.ar  437  HIS437      0.1986
    144  NE2        8.1550   64.8230   62.4420 N.ar  437  HIS437     -0.2212
    145  N          9.6620   69.7090   62.2390 N.am  438  GLY438     -0.1957
    146  CA         8.5870   70.5570   61.7390 C.3   438  GLY438      0.1869
    147  C          8.9520   72.0190   61.6060 C.2   438  GLY438      0.2309
    148  O          8.1980   72.7930   61.0250 O.2   438  GLY438     -0.2863
@<TRIPOS>BOND
     1    48    47    2
     2    47    46    1
     3    57    58    1
     4    75    74    2
     5    49    46    1
     6    49    50    1
     7    46    45    1
     8    58    61    1
     9    58    59    1
    10    74    73    1
    11    50    51   ar
    12    50    52   ar
    13    61    62    1
    14    69    68    2
    15    51    53   ar
    16    59    60    2
    17    59    66   am
    18    52    54   ar
    19    15    16    1
    20    66    67    1
    21    73    72    1
    22    73    76    1
    23    53    55   ar
    24    68    72   am
    25    68    67    1
    26    54    55   ar
    27    62    63    1
    28    55    56    1
    29    16    17    1
    30    67    70    1
    31    63    64   ar
    32    63    65   ar
    33    90    89   ar
    34    90    88   ar
    35    18    17    2
    36    17    19   am
    37    70    71    1
    38    89    87   ar
    39    88    86   ar
    40    19    20    1
    41    42    41    2
    42    87    84   ar
    43    86    84   ar
    44    86    85   ar
    45    79    80    2
    46    79    78    1
    47   148   147    2
    48    84    82   ar
    49    41    40    1
    50    85    83   ar
    51    25    24    1
    52    25    26    2
    53    20    21    1
    54    23    21   am
    55    23    24    1
    56   147   146    1
    57    13    14   ar
    58    13    11   ar
    59   146   145    1
    60    77    78    1
    61   143   144   ar
    62   143   141   ar
    63    21    22    2
    64    27    28    1
    65    78    81    1
    66    14    12   ar
    67    82    83   ar
    68    82    81    1
    69   145   137   am
    70    39    40    1
    71    39    29   am
    72   144   142   ar
    73    40    43    1
    74   141   140   ar
    75    11     8   ar
    76    28    29    1
    77    28    31    1
    78    29    30    2
    79   142   140   ar
    80   137   136    1
    81   137   138    2
    82    12    10   ar
    83   140   139    1
    84    44    43    1
    85   109   111   ar
    86   109   107   ar
    87   136   139    1
    88   136   135    1
    89   111   112   ar
    90     8    10   ar
    91     8     6   ar
    92    99   101   ar
    93    99    97   ar
    94     4     3    2
    95   101   100   ar
    96    31    32    1
    97    10     9   ar
    98   105   104    2
    99   106   107    1
   100   106   103    1
   101     2     3    1
   102     2     5    1
   103     2     1    1
   104   107   108   ar
   105    34    32   ar
   106    34    36   ar
   107    97    96   ar
   108   112   110   ar
   109    32    33   ar
   110     6     5    1
   111     6     7   ar
   112   104   103    1
   113   100    98   ar
   114    36    37   ar
   115   103   102    1
   116     9     7   ar
   117    33    35   ar
   118   108   110   ar
   119   134   132   ar
   120   134   133   ar
   121    94    93    2
   122    96    98   ar
   123    96    95    1
   124   132   130   ar
   125    37    35   ar
   126    37    38    1
   127   133   131   ar
   128    93    92    1
   129   122   120   ar
   130   122   123   ar
   131    95    92    1
   132   120   118   ar
   133   130   129   ar
   134    92    91    1
   135   131   129   ar
   136   123   121   ar
   137   129   128    1
   138   118   117    1
   139   118   119   ar
   140   117   114    1
   141   121   119   ar
   142   128   125    1
   143   113   114    1
   144   114   115    1
   145   124   115   am
   146   124   125    1
   147   115   116    2
   148   125   126    1
   149   126   127    2
