@<TRIPOS>MOLECULE
tmp/2wfzA01.pdb
 85 87 0 0 0
SMALL
GASTEIGER

@<TRIPOS>ATOM
      1  N         -1.9650   69.0540   75.4500 N.3    71  GLN71      -0.1231
      2  CA        -0.8830   68.9190   76.4160 C.3    71  GLN71       0.1698
      3  C         -0.4310   70.2710   76.9880 C.2    71  GLN71       0.2592
      4  O         -0.0980   70.3610   78.1600 O.2    71  GLN71      -0.2718
      5  CB         0.2850   68.1260   75.7990 C.3    71  GLN71       0.0381
      6  CG         1.5100   67.9560   76.6930 C.3    71  GLN71       0.0905
      7  CD         1.2440   67.1170   77.9400 C.2    71  GLN71       0.2608
      8  OE1        0.8410   65.9600   77.8520 O.2    71  GLN71      -0.2717
      9  NE2        1.4700   67.7080   79.1090 N.am   71  GLN71      -0.0878
     10  N         -0.4490   71.3210   76.1720 N.am   72  PHE72      -0.1976
     11  CA        -0.1290   72.6700   76.6400 C.3    72  PHE72       0.1639
     12  C         -1.1820   73.7050   76.2080 C.2    72  PHE72       0.2290
     13  O         -0.9490   74.4760   75.2660 O.2    72  PHE72      -0.2864
     14  CB         1.2650   73.0980   76.1580 C.3    72  PHE72       0.0560
     15  CG         2.3480   72.0840   76.4220 C.ar   72  PHE72      -0.0200
     16  CD1        2.8750   71.9120   77.7090 C.ar   72  PHE72      -0.0042
     17  CD2        2.8730   71.3260   75.3720 C.ar   72  PHE72      -0.0042
     18  CE1        3.8850   70.9780   77.9480 C.ar   72  PHE72      -0.0003
     19  CE2        3.8990   70.4030   75.5850 C.ar   72  PHE72      -0.0003
     20  CZ         4.4080   70.2170   76.8880 C.ar   72  PHE72      -0.0000
     21  N         10.1400   62.9230   72.5860 N.3   329  LEU329     -0.1231
     22  CA        10.6630   62.7410   73.9410 C.3   329  LEU329      0.1693
     23  C          9.9350   63.6620   74.9390 C.2   329  LEU329      0.2592
     24  O          9.4920   63.2090   75.9950 O.2   329  LEU329     -0.2718
     25  CB        12.1610   63.0030   73.9620 C.3   329  LEU329      0.0284
     26  CG        12.9850   61.9230   73.2650 C.3   329  LEU329      0.0019
     27  CD1       14.3520   62.5140   72.9220 C.3   329  LEU329      0.0001
     28  CD2       13.1320   60.6530   74.1270 C.3   329  LEU329      0.0001
     29  N          9.7950   64.9380   74.5830 N.am  330  LEU330     -0.1966
     30  CA         9.0780   65.8920   75.4270 C.3   330  LEU330      0.1728
     31  C          7.6950   65.3710   75.7960 C.2   330  LEU330      0.2616
     32  O          7.2860   65.4280   76.9690 O.2   330  LEU330     -0.2715
     33  CB         8.9480   67.2640   74.7580 C.3   330  LEU330      0.0311
     34  CG         7.9540   68.2260   75.4480 C.3   330  LEU330      0.0022
     35  CD1        8.3770   68.5600   76.9100 C.3   330  LEU330      0.0001
     36  CD2        7.7650   69.5190   74.6520 C.3   330  LEU330      0.0001
     37  N          6.9760   64.8640   74.7950 N.am  331  TYR331     -0.1960
     38  CA         5.6040   64.4380   75.0040 C.3   331  TYR331      0.1771
     39  C          5.5180   63.0700   75.6430 C.2   331  TYR331      0.2620
     40  O          4.5660   62.8000   76.3760 O.2   331  TYR331     -0.2715
     41  CB         4.8250   64.4300   73.6890 C.3   331  TYR331      0.0574
     42  CG         4.2380   65.7760   73.3200 C.ar  331  TYR331     -0.0198
     43  CD1        5.0610   66.8480   72.9580 C.ar  331  TYR331     -0.0009
     44  CD2        2.8630   65.9760   73.3230 C.ar  331  TYR331     -0.0009
     45  CE1        4.5160   68.0870   72.6090 C.ar  331  TYR331      0.0417
     46  CE2        2.3120   67.2070   72.9720 C.ar  331  TYR331      0.0417
     47  CZ         3.1550   68.2580   72.6160 C.ar  331  TYR331      0.1957
     48  OH         2.6140   69.4800   72.2860 O.3   331  TYR331     -0.2866
     49  N          6.5030   62.2120   75.3990 N.am  332  GLY332     -0.1940
     50  CA         6.2990   60.7940   75.7050 C.3   332  GLY332      0.2014
     51  C          7.2470   60.0790   76.6480 C.2   332  GLY332      0.2639
     52  O          6.9710   58.9400   77.0230 O.2   332  GLY332     -0.2714
     53  N          8.3500   60.7210   77.0330 N.am  333  ALA333     -0.1963
     54  CA         9.4020   60.0580   77.8020 C.3   333  ALA333      0.1713
     55  C          9.5950   60.7070   79.1860 C.2   333  ALA333      0.2458
     56  O          9.5940   61.9300   79.2960 O.2   333  ALA333     -0.2730
     57  CB        10.7230   60.0890   77.0300 C.3   333  ALA333      0.0333
     58  N          9.7840   59.8850   80.2390 N.am  334  PRO334     -0.2716
     59  CA        10.0140   60.4640   81.5800 C.3   334  PRO334      0.1536
     60  C         11.3060   61.2830   81.6410 C.2   334  PRO334      0.2599
     61  O         12.3090   60.9280   80.9920 O.2   334  PRO334     -0.2715
     62  CB        10.1130   59.2220   82.4880 C.3   334  PRO334      0.0310
     63  CG        10.6700   58.1430   81.5730 C.3   334  PRO334      0.0237
     64  CD         9.9290   58.4110   80.2450 C.3   334  PRO334      0.0939
     65  N         11.2720   62.3850   82.3960 N.am  335  GLY335     -0.1941
     66  CA        12.4490   63.2310   82.5810 C.3   335  GLY335      0.2014
     67  C         12.4510   64.4590   81.6980 C.2   335  GLY335      0.2639
     68  O         13.1830   65.4370   81.9580 O.2   335  GLY335     -0.2714
     69  N         11.6130   64.4300   80.6550 N.am  336  PHE336     -0.1959
     70  CA        11.5510   65.5430   79.7170 C.3   336  PHE336      0.1771
     71  C         10.3570   66.4220   80.0370 C.2   336  PHE336      0.2620
     72  O          9.2280   65.9280   80.1580 O.2   336  PHE336     -0.2715
     73  CB        11.4610   65.0330   78.2610 C.3   336  PHE336      0.0574
     74  CG        12.6920   64.2950   77.7820 C.ar  336  PHE336     -0.0200
     75  CD1       12.8520   62.9290   78.0420 C.ar  336  PHE336     -0.0042
     76  CD2       13.6720   64.9570   77.0490 C.ar  336  PHE336     -0.0042
     77  CE1       13.9760   62.2330   77.5810 C.ar  336  PHE336     -0.0003
     78  CE2       14.8030   64.2720   76.5790 C.ar  336  PHE336     -0.0003
     79  CZ        14.9540   62.9020   76.8460 C.ar  336  PHE336     -0.0000
     80  N         10.5770   67.7240   80.1760 N.am  337  SER337     -0.1950
     81  CA         9.4350   68.6290   80.3630 C.3   337  SER337      0.1924
     82  C          9.6580   69.9590   79.6640 C.2   337  SER337      0.2314
     83  O         10.7950   70.3190   79.3810 O.2   337  SER337     -0.2863
     84  CB         9.1300   68.8260   81.8600 C.3   337  SER337      0.2116
     85  OG        10.3330   68.9420   82.5900 O.3   337  SER337     -0.2180
@<TRIPOS>BOND
     1    48    47    1
     2    21    22    1
     3    45    47   ar
     4    45    43   ar
     5    47    46   ar
     6    27    26    1
     7    43    42   ar
     8    46    44   ar
     9    26    25    1
    10    26    28    1
    11    42    44   ar
    12    42    41    1
    13    41    38    1
    14    22    25    1
    15    22    23    1
    16    29    23   am
    17    29    30    1
    18    36    34    1
    19    33    30    1
    20    33    34    1
    21    37    38    1
    22    37    31   am
    23    23    24    2
    24    38    39    1
    25    13    12    2
    26    17    19   ar
    27    17    15   ar
    28    49    39   am
    29    49    50    1
    30    30    31    1
    31    34    35    1
    32     1     2    1
    33    19    20   ar
    34    39    40    2
    35    50    51    1
    36    31    32    2
    37     5     2    1
    38     5     6    1
    39    14    15    1
    40    14    11    1
    41    10    11    1
    42    10     3   am
    43    12    11    1
    44     2     3    1
    45    15    16   ar
    46    78    79   ar
    47    78    76   ar
    48    51    52    2
    49    51    53   am
    50     6     7    1
    51    79    77   ar
    52    20    18   ar
    53     3     4    2
    54    57    54    1
    55    53    54    1
    56    76    74   ar
    57    77    75   ar
    58    16    18   ar
    59    74    75   ar
    60    74    73    1
    61    54    55    1
    62     8     7    2
    63     7     9   am
    64    73    70    1
    65    55    56    2
    66    55    58   am
    67    83    82    2
    68    82    81    1
    69    70    71    1
    70    70    69    1
    71    71    72    2
    72    71    80   am
    73    80    81    1
    74    58    64    1
    75    58    59    1
    76    64    63    1
    77    81    84    1
    78    69    67   am
    79    61    60    2
    80    63    62    1
    81    59    60    1
    82    59    62    1
    83    60    65   am
    84    67    68    2
    85    67    66    1
    86    84    85    1
    87    65    66    1
