@<TRIPOS>MOLECULE
tmp/2wg1A10.pdb
 80 77 0 0 0
SMALL
GASTEIGER

@<TRIPOS>ATOM
      1  N        -12.8030   87.8720   34.3640 N.3     1  SER1       -0.1217
      2  CA       -12.2090   88.2340   35.6950 C.3     1  SER1        0.1889
      3  C        -11.1000   87.2600   36.1110 C.2     1  SER1        0.2288
      4  O        -11.2390   86.0450   35.9780 O.2     1  SER1       -0.2866
      5  CB       -13.2970   88.2900   36.7750 C.3     1  SER1        0.2089
      6  OG       -12.7410   88.2260   38.0810 O.3     1  SER1       -0.2183
      7  N        -12.0580   84.3720   38.4250 N.3     4  LEU4       -0.1231
      8  CA       -13.0120   83.3630   37.9660 C.3     4  LEU4        0.1693
      9  C        -12.3350   82.3400   37.0500 C.2     4  LEU4        0.2592
     10  O        -11.6350   82.7100   36.0960 O.2     4  LEU4       -0.2718
     11  CB       -14.2090   84.0310   37.2810 C.3     4  LEU4        0.0284
     12  CG       -15.3950   83.1470   36.8810 C.3     4  LEU4        0.0019
     13  CD1      -16.0710   82.4370   38.0780 C.3     4  LEU4        0.0001
     14  CD2      -16.4210   83.9950   36.1160 C.3     4  LEU4        0.0001
     15  N        -12.5110   81.0530   37.3610 N.am    5  VAL5       -0.1966
     16  CA       -11.8750   79.9860   36.5820 C.3     5  VAL5        0.1727
     17  C        -12.9000   78.8920   36.3070 C.2     5  VAL5        0.2616
     18  O        -13.5230   78.3780   37.2400 O.2     5  VAL5       -0.2715
     19  CB       -10.6210   79.3930   37.3220 C.3     5  VAL5        0.0290
     20  CG1      -10.0540   78.1940   36.5920 C.3     5  VAL5        0.0023
     21  CG2       -9.5390   80.4450   37.5550 C.3     5  VAL5        0.0023
     22  N        -13.1100   78.5750   35.0260 N.am    6  ASN6       -0.1972
     23  CA       -13.9240   77.4220   34.6590 C.3     6  ASN6        0.1688
     24  C        -13.0270   76.1990   34.6450 C.2     6  ASN6        0.2292
     25  O        -12.0170   76.1800   33.9700 O.2     6  ASN6       -0.2864
     26  CB       -14.5950   77.6030   33.2920 C.3     6  ASN6        0.1181
     27  CG       -15.7100   76.5970   33.0570 C.2     6  ASN6        0.2629
     28  OD1      -16.2010   75.9720   33.9990 O.2     6  ASN6       -0.2716
     29  ND2      -16.1240   76.4460   31.8050 N.am    6  ASN6       -0.0877
     30  N         -2.5620   86.2590   36.2210 N.3   102  ARG102     -0.1231
     31  CA        -2.6130   84.7940   36.0370 C.3   102  ARG102      0.1679
     32  C         -1.5590   84.3390   35.0400 C.2   102  ARG102      0.2434
     33  O         -1.4950   84.8550   33.9220 O.2   102  ARG102     -0.2733
     34  CB        -4.0070   84.3350   35.5830 C.3   102  ARG102      0.0321
     35  CG        -4.2260   82.8230   35.6410 C.3   102  ARG102      0.0489
     36  CD        -5.5760   82.4250   35.0550 C.3   102  ARG102      0.2205
     37  NE        -6.7040   82.9800   35.7930 N.pl3 102  ARG102     -0.0865
     38  CZ        -7.9600   82.9220   35.3670 C.cat 102  ARG102      0.5346
     39  NH1       -8.2310   82.3460   34.1960 N.pl3 102  ARG102      0.1354
     40  NH2       -8.9510   83.4380   36.0880 N.pl3 102  ARG102      0.1354
     41  N         -0.7090   83.3760   35.4380 N.am  103  PRO103     -0.2718
     42  CA         0.3160   82.9080   34.4920 C.3   103  PRO103      0.1535
     43  C         -0.3150   82.0330   33.4240 C.2   103  PRO103      0.2598
     44  O         -1.5070   81.7100   33.5180 O.2   103  PRO103     -0.2715
     45  CB         1.2480   82.0720   35.3670 C.3   103  PRO103      0.0310
     46  CG         0.8540   82.3850   36.7910 C.3   103  PRO103      0.0237
     47  CD        -0.6110   82.6800   36.7290 C.3   103  PRO103      0.0939
     48  N          0.4630   81.6540   32.4170 N.am  104  LYS104     -0.1978
     49  CA        -0.0690   80.8340   31.3300 C.3   104  LYS104      0.1596
     50  C          0.2370   79.3530   31.5180 C.2   104  LYS104      0.2287
     51  O         -0.6360   78.5060   31.3240 O.2   104  LYS104     -0.2864
     52  CB         0.4430   81.3080   29.9620 C.3   104  LYS104      0.0298
     53  CG         0.1390   82.7680   29.6430 C.3   104  LYS104      0.0038
     54  CD        -1.3500   83.0450   29.7210 C.3   104  LYS104      0.0206
     55  CE        -1.6420   84.5530   29.6930 C.3   104  LYS104      0.1093
     56  NZ        -3.1010   84.7610   29.7950 N.3   104  LYS104     -0.1314
     57  N         -4.2270   73.5920   34.6030 N.3   182  GLN182     -0.1231
     58  CA        -3.9550   74.3910   33.3920 C.3   182  GLN182      0.1698
     59  C         -4.8560   75.6480   33.3650 C.2   182  GLN182      0.2592
     60  O         -4.4440   76.7220   32.9190 O.2   182  GLN182     -0.2718
     61  CB        -4.1280   73.5370   32.1070 C.3   182  GLN182      0.0381
     62  CG        -5.5840   73.1490   31.8300 C.3   182  GLN182      0.0905
     63  CD        -5.7540   71.9830   30.8610 C.2   182  GLN182      0.2608
     64  OE1       -5.5220   70.8290   31.2250 O.2   182  GLN182     -0.2717
     65  NE2       -6.1960   72.2770   29.6280 N.am  182  GLN182     -0.0878
     66  N         -6.0710   75.5090   33.8730 N.am  183  PHE183     -0.1976
     67  CA        -7.0330   76.6080   33.9010 C.3   183  PHE183      0.1639
     68  C         -6.6670   77.6990   34.9030 C.2   183  PHE183      0.2290
     69  O         -7.2100   78.8050   34.8270 O.2   183  PHE183     -0.2864
     70  CB        -8.4420   76.0720   34.1560 C.3   183  PHE183      0.0560
     71  CG        -8.8420   75.0100   33.1760 C.ar  183  PHE183     -0.0200
     72  CD1       -8.9280   75.3130   31.8060 C.ar  183  PHE183     -0.0042
     73  CD2       -9.0760   73.7010   33.5970 C.ar  183  PHE183     -0.0042
     74  CE1       -9.2680   74.3390   30.8660 C.ar  183  PHE183     -0.0003
     75  CE2       -9.4160   72.7090   32.6600 C.ar  183  PHE183     -0.0003
     76  CZ        -9.5070   73.0360   31.2780 C.ar  183  PHE183     -0.0000
     77  N         -3.4630   78.4800   35.1920 N.3   185  GLY185     -0.1225
     78  CA        -2.1710   78.9320   34.6960 C.3   185  GLY185      0.1811
     79  C         -1.0200   78.0290   35.0800 C.2   185  GLY185      0.2280
     80  O          0.1260   78.3510   34.8220 O.2   185  GLY185     -0.2866
@<TRIPOS>BOND
     1    65    63   am
     2    53    54    1
     3    53    52    1
     4    55    54    1
     5    55    56    1
     6    52    49    1
     7    63    64    2
     8    63    62    1
     9    74    76   ar
    10    74    72   ar
    11    76    75   ar
    12    51    50    2
    13    49    50    1
    14    49    48    1
    15    29    27   am
    16    72    71   ar
    17    62    61    1
    18    61    58    1
    19    48    43   am
    20    75    73   ar
    21    60    59    2
    22    27    26    1
    23    27    28    2
    24    71    73   ar
    25    71    70    1
    26    26    23    1
    27    59    58    1
    28    59    66   am
    29    58    57    1
    30    43    44    2
    31    43    42    1
    32    66    67    1
    33    67    70    1
    34    67    68    1
    35    33    32    2
    36    25    24    2
    37    39    38    1
    38     1     2    1
    39    42    45    1
    40    42    41    1
    41    24    23    1
    42    23    22    1
    43    78    79    1
    44    78    77    1
    45    80    79    2
    46    69    68    2
    47    22    17   am
    48    32    41   am
    49    32    31    1
    50    36    35    1
    51    36    37    1
    52    45    46    1
    53    38    37    2
    54    38    40    1
    55    41    47    1
    56    34    35    1
    57    34    31    1
    58     2     3    1
    59     2     5    1
    60     4     3    2
    61    31    30    1
    62    10     9    2
    63    14    12    1
    64    17    16    1
    65    17    18    2
    66    16    19    1
    67    16    15    1
    68    20    19    1
    69    47    46    1
    70     5     6    1
    71    12    11    1
    72    12    13    1
    73     9    15   am
    74     9     8    1
    75    11     8    1
    76    19    21    1
    77     8     7    1
