@<TRIPOS>MOLECULE
tmp/2wg1A08.pdb
 104 100 0 0 0
SMALL
GASTEIGER

@<TRIPOS>ATOM
      1  N          1.6550   78.6170   71.8090 N.3    76  SER76      -0.1202
      2  CA         1.5900   78.6770   70.3470 C.3    76  SER76       0.2020
      3  C          2.4760   77.6160   69.6820 C.2    76  SER76       0.2619
      4  O          2.2090   77.1790   68.5570 O.2    76  SER76      -0.2717
      5  CB         1.9650   80.0680   69.8560 C.3    76  SER76       0.2103
      6  OG         3.3030   80.3370   70.2030 O.3    76  SER76      -0.2182
      7  N          3.5140   77.2020   70.3950 N.am   77  GLY77      -0.1956
      8  CA         4.4450   76.2120   69.8970 C.3    77  GLY77       0.1869
      9  C          3.7010   74.9910   69.4230 C.2    77  GLY77       0.2309
     10  O          3.9960   74.4770   68.3550 O.2    77  GLY77      -0.2863
     11  N         -0.0460   75.9800   67.0300 N.3    80  MET80      -0.1245
     12  CA         0.1100   76.3480   65.6130 C.3    80  MET80       0.1570
     13  C         -0.0720   75.1570   64.6500 C.2    80  MET80       0.2261
     14  O         -0.2260   75.3580   63.4430 O.2    80  MET80      -0.2867
     15  CB         1.4390   77.0690   65.3540 C.3    80  MET80       0.0387
     16  CG         2.7060   76.2210   65.5060 C.3    80  MET80       0.0595
     17  SD         4.1650   76.8840   64.6590 S.3    80  MET80      -0.1393
     18  CE         4.1090   76.0150   63.0960 C.3    80  MET80       0.0692
     19  N         13.2120   83.1440   66.9490 N.3   426  ASN426     -0.1225
     20  CA        11.9500   83.4260   67.6570 C.3   426  ASN426      0.1785
     21  C         11.1760   82.1850   68.1250 C.2   426  ASN426      0.2597
     22  O          9.9770   82.2790   68.4470 O.2   426  ASN426     -0.2718
     23  CB        11.0330   84.2570   66.7590 C.3   426  ASN426      0.1169
     24  CG        10.8380   83.6190   65.3770 C.2   426  ASN426      0.2627
     25  OD1       11.2900   82.5010   65.1300 O.2   426  ASN426     -0.2716
     26  ND2       10.1860   84.3420   64.4710 N.am  426  ASN426     -0.0877
     27  N         11.8370   81.0290   68.1540 N.am  427  LEU427     -0.1966
     28  CA        11.1920   79.7990   68.6250 C.3   427  LEU427      0.1728
     29  C         10.7510   79.9300   70.0820 C.2   427  LEU427      0.2616
     30  O         11.5020   80.4140   70.9280 O.2   427  LEU427     -0.2715
     31  CB        12.1370   78.5840   68.4470 C.3   427  LEU427      0.0311
     32  CG        11.7380   77.6250   67.3130 C.3   427  LEU427      0.0022
     33  CD1       12.8650   76.7730   66.8330 C.3   427  LEU427      0.0001
     34  CD2       10.5980   76.7320   67.7730 C.3   427  LEU427      0.0001
     35  N          9.5490   79.4820   70.3930 N.am  428  VAL428     -0.1963
     36  CA         9.0710   79.6020   71.7610 C.3   428  VAL428      0.1727
     37  C          9.2380   78.3010   72.5230 C.2   428  VAL428      0.2616
     38  O          8.9280   78.2420   73.7200 O.2   428  VAL428     -0.2715
     39  CB         7.6070   80.1040   71.8200 C.3   428  VAL428      0.0290
     40  CG1        7.4610   81.3710   70.9990 C.3   428  VAL428      0.0023
     41  CG2        6.6410   79.0370   71.2910 C.3   428  VAL428      0.0023
     42  N          9.7200   77.2620   71.8320 N.am  429  TRP429     -0.1974
     43  CA        10.0450   75.9680   72.4650 C.3   429  TRP429      0.1640
     44  C         11.3900   76.1270   73.1630 C.2   429  TRP429      0.2290
     45  O         12.1960   76.9560   72.7300 O.2   429  TRP429     -0.2864
     46  CB        10.1460   74.8360   71.4170 C.3   429  TRP429      0.0576
     47  CG         8.8310   74.3890   70.7790 C.ar  429  TRP429      0.0006
     48  CD1        8.3790   74.6980   69.5170 C.ar  429  TRP429      0.0946
     49  CD2        7.8150   73.5580   71.3680 C.ar  429  TRP429      0.0152
     50  NE1        7.1400   74.1180   69.2910 N.ar  429  TRP429     -0.2442
     51  CE2        6.7820   73.3990   70.4010 C.ar  429  TRP429      0.0810
     52  CE3        7.6820   72.9170   72.6050 C.ar  429  TRP429      0.0012
     53  CZ2        5.6270   72.6460   70.6480 C.ar  429  TRP429      0.0191
     54  CZ3        6.5340   72.1480   72.8450 C.ar  429  TRP429      0.0001
     55  CH2        5.5280   72.0170   71.8660 C.ar  429  TRP429      0.0015
     56  N         10.4860   72.7060   61.9010 N.3   439  TYR439     -0.1241
     57  CA        10.7810   74.1310   61.9720 C.3   439  TYR439      0.1605
     58  C         11.6510   74.6050   60.8230 C.2   439  TYR439      0.2264
     59  O         12.1500   75.7290   60.8410 O.2   439  TYR439     -0.2867
     60  CB        11.2960   74.5480   63.3850 C.3   439  TYR439      0.0534
     61  CG        10.1070   74.6440   64.3120 C.ar  439  TYR439     -0.0201
     62  CD1        9.6050   73.5050   64.9610 C.ar  439  TYR439     -0.0009
     63  CD2        9.3910   75.8430   64.4350 C.ar  439  TYR439     -0.0009
     64  CE1        8.4530   73.5740   65.7730 C.ar  439  TYR439      0.0417
     65  CE2        8.2320   75.9170   65.2320 C.ar  439  TYR439      0.0417
     66  CZ         7.7870   74.7850   65.8950 C.ar  439  TYR439      0.1957
     67  OH         6.6630   74.8560   66.6570 O.3   439  TYR439     -0.2866
     68  N          8.5530   76.6630   58.0810 N.3   442  GLU442     -0.1245
     69  CA         8.3250   78.1120   58.0210 C.3   442  GLU442      0.1567
     70  C          9.2980   78.8090   57.0860 C.2   442  GLU442      0.2260
     71  O          8.9520   79.8420   56.5090 O.2   442  GLU442     -0.2867
     72  CB         8.3570   78.7680   59.4170 C.3   442  GLU442      0.0388
     73  CG         9.5980   78.4810   60.2520 C.3   442  GLU442      0.1160
     74  CD         9.2980   78.6020   61.7380 C.2   442  GLU442      0.3649
     75  OE1        8.3630   77.9050   62.2070 O.co2 442  GLU442     -0.2457
     76  OE2        9.9770   79.3940   62.4360 O.co2 442  GLU442     -0.2457
     77  N          7.7950   82.5650   55.6880 N.3   447  LEU447     -0.1245
     78  CA         7.2950   83.3690   56.8160 C.3   447  LEU447      0.1561
     79  C          8.3120   84.4140   57.3130 C.2   447  LEU447      0.2260
     80  O          7.9170   85.4790   57.7650 O.2   447  LEU447     -0.2867
     81  CB         6.8300   82.4820   57.9810 C.3   447  LEU447      0.0270
     82  CG         5.4280   81.8570   57.8700 C.3   447  LEU447      0.0019
     83  CD1        4.3760   82.9270   57.6870 C.3   447  LEU447      0.0001
     84  CD2        5.3490   80.8330   56.7280 C.3   447  LEU447      0.0001
     85  N          6.5790   89.1580   62.1070 N.3   453  LEU453     -0.1245
     86  CA         6.8390   87.8560   62.7290 C.3   453  LEU453      0.1561
     87  C          8.1970   87.8080   63.4380 C.2   453  LEU453      0.2260
     88  O          8.5050   86.8340   64.1210 O.2   453  LEU453     -0.2867
     89  CB         6.6670   86.7090   61.7230 C.3   453  LEU453      0.0270
     90  CG         5.2600   86.5070   61.1370 C.3   453  LEU453      0.0019
     91  CD1        5.2390   85.3260   60.1510 C.3   453  LEU453      0.0001
     92  CD2        4.1750   86.3610   62.2340 C.3   453  LEU453      0.0001
     93  N         11.6200   87.7850   62.6480 N.3   455  TYR455     -0.1241
     94  CA        12.8080   86.9770   62.3470 C.3   455  TYR455      0.1605
     95  C         13.9410   87.9590   62.1090 C.2   455  TYR455      0.2264
     96  O         13.7150   89.1600   62.0090 O.2   455  TYR455     -0.2867
     97  CB        12.6160   86.0930   61.0990 C.3   455  TYR455      0.0534
     98  CG        11.6370   84.9140   61.2130 C.ar  455  TYR455     -0.0201
     99  CD1       10.2760   85.0870   61.0010 C.ar  455  TYR455     -0.0009
    100  CD2       12.0890   83.6240   61.5080 C.ar  455  TYR455     -0.0009
    101  CE1        9.3740   84.0070   61.0890 C.ar  455  TYR455      0.0417
    102  CE2       11.2040   82.5460   61.6010 C.ar  455  TYR455      0.0417
    103  CZ         9.8480   82.7390   61.3830 C.ar  455  TYR455      0.1957
    104  OH         8.9590   81.6760   61.4710 O.3   455  TYR455     -0.2866
@<TRIPOS>BOND
     1    77    78    1
     2    71    70    2
     3    84    82    1
     4    78    79    1
     5    78    81    1
     6    70    69    1
     7    79    80    2
     8    83    82    1
     9    82    81    1
    10    69    68    1
    11    69    72    1
    12    72    73    1
    13    91    90    1
    14    73    74    1
    15    58    59    2
    16    58    57    1
    17    99   101   ar
    18    99    98   ar
    19   101   103   ar
    20    97    98    1
    21    97    94    1
    22    90    89    1
    23    90    92    1
    24    98   100   ar
    25   103   104    1
    26   103   102   ar
    27   100   102   ar
    28    89    86    1
    29    74    75   ar
    30    74    76   ar
    31    56    57    1
    32    57    60    1
    33    96    95    2
    34    85    86    1
    35    95    94    1
    36    94    93    1
    37    86    87    1
    38    18    17    1
    39    60    61    1
    40    87    88    2
    41    14    13    2
    42    61    63   ar
    43    61    62   ar
    44    63    65   ar
    45    26    24   am
    46    13    12    1
    47    17    16    1
    48    62    64   ar
    49    25    24    2
    50    65    66   ar
    51    15    16    1
    52    15    12    1
    53    24    23    1
    54    12    11    1
    55    64    66   ar
    56    66    67    1
    57    23    20    1
    58    33    32    1
    59    19    20    1
    60    32    34    1
    61    32    31    1
    62    20    21    1
    63    21    27   am
    64    21    22    2
    65    27    28    1
    66    10     9    2
    67    31    28    1
    68     4     3    2
    69    28    29    1
    70    50    48   ar
    71    50    51   ar
    72     9     8    1
    73    48    47   ar
    74     3     2    1
    75     3     7   am
    76     5     6    1
    77     5     2    1
    78     8     7    1
    79    29    35   am
    80    29    30    2
    81     2     1    1
    82    35    36    1
    83    51    53   ar
    84    51    49   ar
    85    53    55   ar
    86    47    49   ar
    87    47    46    1
    88    40    39    1
    89    41    39    1
    90    49    52   ar
    91    46    43    1
    92    36    39    1
    93    36    37    1
    94    42    43    1
    95    42    37   am
    96    55    54   ar
    97    43    44    1
    98    37    38    2
    99    52    54   ar
   100    45    44    2
