@<TRIPOS>MOLECULE
tmp/2wg1A00.pdb
 95 90 0 0 0
SMALL
GASTEIGER

@<TRIPOS>ATOM
      1  N         -5.7800   88.3070   47.5780 N.3    17  VAL17      -0.1245
      2  CA        -5.1970   88.3920   48.9160 C.3    17  VAL17       0.1561
      3  C         -3.9610   89.2440   48.8710 C.2    17  VAL17       0.2260
      4  O         -3.1940   89.1710   47.9240 O.2    17  VAL17      -0.2867
      5  CB        -4.8850   86.9990   49.6010 C.3    17  VAL17       0.0252
      6  CG1       -6.0620   86.0780   49.5020 C.3    17  VAL17       0.0019
      7  CG2       -3.6390   86.3650   49.0180 C.3    17  VAL17       0.0019
      8  N         -9.6250   78.9950   47.5420 N.3    28  LEU28      -0.1245
      9  CA        -9.5230   78.2260   48.7510 C.3    28  LEU28       0.1561
     10  C        -10.7110   77.3130   48.9000 C.2    28  LEU28       0.2260
     11  O        -11.8200   77.6950   48.5800 O.2    28  LEU28      -0.2867
     12  CB        -9.4050   79.1500   49.9800 C.3    28  LEU28       0.0270
     13  CG        -8.3270   80.2430   49.9340 C.3    28  LEU28       0.0019
     14  CD1       -8.4230   81.1590   51.1790 C.3    28  LEU28       0.0001
     15  CD2       -6.9040   79.6590   49.7550 C.3    28  LEU28       0.0001
     16  N        -13.5280   81.4890   48.3410 N.3    58  SER58      -0.1217
     17  CA       -12.9790   82.6620   49.0020 C.3    58  SER58       0.1889
     18  C        -12.4790   82.3510   50.4150 C.2    58  SER58       0.2288
     19  O        -11.7120   83.1340   50.9750 O.2    58  SER58      -0.2866
     20  CB       -14.0480   83.7680   49.0650 C.3    58  SER58       0.2089
     21  OG       -15.1150   83.3210   49.9010 O.3    58  SER58      -0.2183
     22  N        -11.0470   79.3780   53.5370 N.3    60  TYR60      -0.1241
     23  CA       -10.4800   78.0740   53.8910 C.3    60  TYR60       0.1605
     24  C        -11.5740   77.0460   54.2130 C.2    60  TYR60       0.2264
     25  O        -12.6200   77.3890   54.7510 O.2    60  TYR60      -0.2867
     26  CB        -9.5340   78.2070   55.0740 C.3    60  TYR60       0.0534
     27  CG        -8.0890   78.4860   54.7390 C.ar   60  TYR60      -0.0201
     28  CD1       -7.4770   77.9240   53.6180 C.ar   60  TYR60      -0.0009
     29  CD2       -7.3090   79.2910   55.5840 C.ar   60  TYR60      -0.0009
     30  CE1       -6.1220   78.1630   53.3550 C.ar   60  TYR60       0.0417
     31  CE2       -5.9560   79.5470   55.3160 C.ar   60  TYR60       0.0417
     32  CZ        -5.3760   78.9810   54.2170 C.ar   60  TYR60       0.1957
     33  OH        -4.0470   79.2160   53.9740 O.3    60  TYR60      -0.2866
     34  N         -9.5840   75.4890   61.8070 N.3    85  ARG85      -0.1245
     35  CA       -10.9250   75.6100   61.2720 C.3    85  ARG85       0.1563
     36  C        -11.7760   74.5290   61.9240 C.2    85  ARG85       0.2260
     37  O        -11.2580   73.6420   62.6060 O.2    85  ARG85      -0.2867
     38  CB       -10.9170   75.5200   59.7310 C.3    85  ARG85       0.0307
     39  CG       -10.2230   76.7310   59.0210 C.3    85  ARG85       0.0489
     40  CD       -11.1110   77.9830   59.0760 C.3    85  ARG85       0.2205
     41  NE       -10.5740   79.1350   58.3450 N.pl3  85  ARG85      -0.0865
     42  CZ        -9.6790   79.9950   58.8300 C.cat  85  ARG85       0.5346
     43  NH1       -9.1840   79.8480   60.0540 N.pl3  85  ARG85       0.1354
     44  NH2       -9.2710   81.0070   58.0830 N.pl3  85  ARG85       0.1354
     45  N         -2.8990   79.0280   45.3070 N.3    97  TRP97      -0.1241
     46  CA        -2.4540   80.4060   45.2520 C.3    97  TRP97       0.1605
     47  C         -1.8660   80.6520   43.8680 C.2    97  TRP97       0.2264
     48  O         -1.0150   79.8820   43.4060 O.2    97  TRP97      -0.2867
     49  CB        -1.4310   80.7310   46.3390 C.3    97  TRP97       0.0550
     50  CG        -2.0460   80.7890   47.7280 C.ar   97  TRP97       0.0003
     51  CD1       -2.5200   81.8980   48.3800 C.ar   97  TRP97       0.0946
     52  CD2       -2.2610   79.6850   48.6160 C.ar   97  TRP97       0.0152
     53  NE1       -3.0280   81.5460   49.6090 N.ar   97  TRP97      -0.2442
     54  CE2       -2.8460   80.2030   49.7950 C.ar   97  TRP97       0.0810
     55  CE3       -1.9970   78.3110   48.5400 C.ar   97  TRP97       0.0012
     56  CZ2       -3.1720   79.3980   50.8850 C.ar   97  TRP97       0.0191
     57  CZ3       -2.3300   77.4990   49.6470 C.ar   97  TRP97       0.0001
     58  CH2       -2.9100   78.0500   50.7900 C.ar   97  TRP97       0.0015
     59  N         -1.3060   78.4850   59.4860 N.3   125  ASP125     -0.1239
     60  CA        -0.5930   79.7290   59.1630 C.3   125  ASP125      0.1674
     61  C          0.7030   79.4500   58.4560 C.2   125  ASP125      0.2266
     62  O          1.0940   80.1910   57.5440 O.2   125  ASP125     -0.2867
     63  CB        -0.2890   80.5360   60.4250 C.3   125  ASP125      0.1410
     64  CG        -1.5100   81.2250   60.9820 C.2   125  ASP125      0.3668
     65  OD1       -2.5990   81.1460   60.3720 O.co2 125  ASP125     -0.2456
     66  OD2       -1.3770   81.8400   62.0590 O.co2 125  ASP125     -0.2456
     67  N          0.7280   78.7210   54.5720 N.3   128  ASN128     -0.1240
     68  CA         0.0980   79.7380   53.7020 C.3   128  ASN128      0.1653
     69  C          0.9420   79.8860   52.4520 C.2   128  ASN128      0.2266
     70  O          2.1030   80.3140   52.5150 O.2   128  ASN128     -0.2867
     71  CB        -0.0650   81.0740   54.4500 C.3   128  ASN128      0.1155
     72  CG        -0.8930   82.1180   53.6740 C.2   128  ASN128      0.2627
     73  OD1       -1.0510   82.0690   52.4460 O.2   128  ASN128     -0.2716
     74  ND2       -1.4070   83.0900   54.4110 N.am  128  ASN128     -0.0877
     75  N          0.9240   81.8680   49.9080 N.3   130  LYS130     -0.1231
     76  CA         0.9970   83.1300   49.1520 C.3   130  LYS130      0.1693
     77  C          2.4160   83.6290   48.9840 C.2   130  LYS130      0.2592
     78  O          2.7630   84.1090   47.9090 O.2   130  LYS130     -0.2718
     79  CB         0.0460   84.2020   49.7040 C.3   130  LYS130      0.0285
     80  CG         0.4840   84.8200   51.0180 C.3   130  LYS130      0.0035
     81  CD        -0.6750   85.4910   51.7220 C.3   130  LYS130      0.0206
     82  CE        -0.1310   86.4100   52.8040 C.3   130  LYS130      0.1093
     83  NZ        -1.2230   87.1320   53.5390 N.3   130  LYS130     -0.1314
     84  N          3.2510   83.4810   50.0130 N.am  131  TYR131     -0.1976
     85  CA         4.6350   84.0030   49.9500 C.3   131  TYR131      0.1639
     86  C          5.4410   83.3020   48.8910 C.2   131  TYR131      0.2290
     87  O          6.1850   83.9450   48.1540 O.2   131  TYR131     -0.2864
     88  CB         5.3450   83.8950   51.3080 C.3   131  TYR131      0.0560
     89  CG         4.5180   84.5000   52.4080 C.ar  131  TYR131     -0.0198
     90  CD1        4.2890   85.8850   52.4500 C.ar  131  TYR131     -0.0009
     91  CD2        3.9250   83.6970   53.3710 C.ar  131  TYR131     -0.0009
     92  CE1        3.4970   86.4540   53.4410 C.ar  131  TYR131      0.0417
     93  CE2        3.1290   84.2480   54.3760 C.ar  131  TYR131      0.0417
     94  CZ         2.9240   85.6310   54.4000 C.ar  131  TYR131      0.1957
     95  OH         2.1480   86.1860   55.3870 O.3   131  TYR131     -0.2866
@<TRIPOS>BOND
     1    48    47    2
     2    47    46    1
     3    46    45    1
     4    46    49    1
     5    49    50    1
     6     8     9    1
     7     1     2    1
     8    50    51   ar
     9    50    52   ar
    10    78    77    2
    11     4     3    2
    12    87    86    2
    13    16    17    1
    14    51    53   ar
    15    55    52   ar
    16    55    57   ar
    17    11    10    2
    18    52    54   ar
    19     9    10    1
    20     9    12    1
    21     3     2    1
    22    86    85    1
    23     2     5    1
    24    77    76    1
    25    77    84   am
    26    17    20    1
    27    17    18    1
    28     7     5    1
    29    20    21    1
    30    76    79    1
    31    76    75    1
    32     6     5    1
    33    53    54   ar
    34    57    58   ar
    35    79    80    1
    36    15    13    1
    37    54    56   ar
    38    13    12    1
    39    13    14    1
    40    85    84    1
    41    85    88    1
    42    18    19    2
    43    58    56   ar
    44    80    81    1
    45    88    89    1
    46    81    82    1
    47    89    90   ar
    48    89    91   ar
    49    73    72    2
    50    90    92   ar
    51    69    70    2
    52    69    68    1
    53    82    83    1
    54    30    28   ar
    55    30    32   ar
    56    91    93   ar
    57    92    94   ar
    58    22    23    1
    59    28    27   ar
    60    72    74   am
    61    72    71    1
    62    68    71    1
    63    68    67    1
    64    23    24    1
    65    23    26    1
    66    33    32    1
    67    24    25    2
    68    32    31   ar
    69    93    94   ar
    70    94    95    1
    71    27    26    1
    72    27    29   ar
    73    31    29   ar
    74    62    61    2
    75    44    42    1
    76    41    42    2
    77    41    40    1
    78    61    60    1
    79    42    43    1
    80    39    40    1
    81    39    38    1
    82    60    59    1
    83    60    63    1
    84    38    35    1
    85    65    64   ar
    86    63    64    1
    87    64    66   ar
    88    35    34    1
    89    35    36    1
    90    36    37    2
