@<TRIPOS>MOLECULE
tmp/2wg1A05.pdb
 132 130 0 0 0
SMALL
GASTEIGER

@<TRIPOS>ATOM
      1  N         -4.0590   68.3870   69.9120 N.3    69  ASP69      -0.1239
      2  CA        -3.0210   68.4700   70.9420 C.3    69  ASP69       0.1674
      3  C         -3.4080   69.5070   71.9950 C.2    69  ASP69       0.2266
      4  O         -3.5000   70.6850   71.6840 O.2    69  ASP69      -0.2867
      5  CB        -1.6750   68.8080   70.2860 C.3    69  ASP69       0.1410
      6  CG        -0.5470   69.0820   71.2980 C.2    69  ASP69       0.3668
      7  OD1       -0.7570   68.9770   72.5190 O.co2  69  ASP69      -0.2456
      8  OD2        0.5780   69.4060   70.8670 O.co2  69  ASP69      -0.2456
      9  N         -0.0780   73.9340   65.1990 N.3    81  TRP81      -0.1241
     10  CA        -0.1940   72.7010   64.4330 C.3    81  TRP81       0.1605
     11  C         -1.6190   72.1640   64.4580 C.2    81  TRP81       0.2264
     12  O         -2.0050   71.3710   63.6010 O.2    81  TRP81      -0.2867
     13  CB         0.7880   71.6350   64.9610 C.3    81  TRP81       0.0550
     14  CG         2.2180   72.1070   64.9500 C.ar   81  TRP81       0.0003
     15  CD1        2.9510   72.5370   66.0240 C.ar   81  TRP81       0.0946
     16  CD2        3.0750   72.2430   63.8040 C.ar   81  TRP81       0.0152
     17  NE1        4.2140   72.9050   65.6210 N.ar   81  TRP81      -0.2442
     18  CE2        4.3150   72.7430   64.2640 C.ar   81  TRP81       0.0810
     19  CE3        2.9100   72.0080   62.4340 C.ar   81  TRP81       0.0012
     20  CZ2        5.4040   72.9780   63.4020 C.ar   81  TRP81       0.0191
     21  CZ3        3.9930   72.2420   61.5820 C.ar   81  TRP81       0.0001
     22  CH2        5.2210   72.7300   62.0730 C.ar   81  TRP81       0.0015
     23  N          2.1370   67.0090   56.9230 N.3   114  GLY114     -0.1210
     24  CA         2.3990   65.8900   57.8470 C.3   114  GLY114      0.1956
     25  C          1.4910   65.9340   59.0710 C.2   114  GLY114      0.2612
     26  O          0.4590   66.6380   59.0860 O.2   114  GLY114     -0.2717
     27  N          1.8820   65.2010   60.1120 N.am  115  GLY115     -0.1956
     28  CA         1.0460   65.0360   61.3020 C.3   115  GLY115      0.1869
     29  C          0.8960   63.5680   61.6980 C.2   115  GLY115      0.2309
     30  O         -0.0840   63.2110   62.3240 O.2   115  GLY115     -0.2863
     31  N         -2.1710   60.8970   61.6860 N.3   118  TYR118     -0.1227
     32  CA        -3.2880   60.9700   62.6440 C.3   118  TYR118      0.1736
     33  C         -3.8510   62.3870   62.7820 C.2   118  TYR118      0.2596
     34  O         -4.8690   62.6030   63.4670 O.2   118  TYR118     -0.2718
     35  CB        -2.8850   60.4360   64.0320 C.3   118  TYR118      0.0548
     36  CG        -1.9250   61.3310   64.8040 C.ar  118  TYR118     -0.0200
     37  CD1       -2.4070   62.3670   65.6160 C.ar  118  TYR118     -0.0009
     38  CD2       -0.5430   61.1570   64.7030 C.ar  118  TYR118     -0.0009
     39  CE1       -1.5300   63.2160   66.3150 C.ar  118  TYR118      0.0417
     40  CE2        0.3540   61.9820   65.4000 C.ar  118  TYR118      0.0417
     41  CZ        -0.1530   63.0130   66.2050 C.ar  118  TYR118      0.1957
     42  OH         0.7160   63.8480   66.8930 O.3   118  TYR118     -0.2866
     43  N         -3.1670   63.3520   62.1670 N.am  119  SER119     -0.1938
     44  CA        -3.5490   64.7410   62.2640 C.3   119  SER119      0.2055
     45  C         -2.9700   65.5170   61.1080 C.2   119  SER119      0.2643
     46  O         -2.2150   64.9580   60.2960 O.2   119  SER119     -0.2714
     47  CB        -3.0350   65.3320   63.5870 C.3   119  SER119      0.2130
     48  OG        -1.6140   65.4320   63.5730 O.3   119  SER119     -0.2179
     49  N         -3.2960   66.8130   61.0630 N.am  120  GLY120     -0.1954
     50  CA        -2.7240   67.7520   60.0980 C.3   120  GLY120      0.1869
     51  C         -3.8310   68.5070   59.3760 C.2   120  GLY120      0.2309
     52  O         -4.9680   68.0230   59.2900 O.2   120  GLY120     -0.2863
     53  N         -3.1180   75.7200   58.0500 N.3   124  LEU124     -0.1245
     54  CA        -2.2220   76.2940   59.0400 C.3   124  LEU124      0.1561
     55  C         -1.5530   77.5710   58.5530 C.2   124  LEU124      0.2260
     56  O         -1.2240   77.7110   57.3530 O.2   124  LEU124     -0.2867
     57  CB        -1.1450   75.2850   59.4460 C.3   124  LEU124      0.0270
     58  CG        -1.5600   73.9020   59.9880 C.3   124  LEU124      0.0019
     59  CD1       -0.3220   73.1890   60.5400 C.3   124  LEU124      0.0001
     60  CD2       -2.6840   73.9760   61.0570 C.3   124  LEU124      0.0001
     61  N          1.5510   76.9900   56.5900 N.3   127  TYR127     -0.1241
     62  CA         1.3780   76.4300   55.2240 C.3   127  TYR127      0.1605
     63  C          0.7710   77.4340   54.2130 C.2   127  TYR127      0.2264
     64  O          0.3530   77.0410   53.1230 O.2   127  TYR127     -0.2867
     65  CB         0.4820   75.1870   55.2440 C.3   127  TYR127      0.0534
     66  CG         0.9340   74.0320   56.1370 C.ar  127  TYR127     -0.0201
     67  CD1        2.2650   73.8860   56.5270 C.ar  127  TYR127     -0.0009
     68  CD2        0.0180   73.0710   56.5550 C.ar  127  TYR127     -0.0009
     69  CE1        2.6670   72.8190   57.3410 C.ar  127  TYR127      0.0417
     70  CE2        0.4030   72.0020   57.3530 C.ar  127  TYR127      0.0417
     71  CZ         1.7340   71.8880   57.7480 C.ar  127  TYR127      0.1957
     72  OH         2.1120   70.8430   58.5330 O.3   127  TYR127     -0.2866
     73  N          6.1600   67.3460   54.4270 N.3   196  GLU196     -0.1231
     74  CA         7.0410   67.1750   55.5730 C.3   196  GLU196      0.1699
     75  C          6.5340   66.0400   56.4660 C.2   196  GLU196      0.2592
     76  O          5.3130   65.8800   56.6690 O.2   196  GLU196     -0.2718
     77  CB         7.1820   68.4990   56.3680 C.3   196  GLU196      0.0402
     78  CG         8.2190   68.4660   57.5270 C.3   196  GLU196      0.1161
     79  CD         7.6160   68.0790   58.8710 C.2   196  GLU196      0.3649
     80  OE1        6.3770   67.9350   58.9220 O.co2 196  GLU196     -0.2457
     81  OE2        8.3750   67.9100   59.8810 O.co2 196  GLU196     -0.2457
     82  N          7.4780   65.2530   56.9750 N.am  197  SER197     -0.1952
     83  CA         7.1890   64.2070   57.9630 C.3   197  SER197      0.1924
     84  C          6.2160   63.1970   57.3230 C.2   197  SER197      0.2314
     85  O          6.5460   62.6470   56.2650 O.2   197  SER197     -0.2863
     86  CB         6.6870   64.8150   59.2940 C.3   197  SER197      0.2116
     87  OG         6.6000   63.8000   60.2960 O.3   197  SER197     -0.2180
     88  N         10.9680   66.7390   69.8660 N.3   327  PHE327     -0.1241
     89  CA         9.5430   66.9450   69.9910 C.3   327  PHE327      0.1605
     90  C          8.8050   65.7250   70.5900 C.2   327  PHE327      0.2264
     91  O          7.9070   65.8620   71.4230 O.2   327  PHE327     -0.2867
     92  CB         8.9640   67.2970   68.6150 C.3   327  PHE327      0.0534
     93  CG         7.5080   67.5730   68.6370 C.ar  327  PHE327     -0.0203
     94  CD1        7.0340   68.8130   69.0600 C.ar  327  PHE327     -0.0042
     95  CD2        6.5920   66.5940   68.2460 C.ar  327  PHE327     -0.0042
     96  CE1        5.6720   69.0850   69.0920 C.ar  327  PHE327     -0.0003
     97  CE2        5.2020   66.8640   68.2680 C.ar  327  PHE327     -0.0003
     98  CZ         4.7600   68.1110   68.6910 C.ar  327  PHE327     -0.0000
     99  N         14.2470   71.8740   65.7290 N.3   436  ILE436     -0.1231
    100  CA        13.1790   70.9380   66.0030 C.3   436  ILE436      0.1692
    101  C         12.5480   70.4230   64.7060 C.2   436  ILE436      0.2592
    102  O         12.4740   71.1470   63.7010 O.2   436  ILE436     -0.2718
    103  CB        12.1310   71.6640   66.8560 C.3   436  ILE436      0.0266
    104  CG1       12.7940   72.2110   68.1300 C.3   436  ILE436      0.0019
    105  CG2       10.8780   70.7920   67.1600 C.3   436  ILE436      0.0020
    106  CD1       11.8470   73.0350   68.9630 C.3   436  ILE436      0.0001
    107  N         12.1510   69.1500   64.7230 N.am  437  HIS437     -0.1962
    108  CA        11.2560   68.5860   63.7120 C.3   437  HIS437      0.1787
    109  C         10.2280   69.6530   63.3360 C.2   437  HIS437      0.2621
    110  O          9.6380   70.2520   64.2150 O.2   437  HIS437     -0.2715
    111  CB        10.5680   67.3960   64.3390 C.3   437  HIS437      0.0785
    112  CG         9.6410   66.6450   63.4320 C.ar  437  HIS437      0.0821
    113  ND1       10.0820   65.8930   62.3580 N.ar  437  HIS437     -0.2267
    114  CD2        8.2960   66.4550   63.5050 C.ar  437  HIS437      0.1154
    115  CE1        9.0410   65.2900   61.7980 C.ar  437  HIS437      0.1986
    116  NE2        7.9440   65.6220   62.4710 N.ar  437  HIS437     -0.2212
    117  N         10.0620   69.9240   62.0470 N.am  438  GLY438     -0.1940
    118  CA         8.9960   70.7970   61.5690 C.3   438  GLY438      0.2014
    119  C          9.3150   72.2860   61.4340 C.2   438  GLY438      0.2638
    120  O          8.5040   73.0500   60.8950 O.2   438  GLY438     -0.2714
    121  N         10.4860   72.7060   61.9010 N.am  439  TYR439     -0.1973
    122  CA        10.7810   74.1310   61.9720 C.3   439  TYR439      0.1639
    123  C         11.6510   74.6050   60.8230 C.2   439  TYR439      0.2290
    124  O         12.1500   75.7290   60.8410 O.2   439  TYR439     -0.2864
    125  CB        11.2960   74.5480   63.3850 C.3   439  TYR439      0.0560
    126  CG        10.1070   74.6440   64.3120 C.ar  439  TYR439     -0.0198
    127  CD1        9.6050   73.5050   64.9610 C.ar  439  TYR439     -0.0009
    128  CD2        9.3910   75.8430   64.4350 C.ar  439  TYR439     -0.0009
    129  CE1        8.4530   73.5740   65.7730 C.ar  439  TYR439      0.0417
    130  CE2        8.2320   75.9170   65.2320 C.ar  439  TYR439      0.0417
    131  CZ         7.7870   74.7850   65.8950 C.ar  439  TYR439      0.1957
    132  OH         6.6630   74.8560   66.6570 O.3   439  TYR439     -0.2866
@<TRIPOS>BOND
     1    64    63    2
     2    63    62    1
     3    73    74    1
     4    62    65    1
     5    62    61    1
     6    65    66    1
     7    74    77    1
     8    74    75    1
     9    66    67   ar
    10    66    68   ar
    11    85    84    2
    12    77    78    1
    13    75    76    2
    14    75    82   am
    15    67    69   ar
    16    68    70   ar
    17    23    24    1
    18    82    83    1
    19    84    83    1
    20    69    71   ar
    21    70    71   ar
    22    56    55    2
    23    78    79    1
    24    71    72    1
    25    24    25    1
    26    83    86    1
    27    53    54    1
    28    55    54    1
    29    79    80   ar
    30    79    81   ar
    31    54    57    1
    32    25    26    2
    33    25    27   am
    34    52    51    2
    35    86    87    1
    36    51    50    1
    37    57    58    1
    38    58    59    1
    39    58    60    1
    40    50    49    1
    41    27    28    1
    42    46    45    2
    43   123   124    2
    44   123   122    1
    45   120   119    2
    46    49    45   am
    47    45    44    1
    48    28    29    1
    49   119   118    1
    50   119   121   am
    51   118   117    1
    52    21    22   ar
    53    21    19   ar
    54    31    32    1
    55    29    30    2
    56   115   113   ar
    57   115   116   ar
    58   121   122    1
    59   122   125    1
    60   117   109   am
    61    22    20   ar
    62    43    44    1
    63    43    33   am
    64    44    47    1
    65   113   112   ar
    66    19    16   ar
    67   116   114   ar
    68    32    33    1
    69    32    35    1
    70    33    34    2
    71   109   108    1
    72   109   110    2
    73   125   126    1
    74    20    18   ar
    75   112   114   ar
    76   112   111    1
    77    48    47    1
    78    12    11    2
    79   102   101    2
    80   108   111    1
    81   108   107    1
    82    16    18   ar
    83    16    14   ar
    84    35    36    1
    85    18    17   ar
    86   126   128   ar
    87   126   127   ar
    88    10    11    1
    89    10    13    1
    90    10     9    1
    91   128   130   ar
    92    38    36   ar
    93    38    40   ar
    94   101   107   am
    95   101   100    1
    96    36    37   ar
    97    14    13    1
    98    14    15   ar
    99   127   129   ar
   100   130   131   ar
   101    40    41   ar
   102    37    39   ar
   103    17    15   ar
   104    99   100    1
   105   129   131   ar
   106   131   132    1
   107   100   103    1
   108    41    39   ar
   109    41    42    1
   110   103   105    1
   111   103   104    1
   112   104   106    1
   113    95    97   ar
   114    95    93   ar
   115    97    98   ar
   116    92    93    1
   117    92    89    1
   118    93    94   ar
   119    98    96   ar
   120    94    96   ar
   121    88    89    1
   122     1     2    1
   123    89    90    1
   124     5     2    1
   125     5     6    1
   126    90    91    2
   127     8     6   ar
   128     2     3    1
   129     6     7   ar
   130     4     3    2
