@<TRIPOS>MOLECULE
tmp/2wg9B00.pdb
 105 100 0 0 0
SMALL
GASTEIGER

@<TRIPOS>ATOM
      1  N        -19.2860   43.1000  -28.7940 N.3    18  ALA18      -0.1245
      2  CA       -18.5160   42.2880  -27.8450 C.3    18  ALA18       0.1562
      3  C        -17.0970   41.9020  -28.3060 C.2    18  ALA18       0.2260
      4  O        -16.1520   42.0470  -27.5290 O.2    18  ALA18      -0.2867
      5  CB       -19.3070   41.0540  -27.4090 C.3    18  ALA18       0.0290
      6  N        -15.1710   45.4780  -28.3990 N.3    21  LEU21      -0.1245
      7  CA       -15.3230   46.3760  -27.2590 C.3    21  LEU21       0.1561
      8  C        -13.9820   46.6910  -26.5890 C.2    21  LEU21       0.2260
      9  O        -13.2170   45.7800  -26.2720 O.2    21  LEU21      -0.2867
     10  CB       -16.2990   45.7390  -26.2570 C.3    21  LEU21       0.0270
     11  CG       -16.8550   46.4790  -25.0410 C.3    21  LEU21       0.0019
     12  CD1      -18.2560   45.9620  -24.7360 C.3    21  LEU21       0.0001
     13  CD2      -15.9530   46.3040  -23.8290 C.3    21  LEU21       0.0001
     14  N         -9.1220   48.2730  -19.0320 N.3    26  TYR26      -0.1227
     15  CA        -9.1380   46.8230  -18.8010 C.3    26  TYR26       0.1736
     16  C        -10.2260   46.0160  -19.5170 C.2    26  TYR26       0.2596
     17  O        -10.0000   44.8530  -19.8080 O.2    26  TYR26      -0.2718
     18  CB        -9.1870   46.5180  -17.3000 C.3    26  TYR26       0.0548
     19  CG        -7.9430   46.9240  -16.5360 C.ar   26  TYR26      -0.0200
     20  CD1       -7.8570   48.1750  -15.9040 C.ar   26  TYR26      -0.0009
     21  CD2       -6.8520   46.0650  -16.4460 C.ar   26  TYR26      -0.0009
     22  CE1       -6.7090   48.5440  -15.1910 C.ar   26  TYR26       0.0417
     23  CE2       -5.7020   46.4240  -15.7380 C.ar   26  TYR26       0.0417
     24  CZ        -5.6410   47.6580  -15.1140 C.ar   26  TYR26       0.1957
     25  OH        -4.5010   48.0030  -14.4300 O.3    26  TYR26      -0.2866
     26  N        -11.3880   46.6080  -19.7940 N.am   27  CYS27      -0.1956
     27  CA       -12.5230   45.8370  -20.3430 C.3    27  CYS27       0.1843
     28  C        -12.4210   45.5800  -21.8490 C.2    27  CYS27       0.2626
     29  O        -12.4970   46.5120  -22.6470 O.2    27  CYS27      -0.2714
     30  CB       -13.8670   46.5070  -20.0290 C.3    27  CYS27       0.0997
     31  SG       -14.2690   46.6610  -18.2820 S.3    27  CYS27      -0.0797
     32  N        -12.2650   44.3100  -22.2160 N.am   28  GLY28      -0.1940
     33  CA       -12.2300   43.8860  -23.6220 C.3    28  GLY28       0.2014
     34  C        -11.3860   42.6410  -23.8160 C.2    28  GLY28       0.2638
     35  O        -10.4890   42.3600  -23.0180 O.2    28  GLY28      -0.2714
     36  N        -11.6670   41.8930  -24.8850 N.am   29  ILE29      -0.1977
     37  CA       -10.9240   40.6690  -25.1850 C.3    29  ILE29       0.1596
     38  C         -9.5200   41.0590  -25.6460 C.2    29  ILE29       0.2287
     39  O         -9.3650   41.9250  -26.5120 O.2    29  ILE29      -0.2864
     40  CB       -11.6270   39.8080  -26.2760 C.3    29  ILE29       0.0276
     41  CG1      -13.0130   39.3460  -25.8040 C.3    29  ILE29       0.0022
     42  CG2      -10.7810   38.5870  -26.6360 C.3    29  ILE29       0.0022
     43  CD1      -13.9710   38.9760  -26.9460 C.3    29  ILE29       0.0001
     44  N        -13.1520   44.3910  -14.5620 N.3    47  CYS47      -0.1235
     45  CA       -12.3630   43.7870  -15.6410 C.3    47  CYS47       0.1677
     46  C        -10.9060   43.5880  -15.2450 C.2    47  CYS47       0.2270
     47  O        -10.2990   42.5620  -15.5730 O.2    47  CYS47      -0.2867
     48  CB       -12.4600   44.6310  -16.9150 C.3    47  CYS47       0.0956
     49  SG       -14.1640   44.7750  -17.5520 S.3    47  CYS47      -0.0801
     50  N        -10.6430   40.5160  -13.2330 N.3    50  HIS50      -0.1226
     51  CA       -10.8490   39.3770  -14.1330 C.3    50  HIS50       0.1752
     52  C         -9.6100   39.0610  -14.9800 C.2    50  HIS50       0.2596
     53  O         -9.2070   37.9050  -15.0900 O.2    50  HIS50      -0.2718
     54  CB       -12.0700   39.6160  -15.0290 C.3    50  HIS50       0.0759
     55  CG       -12.2970   38.5270  -16.0260 C.ar   50  HIS50       0.0818
     56  ND1      -11.7220   38.5360  -17.2810 N.ar   50  HIS50      -0.2268
     57  CD2      -13.0100   37.3790  -15.9460 C.ar   50  HIS50       0.1154
     58  CE1      -12.0880   37.4480  -17.9360 C.ar   50  HIS50       0.1986
     59  NE2      -12.8660   36.7270  -17.1470 N.ar   50  HIS50      -0.2212
     60  N         -9.0080   40.0870  -15.5700 N.am   51  ASP51      -0.1974
     61  CA        -7.8250   39.8980  -16.4040 C.3    51  ASP51       0.1709
     62  C         -6.6820   39.2440  -15.6360 C.2    51  ASP51       0.2293
     63  O         -6.0370   38.3240  -16.1340 O.2    51  ASP51      -0.2864
     64  CB        -7.3800   41.2220  -17.0040 C.3    51  ASP51       0.1436
     65  CG        -8.3600   41.7470  -18.0260 C.2    51  ASP51       0.3671
     66  OD1       -9.3700   41.0690  -18.2900 O.co2  51  ASP51      -0.2456
     67  OD2       -8.1320   42.8470  -18.5620 O.co2  51  ASP51      -0.2456
     68  N        -16.5950   37.9970  -11.7860 N.3    70  LEU70      -0.1245
     69  CA       -16.8650   39.1230  -12.6880 C.3    70  LEU70       0.1561
     70  C        -18.3640   39.4720  -12.7760 C.2    70  LEU70       0.2260
     71  O        -18.7350   40.6510  -12.7620 O.2    70  LEU70      -0.2867
     72  CB       -16.2730   38.8640  -14.0840 C.3    70  LEU70       0.0270
     73  CG       -16.4800   39.9460  -15.1540 C.3    70  LEU70       0.0019
     74  CD1      -16.1320   41.3450  -14.6510 C.3    70  LEU70       0.0001
     75  CD2      -15.6770   39.6190  -16.3900 C.3    70  LEU70       0.0001
     76  N        -23.4120   43.9400  -22.0240 N.3    95  VAL95      -0.1231
     77  CA       -22.7440   43.2450  -23.1370 C.3    95  VAL95       0.1692
     78  C        -21.6730   42.2920  -22.5940 C.2    95  VAL95       0.2591
     79  O        -21.6130   41.1190  -22.9820 O.2    95  VAL95      -0.2718
     80  CB       -22.1430   44.2530  -24.1600 C.3    95  VAL95       0.0266
     81  CG1      -21.2320   43.5590  -25.1900 C.3    95  VAL95       0.0020
     82  CG2      -23.2580   45.0200  -24.8730 C.3    95  VAL95       0.0020
     83  N        -20.8550   42.7950  -21.6680 N.am   96  ILE96      -0.1980
     84  CA       -19.8500   41.9780  -20.9960 C.3    96  ILE96       0.1595
     85  C        -20.5280   40.8470  -20.2140 C.2    96  ILE96       0.2287
     86  O        -20.1210   39.6860  -20.3240 O.2    96  ILE96      -0.2864
     87  CB       -18.9560   42.8300  -20.0480 C.3    96  ILE96       0.0276
     88  CG1      -18.2020   43.9040  -20.8420 C.3    96  ILE96       0.0022
     89  CG2      -18.0030   41.9400  -19.2490 C.3    96  ILE96       0.0022
     90  CD1      -17.4730   44.9210  -19.9880 C.3    96  ILE96       0.0001
     91  N        -21.6790   37.8280  -22.4010 N.3    99  VAL99      -0.1231
     92  CA       -20.5650   36.9860  -22.8450 C.3    99  VAL99       0.1692
     93  C        -20.0370   36.1320  -21.6950 C.2    99  VAL99       0.2591
     94  O        -19.7300   34.9480  -21.8820 O.2    99  VAL99      -0.2718
     95  CB       -19.4110   37.8230  -23.4550 C.3    99  VAL99       0.0266
     96  CG1      -18.2200   36.9330  -23.8150 C.3    99  VAL99       0.0020
     97  CG2      -19.8860   38.5720  -24.6860 C.3    99  VAL99       0.0020
     98  N        -19.9380   36.7330  -20.5100 N.am  100  ILE100     -0.1980
     99  CA       -19.4100   36.0390  -19.3340 C.3   100  ILE100      0.1595
    100  C        -20.3660   34.9660  -18.7830 C.2   100  ILE100      0.2287
    101  O        -19.9140   33.9210  -18.3170 O.2   100  ILE100     -0.2864
    102  CB       -18.9720   37.0350  -18.2260 C.3   100  ILE100      0.0276
    103  CG1      -17.9160   38.0230  -18.7610 C.3   100  ILE100      0.0022
    104  CG2      -18.4570   36.2910  -16.9840 C.3   100  ILE100      0.0022
    105  CD1      -16.6680   37.3810  -19.3900 C.3   100  ILE100      0.0001
@<TRIPOS>BOND
     1     1     2    1
     2     6     7    1
     3     3     2    1
     4     3     4    2
     5     2     5    1
     6     7     8    1
     7     7    10    1
     8    43    41    1
     9    42    40    1
    10     8     9    2
    11    39    38    2
    12    40    41    1
    13    40    37    1
    14    10    11    1
    15    38    37    1
    16    81    80    1
    17    37    36    1
    18    11    12    1
    19    11    13    1
    20    36    34   am
    21    82    80    1
    22    97    95    1
    23    80    77    1
    24    34    33    1
    25    34    35    2
    26    96    95    1
    27    33    32    1
    28    95    92    1
    29    77    78    1
    30    77    76    1
    31    79    78    2
    32    92    91    1
    33    92    93    1
    34    29    28    2
    35    78    83   am
    36    32    28   am
    37    94    93    2
    38    28    27    1
    39    93    98   am
    40    83    84    1
    41    84    85    1
    42    84    87    1
    43    88    87    1
    44    88    90    1
    45    98    99    1
    46    27    30    1
    47    27    26    1
    48    86    85    2
    49    87    89    1
    50    30    31    1
    51    17    16    2
    52    26    16   am
    53    16    15    1
    54   105   103    1
    55    99   100    1
    56    99   102    1
    57    14    15    1
    58    15    18    1
    59   100   101    2
    60   103   102    1
    61    67    65   ar
    62    66    65   ar
    63    31    49    1
    64   102   104    1
    65    65    64    1
    66    58    56   ar
    67    58    59   ar
    68    49    48    1
    69    18    19    1
    70    56    55   ar
    71    59    57   ar
    72    64    61    1
    73    48    45    1
    74    19    21   ar
    75    19    20   ar
    76    21    23   ar
    77    61    62    1
    78    61    60    1
    79    75    73    1
    80    63    62    2
    81    55    57   ar
    82    55    54    1
    83    20    22   ar
    84    23    24   ar
    85    45    46    1
    86    45    44    1
    87    47    46    2
    88    60    52   am
    89    22    24   ar
    90    73    74    1
    91    73    72    1
    92    24    25    1
    93    53    52    2
    94    54    51    1
    95    52    51    1
    96    51    50    1
    97    72    69    1
    98    70    71    2
    99    70    69    1
   100    69    68    1
