@<TRIPOS>MOLECULE
tmp/2wgfB01.pdb
 145 143 0 0 0
SMALL
GASTEIGER

@<TRIPOS>ATOM
      1  N         23.9270   22.1680   -0.9160 N.3    81  TYR81      -0.1241
      2  CA        24.8970   22.2250   -2.0060 C.3    81  TYR81       0.1605
      3  C         25.4860   23.6070   -2.2020 C.2    81  TYR81       0.2264
      4  O         26.7070   23.7550   -2.2320 O.2    81  TYR81      -0.2867
      5  CB        24.3010   21.7570   -3.3290 C.3    81  TYR81       0.0534
      6  CG        25.3020   21.8140   -4.4740 C.ar   81  TYR81      -0.0201
      7  CD1       26.1440   20.7320   -4.7440 C.ar   81  TYR81      -0.0009
      8  CD2       25.4220   22.9520   -5.2720 C.ar   81  TYR81      -0.0009
      9  CE1       27.0580   20.7750   -5.7790 C.ar   81  TYR81       0.0417
     10  CE2       26.3400   23.0030   -6.3140 C.ar   81  TYR81       0.0417
     11  CZ        27.1500   21.9110   -6.5620 C.ar   81  TYR81       0.1957
     12  OH        28.0580   21.9400   -7.5970 O.3    81  TYR81      -0.2866
     13  N         19.5380   31.2220   -7.5090 N.3   114  GLY114     -0.1210
     14  CA        18.2620   30.8970   -8.1240 C.3   114  GLY114      0.1956
     15  C         17.1370   30.5840   -7.1530 C.2   114  GLY114      0.2612
     16  O         16.0710   31.2010   -7.2320 O.2   114  GLY114     -0.2717
     17  N         17.3460   29.6250   -6.2510 N.am  115  LEU115     -0.1965
     18  CA        16.3270   29.3460   -5.2330 C.3   115  LEU115      0.1728
     19  C         16.8260   29.0590   -3.8050 C.2   115  LEU115      0.2616
     20  O         16.1230   29.3480   -2.8400 O.2   115  LEU115     -0.2715
     21  CB        15.3170   28.2800   -5.7010 C.3   115  LEU115      0.0311
     22  CG        15.7510   26.8450   -5.9870 C.3   115  LEU115      0.0022
     23  CD1       16.6880   26.3180   -4.9050 C.3   115  LEU115      0.0001
     24  CD2       14.5340   25.9290   -6.1350 C.3   115  LEU115      0.0001
     25  N         18.0240   28.4960   -3.6680 N.am  116  GLY116     -0.1955
     26  CA        18.5580   28.1820   -2.3510 C.3   116  GLY116      0.1869
     27  C         18.8790   26.7070   -2.2040 C.2   116  GLY116      0.2309
     28  O         19.1560   26.0300   -3.1950 O.2   116  GLY116     -0.2863
     29  N         17.3890   23.8230   -2.0300 N.3   118  ALA118     -0.1231
     30  CA        16.1340   23.1310   -2.3090 C.3   118  ALA118      0.1694
     31  C         16.1390   21.6140   -2.0810 C.2   118  ALA118      0.2591
     32  O         15.1000   21.0350   -1.7440 O.2   118  ALA118     -0.2718
     33  CB        15.6800   23.4450   -3.7250 C.3   118  ALA118      0.0304
     34  N         17.2900   20.9720   -2.2800 N.am  119  GLU119     -0.1979
     35  CA        17.4140   19.5300   -2.0490 C.3   119  GLU119      0.1602
     36  C         17.1040   19.1550   -0.5960 C.2   119  GLU119      0.2287
     37  O         16.6880   18.0300   -0.3010 O.2   119  GLU119     -0.2864
     38  CB        18.8110   19.0290   -2.4330 C.3   119  GLU119      0.0415
     39  CG        19.8790   19.2620   -1.3750 C.3   119  GLU119      0.1163
     40  CD        20.5080   20.6420   -1.4530 C.2   119  GLU119      0.3649
     41  OE1       21.6400   20.8070   -0.9550 O.co2 119  GLU119     -0.2457
     42  OE2       19.8800   21.5620   -2.0170 O.co2 119  GLU119     -0.2457
     43  N         25.0460   28.3520   -7.5620 N.3   198  GLU198     -0.1231
     44  CA        23.9140   27.6410   -8.1100 C.3   198  GLU198      0.1699
     45  C         24.1150   26.1360   -7.9390 C.2   198  GLU198      0.2593
     46  O         25.2530   25.6620   -7.8750 O.2   198  GLU198     -0.2718
     47  CB        23.7450   28.0240   -9.5830 C.3   198  GLU198      0.0402
     48  CG        22.3670   27.7420  -10.1640 C.3   198  GLU198      0.1161
     49  CD        21.2360   28.2010   -9.2530 C.2   198  GLU198      0.3649
     50  OE1       20.6310   29.2570   -9.5350 O.co2 198  GLU198     -0.2457
     51  OE2       20.9530   27.5040   -8.2550 O.co2 198  GLU198     -0.2457
     52  N         23.0100   25.3970   -7.8630 N.am  199  GLY199     -0.1943
     53  CA        23.0520   23.9460   -7.7510 C.3   199  GLY199      0.1998
     54  C         23.3960   23.2260   -9.0470 C.2   199  GLY199      0.2481
     55  O         23.5730   23.8590  -10.0930 O.2   199  GLY199     -0.2729
     56  N         23.4900   21.8880   -8.9910 N.am  200  PRO200     -0.2715
     57  CA        23.9230   21.1390  -10.1740 C.3   200  PRO200      0.1536
     58  C         22.7850   20.7810  -11.1300 C.2   200  PRO200      0.2598
     59  O         21.6000   20.9410  -10.8190 O.2   200  PRO200     -0.2715
     60  CB        24.5390   19.8540   -9.5810 C.3   200  PRO200      0.0310
     61  CG        24.4400   19.9870   -8.0770 C.3   200  PRO200      0.0237
     62  CD        23.3880   21.0200   -7.8100 C.3   200  PRO200      0.0939
     63  N         23.1640   20.3130  -12.3110 N.am  201  ILE201     -0.1964
     64  CA        22.2250   19.6650  -13.2150 C.3   201  ILE201      0.1727
     65  C         21.6440   18.4380  -12.5090 C.2   201  ILE201      0.2616
     66  O         22.3840   17.5590  -12.0700 O.2   201  ILE201     -0.2715
     67  CB        22.9240   19.2400  -14.5260 C.3   201  ILE201      0.0290
     68  CG1       23.4630   20.4760  -15.2590 C.3   201  ILE201      0.0022
     69  CG2       21.9760   18.4540  -15.4180 C.3   201  ILE201      0.0023
     70  CD1       24.3900   20.1630  -16.4030 C.3   201  ILE201      0.0001
     71  N         20.3190   18.4070  -12.3860 N.am  202  GLU202     -0.1977
     72  CA        19.6030   17.2960  -11.7580 C.3   202  GLU202      0.1602
     73  C         18.2910   17.0120  -12.4870 C.2   202  GLU202      0.2287
     74  O         17.8110   17.8450  -13.2600 O.2   202  GLU202     -0.2864
     75  CB        19.3470   17.5660  -10.2680 C.3   202  GLU202      0.0415
     76  CG        20.3590   16.9090   -9.3320 C.3   202  GLU202      0.1163
     77  CD        20.2070   15.3930   -9.2760 C.2   202  GLU202      0.3649
     78  OE1       19.3000   14.8550   -9.9450 O.co2 202  GLU202     -0.2457
     79  OE2       20.9910   14.7370   -8.5590 O.co2 202  GLU202     -0.2457
     80  N         15.1770   19.6890  -12.1040 N.3   205  PRO205     -0.2116
     81  CA        15.4400   20.9420  -12.8320 C.3   205  PRO205      0.1372
     82  C         15.3140   20.8190  -14.3590 C.2   205  PRO205      0.2244
     83  O         14.7110   21.6900  -14.9920 O.2   205  PRO205     -0.2868
     84  CB        16.8810   21.2780  -12.4350 C.3   205  PRO205      0.0268
     85  CG        17.0280   20.6990  -11.0710 C.3   205  PRO205      0.0207
     86  CD        16.2050   19.4290  -11.0790 C.3   205  PRO205      0.0892
     87  N         12.4010   22.8230  -16.6770 N.3   209  PHE209     -0.1241
     88  CA        12.8320   23.7980  -17.6830 C.3   209  PHE209      0.1605
     89  C         12.5050   23.3910  -19.1200 C.2   209  PHE209      0.2264
     90  O         12.3280   24.2490  -19.9830 O.2   209  PHE209     -0.2867
     91  CB        14.3330   24.1110  -17.5470 C.3   209  PHE209      0.0534
     92  CG        14.6470   25.2170  -16.5640 C.ar  209  PHE209     -0.0203
     93  CD1       14.2670   26.5230  -16.8240 C.ar  209  PHE209     -0.0042
     94  CD2       15.3310   24.9460  -15.3870 C.ar  209  PHE209     -0.0042
     95  CE1       14.5580   27.5440  -15.9260 C.ar  209  PHE209     -0.0003
     96  CE2       15.6220   25.9600  -14.4820 C.ar  209  PHE209     -0.0003
     97  CZ        15.2360   27.2620  -14.7530 C.ar  209  PHE209     -0.0000
     98  N         22.2080   23.7680  -20.0380 N.3   238  PHE238     -0.1227
     99  CA        22.7020   23.8660  -18.6660 C.3   238  PHE238      0.1736
    100  C         24.2210   23.7870  -18.6890 C.2   238  PHE238      0.2596
    101  O         24.7940   22.9110  -19.3370 O.2   238  PHE238     -0.2718
    102  CB        22.1510   22.7420  -17.7750 C.3   238  PHE238      0.0547
    103  CG        20.8130   23.0490  -17.1340 C.ar  238  PHE238     -0.0202
    104  CD1       20.5040   24.3300  -16.6960 C.ar  238  PHE238     -0.0042
    105  CD2       19.8840   22.0370  -16.9300 C.ar  238  PHE238     -0.0042
    106  CE1       19.2780   24.5960  -16.0960 C.ar  238  PHE238     -0.0003
    107  CE2       18.6640   22.2960  -16.3300 C.ar  238  PHE238     -0.0003
    108  CZ        18.3570   23.5750  -15.9140 C.ar  238  PHE238     -0.0000
    109  N         24.8680   24.7090  -17.9880 N.am  239  GLY239     -0.1942
    110  CA        26.3050   24.6640  -17.7900 C.3   239  GLY239      0.2014
    111  C         26.5860   25.0710  -16.3610 C.2   239  GLY239      0.2638
    112  O         26.2790   26.1900  -15.9630 O.2   239  GLY239     -0.2714
    113  N         27.1590   24.1650  -15.5810 N.am  240  GLU240     -0.1977
    114  CA        27.3550   24.4030  -14.1540 C.3   240  GLU240      0.1602
    115  C         28.4400   25.4360  -13.8510 C.2   240  GLU240      0.2287
    116  O         29.4640   25.5130  -14.5340 O.2   240  GLU240     -0.2864
    117  CB        27.6690   23.0970  -13.4290 C.3   240  GLU240      0.0415
    118  CG        26.4840   22.1630  -13.2770 C.3   240  GLU240      0.1163
    119  CD        26.8470   20.8890  -12.5480 C.2   240  GLU240      0.3649
    120  OE1       27.8180   20.8990  -11.7630 O.co2 240  GLU240     -0.2457
    121  OE2       26.1550   19.8770  -12.7550 O.co2 240  GLU240     -0.2457
    122  N         24.3950   27.6860  -19.4080 N.3   344  HIS344     -0.1226
    123  CA        23.6020   28.5320  -18.5130 C.3   344  HIS344      0.1752
    124  C         23.6940   28.0750  -17.0440 C.2   344  HIS344      0.2597
    125  O         23.3530   26.9350  -16.7220 O.2   344  HIS344     -0.2718
    126  CB        22.1350   28.5220  -18.9490 C.3   344  HIS344      0.0759
    127  CG        21.3990   29.7780  -18.6070 C.ar  344  HIS344      0.0818
    128  ND1       21.6080   30.4650  -17.4330 N.ar  344  HIS344     -0.2268
    129  CD2       20.4520   30.4710  -19.2830 C.ar  344  HIS344      0.1154
    130  CE1       20.8260   31.5280  -17.3990 C.ar  344  HIS344      0.1986
    131  NE2       20.1150   31.5550  -18.5110 N.ar  344  HIS344     -0.2212
    132  N         24.1390   28.9650  -16.1550 N.am  345  SER345     -0.1938
    133  CA        24.2360   28.6190  -14.7350 C.3   345  SER345      0.2055
    134  C         23.1700   29.2950  -13.8730 C.2   345  SER345      0.2642
    135  O         23.2670   29.2980  -12.6510 O.2   345  SER345     -0.2714
    136  CB        25.6560   28.8480  -14.1640 C.3   345  SER345      0.2130
    137  OG        26.2380   30.0740  -14.5960 O.3   345  SER345     -0.2179
    138  N         22.1500   29.8480  -14.5200 N.am  346  ILE346     -0.1977
    139  CA        21.0150   30.4550  -13.8240 C.3   346  ILE346      0.1596
    140  C         21.4560   31.4750  -12.7610 C.2   346  ILE346      0.2287
    141  O         21.9540   32.5570  -13.0990 O.2   346  ILE346     -0.2864
    142  CB        20.0680   29.3740  -13.2330 C.3   346  ILE346      0.0276
    143  CG1       19.7680   28.2900  -14.2840 C.3   346  ILE346      0.0022
    144  CG2       18.7780   30.0010  -12.6810 C.3   346  ILE346      0.0022
    145  CD1       19.1290   28.8060  -15.5880 C.3   346  ILE346      0.0001
@<TRIPOS>BOND
     1    98    99    1
     2    90    89    2
     3   122   123    1
     4   101   100    2
     5   129   127   ar
     6   129   131   ar
     7    89    88    1
     8   126   127    1
     9   126   123    1
    10   100    99    1
    11   100   109   am
    12    99   102    1
    13   127   128   ar
    14   123   124    1
    15   131   130   ar
    16   109   110    1
    17   110   111    1
    18   102   103    1
    19    88    91    1
    20    88    87    1
    21    91    92    1
    22   128   130   ar
    23   103   105   ar
    24   103   104   ar
    25   124   125    2
    26   124   132   am
    27   105   107   ar
    28    93    92   ar
    29    93    95   ar
    30   104   106   ar
    31    92    94   ar
    32    70    68    1
    33   111   112    2
    34   111   113   am
    35   107   108   ar
    36   132   133    1
    37   106   108   ar
    38    95    97   ar
    39   145   143    1
    40   113   114    1
    41    69    67    1
    42    94    96   ar
    43    68    67    1
    44    83    82    2
    45    97    96   ar
    46   133   136    1
    47   133   134    1
    48   137   136    1
    49   116   115    2
    50    67    64    1
    51   138   134   am
    52   138   139    1
    53    82    81    1
    54   143   142    1
    55   114   115    1
    56   114   117    1
    57   134   135    2
    58   139   142    1
    59   139   140    1
    60   117   118    1
    61   118   119    1
    62    74    73    2
    63   142   144    1
    64    64    65    1
    65    64    63    1
    66   141   140    2
    67    81    84    1
    68    81    80    1
    69   121   119   ar
    70   119   120   ar
    71    65    71   am
    72    65    66    2
    73    73    72    1
    74    84    85    1
    75    71    72    1
    76    63    58   am
    77    80    86    1
    78    72    75    1
    79    58    59    2
    80    58    57    1
    81    86    85    1
    82    75    76    1
    83    57    60    1
    84    57    56    1
    85    48    47    1
    86    48    49    1
    87    55    54    2
    88    78    77   ar
    89    47    44    1
    90    60    61    1
    91    50    49   ar
    92    76    77    1
    93    77    79   ar
    94    49    51   ar
    95    54    56   am
    96    54    53    1
    97    56    62    1
    98    14    13    1
    99    14    15    1
   100    44    45    1
   101    44    43    1
   102    61    62    1
   103    45    46    2
   104    45    52   am
   105    52    53    1
   106    12    11    1
   107    16    15    2
   108    15    17   am
   109    11    10   ar
   110    11     9   ar
   111    10     8   ar
   112    17    18    1
   113    24    22    1
   114    22    21    1
   115    22    23    1
   116     9     7   ar
   117    21    18    1
   118     8     6   ar
   119    18    19    1
   120     7     6   ar
   121     6     5    1
   122    19    25   am
   123    19    20    2
   124    33    30    1
   125    25    26    1
   126     5     2    1
   127    28    27    2
   128    38    35    1
   129    38    39    1
   130    26    27    1
   131    30    31    1
   132    30    29    1
   133    34    31   am
   134    34    35    1
   135     4     3    2
   136     3     2    1
   137    31    32    2
   138    35    36    1
   139    42    40   ar
   140     2     1    1
   141    40    39    1
   142    40    41   ar
   143    36    37    2
