@<TRIPOS>MOLECULE
tmp/2wgfD01.pdb
 86 80 0 0 0
SMALL
GASTEIGER

@<TRIPOS>ATOM
      1  N         59.3550   40.3420  -45.9060 N.3   114  GLY114     -0.1210
      2  CA        58.0650   40.7100  -45.3480 C.3   114  GLY114      0.1956
      3  C         56.9570   40.8960  -46.3600 C.2   114  GLY114      0.2611
      4  O         55.9160   40.2300  -46.2670 O.2   114  GLY114     -0.2717
      5  N         57.1510   41.8150  -47.3080 N.am  115  LEU115     -0.1979
      6  CA        56.1670   42.0050  -48.3830 C.3   115  LEU115      0.1596
      7  C         56.7240   42.1990  -49.7960 C.2   115  LEU115      0.2287
      8  O         56.1190   41.7350  -50.7620 O.2   115  LEU115     -0.2864
      9  CB        55.1420   43.1020  -48.0530 C.3   115  LEU115      0.0297
     10  CG        55.4670   44.3190  -47.1920 C.3   115  LEU115      0.0022
     11  CD1       56.8570   44.8680  -47.4650 C.3   115  LEU115      0.0001
     12  CD2       54.4010   45.3850  -47.4390 C.3   115  LEU115      0.0001
     13  N         57.4350   47.4800  -51.6960 N.3   118  ALA118     -0.1231
     14  CA        56.1520   48.1680  -51.5700 C.3   118  ALA118      0.1694
     15  C         56.2020   49.6770  -51.7450 C.2   118  ALA118      0.2591
     16  O         55.1660   50.3110  -51.9630 O.2   118  ALA118     -0.2718
     17  CB        55.5190   47.8320  -50.2290 C.3   118  ALA118      0.0304
     18  N         57.3890   50.2640  -51.6300 N.am  119  GLU119     -0.1979
     19  CA        57.5020   51.7110  -51.7570 C.3   119  GLU119      0.1602
     20  C         57.3160   52.0910  -53.2160 C.2   119  GLU119      0.2287
     21  O         56.9680   53.2260  -53.5340 O.2   119  GLU119     -0.2864
     22  CB        58.8380   52.2330  -51.2150 C.3   119  GLU119      0.0415
     23  CG        60.0160   52.1160  -52.1760 C.3   119  GLU119      0.1163
     24  CD        60.6840   50.7600  -52.1290 C.2   119  GLU119      0.3649
     25  OE1       61.7800   50.6140  -52.7110 O.co2 119  GLU119     -0.2457
     26  OE2       60.1180   49.8360  -51.5090 O.co2 119  GLU119     -0.2457
     27  N         53.3380   52.4570  -53.7100 N.3   122  VAL122     -0.1245
     28  CA        52.8050   53.7400  -53.2570 C.3   122  VAL122      0.1561
     29  C         53.3490   54.8910  -54.0910 C.2   122  VAL122      0.2260
     30  O         52.7130   55.9330  -54.2030 O.2   122  VAL122     -0.2867
     31  CB        53.0970   53.9910  -51.7540 C.3   122  VAL122      0.0252
     32  CG1       52.4470   52.9180  -50.8960 C.3   122  VAL122      0.0019
     33  CG2       54.5840   54.0430  -51.4920 C.3   122  VAL122      0.0019
     34  N         55.5170   36.0820  -43.0000 N.3   169  ALA169     -0.1245
     35  CA        55.6360   37.2130  -42.0900 C.3   169  ALA169      0.1562
     36  C         56.9540   37.1550  -41.3260 C.2   169  ALA169      0.2260
     37  O         58.0200   37.1640  -41.9310 O.2   169  ALA169     -0.2867
     38  CB        54.4500   37.2720  -41.1360 C.3   169  ALA169      0.0290
     39  N         60.0660   52.9520  -41.2220 N.3   202  GLU202     -0.1245
     40  CA        59.3610   54.0760  -41.8380 C.3   202  GLU202      0.1567
     41  C         58.0310   54.3280  -41.1490 C.2   202  GLU202      0.2260
     42  O         57.5370   53.4730  -40.4260 O.2   202  GLU202     -0.2867
     43  CB        59.1340   53.8370  -43.3260 C.3   202  GLU202      0.0388
     44  CG        60.2050   54.4530  -44.2010 C.3   202  GLU202      0.1160
     45  CD        60.2190   55.9620  -44.1040 C.2   202  GLU202      0.3649
     46  OE1       59.1550   56.5450  -43.7880 O.co2 202  GLU202     -0.2457
     47  OE2       61.2950   56.5610  -44.3400 O.co2 202  GLU202     -0.2457
     48  N         54.7100   54.5970  -41.9980 N.3   204  LEU204     -0.1231
     49  CA        53.5370   53.7530  -42.2240 C.3   204  LEU204      0.1678
     50  C         53.6180   52.3960  -41.4990 C.2   204  LEU204      0.2434
     51  O         52.6600   51.9960  -40.8270 O.2   204  LEU204     -0.2733
     52  CB        53.2720   53.6040  -43.7300 C.3   204  LEU204      0.0284
     53  CG        51.9240   53.0550  -44.1990 C.3   204  LEU204      0.0019
     54  CD1       50.7810   53.4220  -43.2280 C.3   204  LEU204      0.0001
     55  CD2       51.6260   53.5220  -45.6280 C.3   204  LEU204      0.0001
     56  N         54.7610   51.6850  -41.6340 N.am  205  PRO205     -0.2729
     57  CA        55.0610   50.4480  -40.8940 C.3   205  PRO205      0.1401
     58  C         54.9740   50.5690  -39.3710 C.2   205  PRO205      0.2269
     59  O         54.4560   49.6510  -38.7270 O.2   205  PRO205     -0.2865
     60  CB        56.4940   50.1430  -41.3120 C.3   205  PRO205      0.0296
     61  CG        56.5680   50.6510  -42.6920 C.3   205  PRO205      0.0237
     62  CD        55.7710   51.9310  -42.6810 C.3   205  PRO205      0.0939
     63  N         51.1490   50.9870  -38.5840 N.3   208  ALA208     -0.1231
     64  CA        50.3550   49.7610  -38.7220 C.3   208  ALA208      0.1694
     65  C         50.5940   48.7850  -37.5790 C.2   208  ALA208      0.2592
     66  O         49.6600   48.1340  -37.0980 O.2   208  ALA208     -0.2718
     67  CB        50.6410   49.0900  -40.0550 C.3   208  ALA208      0.0304
     68  N         51.8530   48.6790  -37.1580 N.am  209  PHE209     -0.1976
     69  CA        52.2350   47.7620  -36.0980 C.3   209  PHE209      0.1639
     70  C         51.8450   48.2810  -34.7180 C.2   209  PHE209      0.2290
     71  O         51.5170   47.4960  -33.8290 O.2   209  PHE209     -0.2864
     72  CB        53.7360   47.4620  -36.1450 C.3   209  PHE209      0.0560
     73  CG        54.1110   46.3690  -37.1080 C.ar  209  PHE209     -0.0200
     74  CD1       53.8790   45.0370  -36.7900 C.ar  209  PHE209     -0.0042
     75  CD2       54.7030   46.6670  -38.3300 C.ar  209  PHE209     -0.0042
     76  CE1       54.2180   44.0200  -37.6800 C.ar  209  PHE209     -0.0003
     77  CE2       55.0540   45.6590  -39.2190 C.ar  209  PHE209     -0.0003
     78  CZ        54.8120   44.3310  -38.8910 C.ar  209  PHE209     -0.0000
     79  N         61.4770   41.7090  -38.8560 N.3   346  ILE346     -0.1245
     80  CA        60.3350   41.1190  -39.5390 C.3   346  ILE346      0.1561
     81  C         60.7420   39.9730  -40.4900 C.2   346  ILE346      0.2260
     82  O         61.0290   38.8610  -40.0400 O.2   346  ILE346     -0.2867
     83  CB        59.5110   42.2140  -40.2560 C.3   346  ILE346      0.0252
     84  CG1       59.4230   43.4600  -39.3710 C.3   346  ILE346      0.0019
     85  CG2       58.1170   41.7140  -40.6270 C.3   346  ILE346      0.0019
     86  CD1       58.8260   43.2150  -37.9850 C.3   346  ILE346      0.0001
@<TRIPOS>BOND
     1    30    29    2
     2    29    28    1
     3    27    28    1
     4    21    20    2
     5    28    31    1
     6    20    19    1
     7    25    24   ar
     8    23    24    1
     9    23    22    1
    10    24    26   ar
    11    16    15    2
    12    19    18    1
    13    19    22    1
    14    31    33    1
    15    31    32    1
    16    15    18   am
    17    15    14    1
    18    13    14    1
    19    14    17    1
    20     8     7    2
    21     7     6    1
    22     6     9    1
    23     6     5    1
    24     9    10    1
    25    11    10    1
    26    12    10    1
    27     5     3   am
    28     3     4    2
    29     3     2    1
    30     1     2    1
    31    55    53    1
    32    47    45   ar
    33    44    45    1
    34    44    43    1
    35    53    52    1
    36    53    54    1
    37    45    46   ar
    38    52    49    1
    39    43    40    1
    40    34    35    1
    41    61    62    1
    42    61    60    1
    43    62    56    1
    44    49    48    1
    45    49    50    1
    46    35    36    1
    47    35    38    1
    48    37    36    2
    49    40    39    1
    50    40    41    1
    51    56    50   am
    52    56    57    1
    53    50    51    2
    54    60    57    1
    55    41    42    2
    56    57    58    1
    57    85    83    1
    58    81    82    2
    59    81    80    1
    60    83    80    1
    61    83    84    1
    62    67    64    1
    63    80    79    1
    64    84    86    1
    65    58    59    2
    66    77    78   ar
    67    77    75   ar
    68    78    76   ar
    69    64    63    1
    70    64    65    1
    71    75    73   ar
    72    76    74   ar
    73    65    68   am
    74    65    66    2
    75    68    69    1
    76    73    74   ar
    77    73    72    1
    78    72    69    1
    79    69    70    1
    80    70    71    2
