@<TRIPOS>MOLECULE
tmp/2wggG02.pdb
 164 160 0 0 0
SMALL
GASTEIGER

@<TRIPOS>ATOM
      1  N         68.1190   66.4420  -11.9890 N.3   170  GLN170     -0.1245
      2  CA        67.4940   67.5450  -12.7170 C.3   170  GLN170      0.1566
      3  C         65.9750   67.6540  -12.5690 C.2   170  GLN170      0.2260
      4  O         65.3890   68.6080  -13.0760 O.2   170  GLN170     -0.2867
      5  CB        67.8890   67.5180  -14.2080 C.3   170  GLN170      0.0367
      6  CG        69.3920   67.6490  -14.4870 C.3   170  GLN170      0.0905
      7  CD        70.0810   66.3040  -14.7020 C.2   170  GLN170      0.2608
      8  OE1       69.7340   65.3160  -14.0630 O.2   170  GLN170     -0.2717
      9  NE2       71.0680   66.2680  -15.6020 N.am  170  GLN170     -0.0878
     10  N         77.2440   66.3180  -23.0190 N.3   214  ALA214     -0.1245
     11  CA        75.8280   66.6570  -22.8500 C.3   214  ALA214      0.1562
     12  C         75.5100   68.1330  -23.1170 C.2   214  ALA214      0.2260
     13  O         74.3400   68.5230  -23.2430 O.2   214  ALA214     -0.2867
     14  CB        75.3940   66.2860  -21.4530 C.3   214  ALA214      0.0290
     15  N         72.6800   70.8830  -23.7000 N.3   236  PHE236     -0.1241
     16  CA        72.2070   71.9510  -22.8170 C.3   236  PHE236      0.1605
     17  C         73.2030   73.0920  -22.5000 C.2   236  PHE236      0.2264
     18  O         74.4220   73.0100  -22.7060 O.2   236  PHE236     -0.2867
     19  CB        71.5680   71.3750  -21.5280 C.3   236  PHE236      0.0534
     20  CG        72.5650   70.9600  -20.4700 C.ar  236  PHE236     -0.0203
     21  CD1       73.0050   71.8610  -19.5130 C.ar  236  PHE236     -0.0042
     22  CD2       73.0460   69.6620  -20.4220 C.ar  236  PHE236     -0.0042
     23  CE1       73.9180   71.4760  -18.5420 C.ar  236  PHE236     -0.0003
     24  CE2       73.9640   69.2700  -19.4510 C.ar  236  PHE236     -0.0003
     25  CZ        74.3980   70.1740  -18.5190 C.ar  236  PHE236     -0.0000
     26  N         62.5180   55.0320  -14.9790 N.3   272  ASP272     -0.1239
     27  CA        62.6860   54.3720  -16.2690 C.3   272  ASP272      0.1674
     28  C         63.2090   52.9610  -16.1030 C.2   272  ASP272      0.2266
     29  O         62.8970   52.0830  -16.9150 O.2   272  ASP272     -0.2867
     30  CB        63.7250   55.1200  -17.1080 C.3   272  ASP272      0.1410
     31  CG        63.1640   56.3250  -17.8100 C.2   272  ASP272      0.3668
     32  OD1       61.9420   56.5820  -17.6670 O.co2 272  ASP272     -0.2456
     33  OD2       63.9610   57.0020  -18.5160 O.co2 272  ASP272     -0.2456
     34  N         68.7180   53.4750  -18.0460 N.3   275  HIS275     -0.1226
     35  CA        70.1110   53.8850  -18.0790 C.3   275  HIS275      0.1752
     36  C         70.2290   54.9970  -17.0630 C.2   275  HIS275      0.2596
     37  O         69.2580   55.7030  -16.8080 O.2   275  HIS275     -0.2718
     38  CB        70.4970   54.3990  -19.4800 C.3   275  HIS275      0.0759
     39  CG        71.9770   54.4550  -19.7350 C.ar  275  HIS275      0.0818
     40  ND1       72.7680   55.4900  -19.2710 N.ar  275  HIS275     -0.2268
     41  CD2       72.8010   53.6300  -20.4140 C.ar  275  HIS275      0.1154
     42  CE1       74.0260   55.2780  -19.6460 C.ar  275  HIS275      0.1986
     43  NE2       74.0650   54.1530  -20.3360 N.ar  275  HIS275     -0.2212
     44  N         71.4240   55.1460  -16.4990 N.am  276  MET276     -0.1965
     45  CA        71.7170   56.1330  -15.4690 C.3   276  MET276      0.1736
     46  C         71.6770   57.5780  -15.9620 C.2   276  MET276      0.2616
     47  O         71.3190   58.4840  -15.2060 O.2   276  MET276     -0.2715
     48  CB        73.1030   55.8670  -14.8700 C.3   276  MET276      0.0427
     49  CG        73.1910   54.6660  -13.9530 C.3   276  MET276      0.0599
     50  SD        72.2680   54.8510  -12.4140 S.3   276  MET276     -0.1393
     51  CE        73.2730   55.9840  -11.4490 C.3   276  MET276      0.0692
     52  N         72.0630   57.7930  -17.2180 N.am  277  VAL277     -0.1963
     53  CA        72.1880   59.1470  -17.7410 C.3   277  VAL277      0.1727
     54  C         71.5510   59.3520  -19.1100 C.2   277  VAL277      0.2616
     55  O         71.6890   60.4180  -19.7010 O.2   277  VAL277     -0.2715
     56  CB        73.6720   59.6060  -17.7950 C.3   277  VAL277      0.0290
     57  CG1       74.2720   59.6400  -16.4020 C.3   277  VAL277      0.0023
     58  CG2       74.4750   58.6960  -18.7040 C.3   277  VAL277      0.0023
     59  N         70.8710   58.3260  -19.6180 N.am  278  ALA278     -0.1964
     60  CA        70.0560   58.4710  -20.8170 C.3   278  ALA278      0.1713
     61  C         68.5970   58.0830  -20.5300 C.2   278  ALA278      0.2458
     62  O         68.3300   57.0820  -19.8550 O.2   278  ALA278     -0.2730
     63  CB        70.6250   57.6310  -21.9640 C.3   278  ALA278      0.0333
     64  N         67.6420   58.8770  -21.0420 N.am  279  PRO279     -0.2727
     65  CA        66.2300   58.5210  -20.8470 C.3   279  PRO279      0.1402
     66  C         65.8080   57.3480  -21.7300 C.2   279  PRO279      0.2269
     67  O         66.3840   57.1460  -22.8030 O.2   279  PRO279     -0.2865
     68  CB        65.4850   59.7920  -21.2750 C.3   279  PRO279      0.0296
     69  CG        66.4060   60.4940  -22.2040 C.3   279  PRO279      0.0237
     70  CD        67.8150   60.1400  -21.7880 C.3   279  PRO279      0.0939
     71  N         60.4400   69.6920  -20.1270 N.3   310  HIS310     -0.1241
     72  CA        61.7630   69.7100  -19.5240 C.3   310  HIS310      0.1621
     73  C         62.7980   70.1540  -20.5830 C.2   310  HIS310      0.2264
     74  O         63.7390   70.9030  -20.2810 O.2   310  HIS310     -0.2867
     75  CB        62.0920   68.3400  -18.9000 C.3   310  HIS310      0.0745
     76  CG        63.4150   68.2790  -18.2180 C.ar  310  HIS310      0.0817
     77  ND1       63.6470   68.8620  -16.9710 N.ar  310  HIS310     -0.2268
     78  CD2       64.5920   67.7080  -18.5790 C.ar  310  HIS310      0.1154
     79  CE1       64.9080   68.6390  -16.6280 C.ar  310  HIS310      0.1986
     80  NE2       65.4920   67.9540  -17.5700 N.ar  310  HIS310     -0.2212
     81  N         65.6770   69.8860  -22.6150 N.3   312  THR312     -0.1218
     82  CA        67.0760   70.2340  -22.3540 C.3   312  THR312      0.1862
     83  C         67.8860   70.7070  -23.5710 C.2   312  THR312      0.2287
     84  O         68.8710   71.4270  -23.4110 O.2   312  THR312     -0.2866
     85  CB        67.8350   69.0310  -21.7270 C.3   312  THR312      0.1770
     86  OG1       67.7910   67.9090  -22.6210 O.3   312  THR312     -0.2211
     87  CG2       67.2160   68.6410  -20.3920 C.3   312  THR312      0.0375
     88  N         69.2040   68.3700  -25.6130 N.3   314  THR314     -0.1218
     89  CA        70.0170   67.2310  -26.0050 C.3   314  THR314      0.1862
     90  C         69.2570   66.5110  -27.1140 C.2   314  THR314      0.2287
     91  O         68.0240   66.4370  -27.0780 O.2   314  THR314     -0.2866
     92  CB        70.2750   66.2540  -24.8310 C.3   314  THR314      0.1770
     93  OG1       69.0270   65.8770  -24.2330 O.3   314  THR314     -0.2211
     94  CG2       71.2200   66.8770  -23.7710 C.3   314  THR314      0.0375
     95  N         69.0630   63.1430  -27.8350 N.3   316  ILE316     -0.1231
     96  CA        68.2560   62.0490  -27.2650 C.3   316  ILE316      0.1692
     97  C         67.1940   62.4830  -26.2520 C.2   316  ILE316      0.2592
     98  O         66.1120   61.8880  -26.1910 O.2   316  ILE316     -0.2718
     99  CB        69.1110   60.9420  -26.5870 C.3   316  ILE316      0.0266
    100  CG1       69.9150   61.5030  -25.4180 C.3   316  ILE316      0.0019
    101  CG2       70.0280   60.3000  -27.6020 C.3   316  ILE316      0.0020
    102  CD1       70.4030   60.4390  -24.4260 C.3   316  ILE316      0.0001
    103  N         67.5060   63.4950  -25.4440 N.am  317  GLY317     -0.1957
    104  CA        66.6050   63.9340  -24.3900 C.3   317  GLY317      0.1869
    105  C         65.2910   64.4750  -24.9220 C.2   317  GLY317      0.2309
    106  O         64.2160   64.0710  -24.4730 O.2   317  GLY317     -0.2863
    107  N         69.6090   75.5770  -18.1820 N.3   344  HIS344     -0.1241
    108  CA        69.4450   74.4960  -17.2120 C.3   344  HIS344      0.1621
    109  C         70.0260   74.8470  -15.8180 C.2   344  HIS344      0.2264
    110  O         71.2190   75.0920  -15.6850 O.2   344  HIS344     -0.2867
    111  CB        70.1610   73.2560  -17.7500 C.3   344  HIS344      0.0745
    112  CG        69.5390   71.9760  -17.2980 C.ar  344  HIS344      0.0817
    113  ND1       68.8620   71.8650  -16.1070 N.ar  344  HIS344     -0.2268
    114  CD2       69.4830   70.7590  -17.8820 C.ar  344  HIS344      0.1154
    115  CE1       68.4110   70.6330  -15.9660 C.ar  344  HIS344      0.1986
    116  NE2       68.7640   69.9410  -17.0400 N.ar  344  HIS344     -0.2212
    117  N         62.6900   65.7240  -15.6440 N.3   401  PHE401     -0.1227
    118  CA        63.3870   64.4250  -15.6220 C.3   401  PHE401      0.1736
    119  C         64.7860   64.6170  -15.0590 C.2   401  PHE401      0.2596
    120  O         65.3270   65.7200  -15.0990 O.2   401  PHE401     -0.2718
    121  CB        63.4760   63.8500  -17.0370 C.3   401  PHE401      0.0547
    122  CG        62.1670   63.8900  -17.7610 C.ar  401  PHE401     -0.0202
    123  CD1       61.1320   63.0490  -17.3750 C.ar  401  PHE401     -0.0042
    124  CD2       61.9400   64.8050  -18.7810 C.ar  401  PHE401     -0.0042
    125  CE1       59.8950   63.0980  -18.0050 C.ar  401  PHE401     -0.0003
    126  CE2       60.6950   64.8660  -19.4320 C.ar  401  PHE401     -0.0003
    127  CZ        59.6790   64.0090  -19.0420 C.ar  401  PHE401     -0.0000
    128  N         65.3890   63.5530  -14.5490 N.am  402  GLY402     -0.1942
    129  CA        66.7150   63.6680  -13.9850 C.3   402  GLY402      0.2014
    130  C         67.4900   62.3860  -14.1660 C.2   402  GLY402      0.2638
    131  O         66.8990   61.3040  -14.2290 O.2   402  GLY402     -0.2714
    132  N         68.8110   62.5300  -14.2770 N.am  403  PHE403     -0.1973
    133  CA        69.7480   61.4160  -14.3310 C.3   403  PHE403      0.1639
    134  C         69.3930   60.4820  -13.1960 C.2   403  PHE403      0.2290
    135  O         69.0600   60.9340  -12.1040 O.2   403  PHE403     -0.2864
    136  CB        71.1780   61.9010  -14.0790 C.3   403  PHE403      0.0560
    137  CG        71.8250   62.6300  -15.2440 C.ar  403  PHE403     -0.0200
    138  CD1       71.1820   62.7710  -16.4520 C.ar  403  PHE403     -0.0042
    139  CD2       73.1180   63.1300  -15.1100 C.ar  403  PHE403     -0.0042
    140  CE1       71.8020   63.4330  -17.5090 C.ar  403  PHE403     -0.0003
    141  CE2       73.7550   63.7840  -16.1570 C.ar  403  PHE403     -0.0003
    142  CZ        73.1000   63.9430  -17.3540 C.ar  403  PHE403     -0.0000
    143  N         67.0930   58.2060  -13.9690 N.3   405  GLY405     -0.1210
    144  CA        65.8620   57.6940  -14.5710 C.3   405  GLY405      0.1956
    145  C         64.5800   58.2610  -13.9880 C.2   405  GLY405      0.2612
    146  O         63.5240   57.6470  -14.1130 O.2   405  GLY405     -0.2717
    147  N         64.6690   59.4300  -13.3440 N.am  406  HIS406     -0.1961
    148  CA        63.5390   59.9910  -12.5970 C.3   406  HIS406      0.1787
    149  C         62.6300   60.8220  -13.4820 C.2   406  HIS406      0.2620
    150  O         63.1060   61.6610  -14.2600 O.2   406  HIS406     -0.2715
    151  CB        64.0030   60.8410  -11.4000 C.3   406  HIS406      0.0785
    152  CG        65.1400   60.2410  -10.6320 C.ar  406  HIS406      0.0821
    153  ND1       64.9850   59.1160   -9.8460 N.ar  406  HIS406     -0.2267
    154  CD2       66.4330   60.5940  -10.5370 C.ar  406  HIS406      0.1154
    155  CE1       66.1560   58.8040   -9.3030 C.ar  406  HIS406      0.1986
    156  NE2       67.0460   59.6940   -9.7100 N.ar  406  HIS406     -0.2212
    157  N         61.3220   60.5810  -13.3400 N.am  407  ASN407     -0.1972
    158  CA        60.2830   61.2820  -14.0960 C.3   407  ASN407      0.1688
    159  C         59.2690   61.9470  -13.1700 C.2   407  ASN407      0.2292
    160  O         58.5900   61.2570  -12.4120 O.2   407  ASN407     -0.2864
    161  CB        59.4940   60.3110  -14.9890 C.3   407  ASN407      0.1181
    162  CG        60.3740   59.4680  -15.8880 C.2   407  ASN407      0.2629
    163  OD1       61.2170   59.9890  -16.6250 O.2   407  ASN407     -0.2716
    164  ND2       60.1500   58.1480  -15.8630 N.am  407  ASN407     -0.0877
@<TRIPOS>BOND
     1    95    96    1
     2   101    99    1
     3    96    99    1
     4    96    97    1
     5    90    91    2
     6    90    89    1
     7    99   100    1
     8    97    98    2
     9    97   103   am
    10    89    88    1
    11    89    92    1
    12   103   104    1
    13   100   102    1
    14   105   106    2
    15   105   104    1
    16    92    93    1
    17    92    94    1
    18    15    16    1
    19    83    84    2
    20    83    82    1
    21    13    12    2
    22    12    11    1
    23    10    11    1
    24    11    14    1
    25    16    17    1
    26    16    19    1
    27    67    66    2
    28    18    17    2
    29    86    85    1
    30    81    82    1
    31    82    85    1
    32    69    70    1
    33    69    68    1
    34    63    60    1
    35    70    64    1
    36    66    65    1
    37    85    87    1
    38    19    20    1
    39    68    65    1
    40    64    65    1
    41    64    61   am
    42    60    61    1
    43    60    59    1
    44    73    74    2
    45    73    72    1
    46    61    62    2
    47    20    22   ar
    48    20    21   ar
    49    22    24   ar
    50    41    43   ar
    51    41    39   ar
    52    43    42   ar
    53    71    72    1
    54    39    38    1
    55    39    40   ar
    56    55    54    2
    57    42    40   ar
    58    59    54   am
    59    72    75    1
    60    21    23   ar
    61    38    35    1
    62    24    25   ar
    63   126   127   ar
    64   126   124   ar
    65    54    53    1
    66   127   125   ar
    67    75    76    1
    68   124   122   ar
    69    58    56    1
    70    78    76   ar
    71    78    80   ar
    72    23    25   ar
    73    33    31   ar
    74    76    77   ar
    75   107   108    1
    76    35    34    1
    77    35    36    1
    78   125   123   ar
    79   114   112   ar
    80   114   116   ar
    81    31    32   ar
    82    31    30    1
    83    56    53    1
    84    56    57    1
    85   122   123   ar
    86   122   121    1
    87   111   112    1
    88   111   108    1
    89    53    52    1
    90    80    79   ar
    91   140   142   ar
    92   140   138   ar
    93   142   141   ar
    94   112   113   ar
    95    52    46   am
    96   108   109    1
    97    30    27    1
    98    36    37    2
    99    36    44   am
   100   116   115   ar
   101   121   118    1
   102    77    79   ar
   103    29    28    2
   104   163   162    2
   105    44    45    1
   106   138   137   ar
   107    27    28    1
   108    27    26    1
   109   141   139   ar
   110   113   115   ar
   111    46    45    1
   112    46    47    2
   113   162   164   am
   114   162   161    1
   115   109   110    2
   116   117   118    1
   117   118   119    1
   118     9     7   am
   119    45    48    1
   120   137   139   ar
   121   137   136    1
   122   120   119    2
   123   119   128   am
   124   161   158    1
   125    48    49    1
   126     7     6    1
   127     7     8    2
   128   144   145    1
   129   144   143    1
   130   128   129    1
   131     6     5    1
   132   133   132    1
   133   133   136    1
   134   133   134    1
   135   132   130   am
   136   150   149    2
   137   131   130    2
   138     5     2    1
   139   130   129    1
   140   146   145    2
   141   158   157    1
   142   158   159    1
   143   145   147   am
   144    49    50    1
   145   149   157   am
   146   149   148    1
   147   147   148    1
   148   134   135    2
   149   159   160    2
   150     4     3    2
   151     2     3    1
   152     2     1    1
   153   148   151    1
   154    50    51    1
   155   151   152    1
   156   152   154   ar
   157   152   153   ar
   158   154   156   ar
   159   153   155   ar
   160   156   155   ar
