@<TRIPOS>MOLECULE
tmp/2wggG00.pdb
 140 133 0 0 0
SMALL
GASTEIGER

@<TRIPOS>ATOM
      1  N         76.4660   78.1800   -0.2640 N.3    81  TYR81      -0.1241
      2  CA        75.7810   78.9500   -1.2930 C.3    81  TYR81       0.1605
      3  C         74.2890   78.6120   -1.3520 C.2    81  TYR81       0.2264
      4  O         73.4380   79.5080   -1.3760 O.2    81  TYR81      -0.2867
      5  CB        76.4640   78.7740   -2.6720 C.3    81  TYR81       0.0534
      6  CG        75.8210   79.6120   -3.7600 C.ar   81  TYR81      -0.0201
      7  CD1       76.2810   80.8940   -4.0470 C.ar   81  TYR81      -0.0009
      8  CD2       74.7100   79.1370   -4.4590 C.ar   81  TYR81      -0.0009
      9  CE1       75.6640   81.6720   -5.0280 C.ar   81  TYR81       0.0417
     10  CE2       74.0920   79.8940   -5.4270 C.ar   81  TYR81       0.0417
     11  CZ        74.5720   81.1590   -5.7160 C.ar   81  TYR81       0.1957
     12  OH        73.9400   81.8950   -6.6900 O.3    81  TYR81      -0.2866
     13  N         72.4990   80.1310    1.4400 N.3    84  ARG84      -0.1245
     14  CA        72.3810   81.5780    1.1920 C.3    84  ARG84       0.1563
     15  C         71.2860   81.9410    0.1700 C.2    84  ARG84       0.2260
     16  O         70.4810   82.8400    0.4130 O.2    84  ARG84      -0.2867
     17  CB        73.7200   82.1740    0.7530 C.3    84  ARG84       0.0307
     18  CG        74.8070   82.0310    1.7730 C.3    84  ARG84       0.0489
     19  CD        75.9340   82.9860    1.4940 C.3    84  ARG84       0.2205
     20  NE        76.6590   82.7660    0.2400 N.pl3  84  ARG84      -0.0865
     21  CZ        77.6500   81.8910    0.0900 C.cat  84  ARG84       0.5346
     22  NH1       77.9890   81.0960    1.0960 N.pl3  84  ARG84       0.1354
     23  NH2       78.2940   81.7930   -1.0720 N.pl3  84  ARG84       0.1354
     24  N         70.4460   69.7490   -6.3300 N.3   114  GLY114     -0.1210
     25  CA        71.1650   68.7070   -7.0360 C.3   114  GLY114      0.1956
     26  C         72.2160   68.0350   -6.1790 C.2   114  GLY114      0.2611
     27  O         72.3510   66.8130   -6.1850 O.2   114  GLY114     -0.2717
     28  N         72.9490   68.8470   -5.4250 N.am  115  LEU115     -0.1979
     29  CA        74.1310   68.3920   -4.7080 C.3   115  LEU115      0.1596
     30  C         74.1530   68.8930   -3.2580 C.2   115  LEU115      0.2287
     31  O         74.3090   68.1050   -2.3220 O.2   115  LEU115     -0.2864
     32  CB        75.3990   68.8430   -5.4460 C.3   115  LEU115      0.0297
     33  CG        76.5030   67.8030   -5.6500 C.3   115  LEU115      0.0022
     34  CD1       77.8250   68.4840   -5.9400 C.3   115  LEU115      0.0001
     35  CD2       76.6290   66.8430   -4.4720 C.3   115  LEU115      0.0001
     36  N         78.4610   71.5650   -1.6480 N.3   118  ALA118     -0.1231
     37  CA        79.6830   70.8980   -2.0850 C.3   118  ALA118      0.1694
     38  C         80.9820   71.7340   -2.0810 C.2   118  ALA118      0.2591
     39  O         82.0640   71.1500   -1.9320 O.2   118  ALA118     -0.2718
     40  CB        79.4590   70.2600   -3.4440 C.3   118  ALA118      0.0304
     41  N         80.9000   73.0670   -2.2510 N.am  119  GLU119     -0.1979
     42  CA        82.0880   73.9320   -2.0560 C.3   119  GLU119      0.1602
     43  C         82.6840   73.7630   -0.6640 C.2   119  GLU119      0.2287
     44  O         83.8930   73.8730   -0.4930 O.2   119  GLU119     -0.2864
     45  CB        81.8250   75.4500   -2.1600 C.3   119  GLU119      0.0415
     46  CG        80.4810   75.9930   -2.5920 C.3   119  GLU119      0.1163
     47  CD        79.3510   75.7810   -1.6030 C.2   119  GLU119      0.3649
     48  OE1       79.0010   76.6960   -0.8000 O.co2 119  GLU119     -0.2457
     49  OE2       78.7700   74.6890   -1.6770 O.co2 119  GLU119     -0.2457
     50  N         84.9170   70.5770   -0.6030 N.3   122  VAL122     -0.1245
     51  CA        86.2600   70.7860   -1.1370 C.3   122  VAL122      0.1561
     52  C         87.0700   71.7550   -0.2710 C.2   122  VAL122      0.2260
     53  O         88.2610   71.5460   -0.0540 O.2   122  VAL122     -0.2867
     54  CB        86.2420   71.2190   -2.6240 C.3   122  VAL122      0.0252
     55  CG1       85.6580   70.1030   -3.5000 C.3   122  VAL122      0.0019
     56  CG2       85.4680   72.5220   -2.8080 C.3   122  VAL122      0.0019
     57  N         68.3910   64.6520   -9.0320 N.3   169  ALA169     -0.1231
     58  CA        69.1330   65.3760  -10.0370 C.3   169  ALA169      0.1694
     59  C         68.2480   66.4630  -10.6680 C.2   169  ALA169      0.2591
     60  O         67.6810   67.3000   -9.9540 O.2   169  ALA169     -0.2718
     61  CB        69.6950   64.4140  -11.0770 C.3   169  ALA169      0.0304
     62  N         68.1190   66.4420  -11.9890 N.am  170  GLN170     -0.1979
     63  CA        67.4940   67.5450  -12.7170 C.3   170  GLN170      0.1601
     64  C         65.9750   67.6540  -12.5690 C.2   170  GLN170      0.2287
     65  O         65.3890   68.6080  -13.0760 O.2   170  GLN170     -0.2864
     66  CB        67.8890   67.5180  -14.2080 C.3   170  GLN170      0.0394
     67  CG        69.3920   67.6490  -14.4870 C.3   170  GLN170      0.0908
     68  CD        70.0810   66.3040  -14.7020 C.2   170  GLN170      0.2608
     69  OE1       69.7340   65.3160  -14.0630 O.2   170  GLN170     -0.2717
     70  NE2       71.0680   66.2680  -15.6020 N.am  170  GLN170     -0.0878
     71  N         73.5210   75.6440   -7.0590 N.3   199  GLY199     -0.1210
     72  CA        74.7250   76.4550   -7.0080 C.3   199  GLY199      0.1940
     73  C         75.0140   77.1360   -8.3320 C.2   199  GLY199      0.2453
     74  O         74.3320   76.8860   -9.3200 O.2   199  GLY199     -0.2732
     75  N         76.0260   78.0150   -8.3570 N.am  200  PRO200     -0.2728
     76  CA        76.3300   78.7680   -9.5710 C.3   200  PRO200      0.1401
     77  C         77.1120   77.9430  -10.5720 C.2   200  PRO200      0.2269
     78  O         77.5710   76.8530  -10.2460 O.2   200  PRO200     -0.2865
     79  CB        77.2490   79.8690   -9.0560 C.3   200  PRO200      0.0296
     80  CG        77.9150   79.2810   -7.8810 C.3   200  PRO200      0.0237
     81  CD        76.8880   78.4100   -7.2340 C.3   200  PRO200      0.0939
     82  N         80.3430   76.9020  -12.3240 N.3   202  GLU202     -0.1245
     83  CA        81.7310   76.8340  -11.8920 C.3   202  GLU202      0.1567
     84  C         82.4650   75.7950  -12.7760 C.2   202  GLU202      0.2260
     85  O         81.8170   75.0280  -13.4840 O.2   202  GLU202     -0.2867
     86  CB        81.8370   76.5740  -10.3660 C.3   202  GLU202      0.0388
     87  CG        82.2880   77.8230   -9.5290 C.3   202  GLU202      0.1160
     88  CD        83.7210   78.2600   -9.8550 C.2   202  GLU202      0.3649
     89  OE1       84.5260   77.3910  -10.2790 O.co2 202  GLU202     -0.2457
     90  OE2       84.0440   79.4660   -9.6980 O.co2 202  GLU202     -0.2457
     91  N         84.4910   72.9650  -12.2850 N.3   204  LEU204     -0.1231
     92  CA        84.2960   71.5300  -12.0510 C.3   204  LEU204      0.1678
     93  C         82.9490   71.0420  -12.6360 C.2   204  LEU204      0.2434
     94  O         82.9280   70.1380  -13.4760 O.2   204  LEU204     -0.2733
     95  CB        84.4220   71.1950  -10.5540 C.3   204  LEU204      0.0284
     96  CG        85.1350   69.9130  -10.1060 C.3   204  LEU204      0.0019
     97  CD1       84.9730   69.6880   -8.6010 C.3   204  LEU204      0.0001
     98  CD2       84.6850   68.6960  -10.8970 C.3   204  LEU204      0.0001
     99  N         81.8270   71.6550  -12.2110 N.am  205  PRO205     -0.2729
    100  CA        80.5200   71.2800  -12.7650 C.3   205  PRO205      0.1401
    101  C         80.4910   71.2800  -14.3020 C.2   205  PRO205      0.2269
    102  O         79.9210   70.3670  -14.8980 O.2   205  PRO205     -0.2865
    103  CB        79.5860   72.3640  -12.2150 C.3   205  PRO205      0.0296
    104  CG        80.1990   72.7680  -10.9550 C.3   205  PRO205      0.0237
    105  CD        81.6900   72.6540  -11.1360 C.3   205  PRO205      0.0939
    106  N         82.4170   68.3000  -15.6870 N.3   208  ALA208     -0.1231
    107  CA        81.7870   66.9950  -15.4470 C.3   208  ALA208      0.1694
    108  C         80.6540   66.6680  -16.4200 C.2   208  ALA208      0.2592
    109  O         80.5920   65.5580  -16.9350 O.2   208  ALA208     -0.2718
    110  CB        81.3440   66.8390  -13.9870 C.3   208  ALA208      0.0304
    111  N         79.7770   67.6350  -16.6870 N.am  209  PHE209     -0.1976
    112  CA        78.7220   67.4580  -17.6810 C.3   209  PHE209      0.1639
    113  C         79.2380   67.5060  -19.1320 C.2   209  PHE209      0.2290
    114  O         78.7430   66.7960  -20.0030 O.2   209  PHE209     -0.2864
    115  CB        77.6270   68.5190  -17.5040 C.3   209  PHE209      0.0560
    116  CG        76.7700   68.3420  -16.2660 C.ar  209  PHE209     -0.0200
    117  CD1       75.6100   67.5630  -16.2990 C.ar  209  PHE209     -0.0042
    118  CD2       77.1020   68.9900  -15.0840 C.ar  209  PHE209     -0.0042
    119  CE1       74.8150   67.4130  -15.1670 C.ar  209  PHE209     -0.0003
    120  CE2       76.3160   68.8560  -13.9580 C.ar  209  PHE209     -0.0003
    121  CZ        75.1710   68.0620  -13.9910 C.ar  209  PHE209     -0.0000
    122  N         69.5720   72.7220  -13.1400 N.3   346  ILE346     -0.1245
    123  CA        69.6960   71.4420  -12.4400 C.3   346  ILE346      0.1561
    124  C         68.6360   71.2090  -11.3540 C.2   346  ILE346      0.2260
    125  O         67.4490   71.0500  -11.6700 O.2   346  ILE346     -0.2867
    126  CB        71.1670   71.2180  -11.9300 C.3   346  ILE346      0.0252
    127  CG1       72.1870   71.5810  -13.0290 C.3   346  ILE346      0.0019
    128  CG2       71.3740   69.7960  -11.4090 C.3   346  ILE346      0.0019
    129  CD1       72.0140   70.8260  -14.3430 C.3   346  ILE346      0.0001
    130  N         68.8110   62.5300  -14.2770 N.3   403  PHE403     -0.1241
    131  CA        69.7480   61.4160  -14.3310 C.3   403  PHE403      0.1605
    132  C         69.3930   60.4820  -13.1960 C.2   403  PHE403      0.2264
    133  O         69.0600   60.9340  -12.1040 O.2   403  PHE403     -0.2867
    134  CB        71.1780   61.9010  -14.0790 C.3   403  PHE403      0.0534
    135  CG        71.8250   62.6300  -15.2440 C.ar  403  PHE403     -0.0203
    136  CD1       71.1820   62.7710  -16.4520 C.ar  403  PHE403     -0.0042
    137  CD2       73.1180   63.1300  -15.1100 C.ar  403  PHE403     -0.0042
    138  CE1       71.8020   63.4330  -17.5090 C.ar  403  PHE403     -0.0003
    139  CE2       73.7550   63.7840  -16.1570 C.ar  403  PHE403     -0.0003
    140  CZ        73.1000   63.9430  -17.3540 C.ar  403  PHE403     -0.0000
@<TRIPOS>BOND
     1   114   113    2
     2   113   112    1
     3   112   115    1
     4   112   111    1
     5   138   140   ar
     6   138   136   ar
     7   115   116    1
     8   140   139   ar
     9   109   108    2
    10   111   108   am
    11   136   135   ar
    12   108   107    1
    13   117   116   ar
    14   117   119   ar
    15   116   118   ar
    16   139   137   ar
    17   106   107    1
    18    70    68   am
    19   107   110    1
    20   135   137   ar
    21   135   134    1
    22   119   121   ar
    23   118   120   ar
    24   102   101    2
    25    68    67    1
    26    68    69    2
    27    67    66    1
    28   129   127    1
    29   131   130    1
    30   131   134    1
    31   131   132    1
    32   101   100    1
    33    66    63    1
    34   121   120   ar
    35    85    84    2
    36    94    93    2
    37   132   133    2
    38   122   123    1
    39    65    64    2
    40   127   126    1
    41    84    83    1
    42   100   103    1
    43   100    99    1
    44    63    64    1
    45    63    62    1
    46    93    99   am
    47    93    92    1
    48   123   126    1
    49   123   124    1
    50    82    83    1
    51    91    92    1
    52   103   104    1
    53    99   105    1
    54    92    95    1
    55    62    59   am
    56   126   128    1
    57    83    86    1
    58   125   124    2
    59   105   104    1
    60    61    58    1
    61    98    96    1
    62    59    58    1
    63    59    60    2
    64    77    78    2
    65    77    76    1
    66    95    96    1
    67    86    87    1
    68    89    88   ar
    69    96    97    1
    70    58    57    1
    71    88    90   ar
    72    88    87    1
    73    76    79    1
    74    76    75    1
    75    74    73    2
    76    79    80    1
    77    75    73   am
    78    75    81    1
    79    73    72    1
    80    80    81    1
    81    71    72    1
    82    25    24    1
    83    25    26    1
    84    12    11    1
    85    27    26    2
    86    26    28   am
    87    34    33    1
    88    11    10   ar
    89    11     9   ar
    90    33    32    1
    91    33    35    1
    92    32    29    1
    93    10     8   ar
    94    28    29    1
    95     9     7   ar
    96    29    30    1
    97     8     6   ar
    98     7     6   ar
    99     6     5    1
   100    55    54    1
   101    40    37    1
   102    30    31    2
   103    56    54    1
   104     5     2    1
   105    54    51    1
   106    46    45    1
   107    46    47    1
   108    41    38   am
   109    41    42    1
   110    45    42    1
   111    37    38    1
   112    37    36    1
   113    38    39    2
   114    42    43    1
   115    49    47   ar
   116    47    48   ar
   117     4     3    2
   118     3     2    1
   119     2     1    1
   120    51    50    1
   121    51    52    1
   122    23    21    1
   123    43    44    2
   124    52    53    2
   125    21    20    2
   126    21    22    1
   127    15    16    2
   128    15    14    1
   129    20    19    1
   130    17    14    1
   131    17    18    1
   132    14    13    1
   133    19    18    1
