@<TRIPOS>MOLECULE
tmp/2wggG01.pdb
 107 106 0 0 0
SMALL
GASTEIGER

@<TRIPOS>ATOM
      1  N         72.9490   68.8470   -5.4250 N.3   115  LEU115     -0.1245
      2  CA        74.1310   68.3920   -4.7080 C.3   115  LEU115      0.1561
      3  C         74.1530   68.8930   -3.2580 C.2   115  LEU115      0.2260
      4  O         74.3090   68.1050   -2.3220 O.2   115  LEU115     -0.2867
      5  CB        75.3990   68.8430   -5.4460 C.3   115  LEU115      0.0270
      6  CG        76.5030   67.8030   -5.6500 C.3   115  LEU115      0.0019
      7  CD1       77.8250   68.4840   -5.9400 C.3   115  LEU115      0.0001
      8  CD2       76.6290   66.8430   -4.4720 C.3   115  LEU115      0.0001
      9  N         69.9660   75.8480   -6.4740 N.3   198  GLU198     -0.1231
     10  CA        71.1430   75.2180   -7.0110 C.3   198  GLU198      0.1699
     11  C         72.3080   76.1790   -6.9840 C.2   198  GLU198      0.2593
     12  O         72.1140   77.3850   -6.9130 O.2   198  GLU198     -0.2718
     13  CB        70.8780   74.7670   -8.4420 C.3   198  GLU198      0.0402
     14  CG        72.0110   73.9430   -8.9920 C.3   198  GLU198      0.1161
     15  CD        72.1940   72.6720   -8.1930 C.2   198  GLU198      0.3649
     16  OE1       71.2980   71.7990   -8.2720 O.co2 198  GLU198     -0.2457
     17  OE2       73.2160   72.5530   -7.4810 O.co2 198  GLU198     -0.2457
     18  N         73.5210   75.6440   -7.0590 N.am  199  GLY199     -0.1943
     19  CA        74.7250   76.4550   -7.0080 C.3   199  GLY199      0.1998
     20  C         75.0140   77.1360   -8.3320 C.2   199  GLY199      0.2481
     21  O         74.3320   76.8860   -9.3200 O.2   199  GLY199     -0.2729
     22  N         76.0260   78.0150   -8.3570 N.am  200  PRO200     -0.2715
     23  CA        76.3300   78.7680   -9.5710 C.3   200  PRO200      0.1536
     24  C         77.1120   77.9430  -10.5720 C.2   200  PRO200      0.2598
     25  O         77.5710   76.8530  -10.2460 O.2   200  PRO200     -0.2715
     26  CB        77.2490   79.8690   -9.0560 C.3   200  PRO200      0.0310
     27  CG        77.9150   79.2810   -7.8810 C.3   200  PRO200      0.0237
     28  CD        76.8880   78.4100   -7.2340 C.3   200  PRO200      0.0939
     29  N         77.2710   78.4850  -11.7740 N.am  201  ILE201     -0.1978
     30  CA        78.1950   77.9530  -12.7680 C.3   201  ILE201      0.1596
     31  C         79.6290   78.0180  -12.2350 C.2   201  ILE201      0.2287
     32  O         80.0610   79.0450  -11.7150 O.2   201  ILE201     -0.2864
     33  CB        78.0750   78.7550  -14.0660 C.3   201  ILE201      0.0276
     34  CG1       76.6340   78.6690  -14.5840 C.3   201  ILE201      0.0022
     35  CG2       79.1200   78.3130  -15.0820 C.3   201  ILE201      0.0022
     36  CD1       76.3410   79.6330  -15.7280 C.3   201  ILE201      0.0001
     37  N         81.8270   71.6550  -12.2110 N.3   205  PRO205     -0.2116
     38  CA        80.5200   71.2800  -12.7650 C.3   205  PRO205      0.1372
     39  C         80.4910   71.2800  -14.3020 C.2   205  PRO205      0.2244
     40  O         79.9210   70.3670  -14.8980 O.2   205  PRO205     -0.2868
     41  CB        79.5860   72.3640  -12.2150 C.3   205  PRO205      0.0268
     42  CG        80.1990   72.7680  -10.9550 C.3   205  PRO205      0.0207
     43  CD        81.6900   72.6540  -11.1360 C.3   205  PRO205      0.0892
     44  N         79.7770   67.6350  -16.6870 N.3   209  PHE209     -0.1241
     45  CA        78.7220   67.4580  -17.6810 C.3   209  PHE209      0.1605
     46  C         79.2380   67.5060  -19.1320 C.2   209  PHE209      0.2264
     47  O         78.7430   66.7960  -20.0030 O.2   209  PHE209     -0.2867
     48  CB        77.6270   68.5190  -17.5040 C.3   209  PHE209      0.0534
     49  CG        76.7700   68.3420  -16.2660 C.ar  209  PHE209     -0.0203
     50  CD1       75.6100   67.5630  -16.2990 C.ar  209  PHE209     -0.0042
     51  CD2       77.1020   68.9900  -15.0840 C.ar  209  PHE209     -0.0042
     52  CE1       74.8150   67.4130  -15.1670 C.ar  209  PHE209     -0.0003
     53  CE2       76.3160   68.8560  -13.9580 C.ar  209  PHE209     -0.0003
     54  CZ        75.1710   68.0620  -13.9910 C.ar  209  PHE209     -0.0000
     55  N         74.0050   75.7820  -19.2400 N.3   238  PHE238     -0.1227
     56  CA        73.7940   76.1650  -17.8360 C.3   238  PHE238      0.1736
     57  C         73.1700   77.5610  -17.7650 C.2   238  PHE238      0.2596
     58  O         73.6990   78.5210  -18.3420 O.2   238  PHE238     -0.2718
     59  CB        75.1230   76.2550  -17.0600 C.3   238  PHE238      0.0547
     60  CG        75.6290   74.9450  -16.4730 C.ar  238  PHE238     -0.0202
     61  CD1       74.7660   74.0250  -15.8720 C.ar  238  PHE238     -0.0042
     62  CD2       77.0030   74.6760  -16.4610 C.ar  238  PHE238     -0.0042
     63  CE1       75.2710   72.8290  -15.3120 C.ar  238  PHE238     -0.0003
     64  CE2       77.5210   73.4880  -15.8960 C.ar  238  PHE238     -0.0003
     65  CZ        76.6540   72.5620  -15.3270 C.ar  238  PHE238     -0.0000
     66  N         72.0680   77.6740  -17.0300 N.am  239  GLY239     -0.1942
     67  CA        71.4600   78.9560  -16.7220 C.3   239  GLY239      0.2014
     68  C         71.0860   78.9820  -15.2560 C.2   239  GLY239      0.2639
     69  O         70.1520   78.2780  -14.8630 O.2   239  GLY239     -0.2714
     70  N         71.8350   79.7590  -14.4600 N.am  240  GLU240     -0.1963
     71  CA        71.6280   79.8840  -13.0060 C.3   240  GLU240      0.1733
     72  C         70.2010   80.2680  -12.6000 C.2   240  GLU240      0.2616
     73  O         69.5630   81.1320  -13.2230 O.2   240  GLU240     -0.2715
     74  CB        72.6370   80.8600  -12.3800 C.3   240  GLU240      0.0429
     75  CG        74.0700   80.3960  -12.4750 C.3   240  GLU240      0.1163
     76  CD        75.0340   81.3460  -11.7940 C.2   240  GLU240      0.3649
     77  OE1       74.5520   82.2600  -11.1000 O.co2 240  GLU240     -0.2457
     78  OE2       76.2680   81.1900  -11.9570 O.co2 240  GLU240     -0.2457
     79  N         69.7040   79.5950  -11.5640 N.am  241  ALA241     -0.1977
     80  CA        68.3940   79.8990  -10.9930 C.3   241  ALA241      0.1597
     81  C         68.1390   79.2810   -9.6030 C.2   241  ALA241      0.2287
     82  O         68.8660   78.3970   -9.1340 O.2   241  ALA241     -0.2864
     83  CB        67.2660   79.5110  -11.9740 C.3   241  ALA241      0.0319
     84  N         69.6090   75.5770  -18.1820 N.3   344  HIS344     -0.1226
     85  CA        69.4450   74.4960  -17.2120 C.3   344  HIS344      0.1752
     86  C         70.0260   74.8470  -15.8180 C.2   344  HIS344      0.2597
     87  O         71.2190   75.0920  -15.6850 O.2   344  HIS344     -0.2718
     88  CB        70.1610   73.2560  -17.7500 C.3   344  HIS344      0.0759
     89  CG        69.5390   71.9760  -17.2980 C.ar  344  HIS344      0.0818
     90  ND1       68.8620   71.8650  -16.1070 N.ar  344  HIS344     -0.2268
     91  CD2       69.4830   70.7590  -17.8820 C.ar  344  HIS344      0.1154
     92  CE1       68.4110   70.6330  -15.9660 C.ar  344  HIS344      0.1986
     93  NE2       68.7640   69.9410  -17.0400 N.ar  344  HIS344     -0.2212
     94  N         69.1820   74.8860  -14.7880 N.am  345  SER345     -0.1938
     95  CA        69.6520   75.1380  -13.4210 C.3   345  SER345      0.2055
     96  C         69.5540   73.9010  -12.5240 C.2   345  SER345      0.2642
     97  O         69.4230   74.0210  -11.3150 O.2   345  SER345     -0.2714
     98  CB        68.8910   76.3020  -12.7790 C.3   345  SER345      0.2130
     99  OG        67.4900   76.1240  -12.8740 O.3   345  SER345     -0.2179
    100  N         69.5720   72.7220  -13.1400 N.am  346  ILE346     -0.1977
    101  CA        69.6960   71.4420  -12.4400 C.3   346  ILE346      0.1596
    102  C         68.6360   71.2090  -11.3540 C.2   346  ILE346      0.2287
    103  O         67.4490   71.0500  -11.6700 O.2   346  ILE346     -0.2864
    104  CB        71.1670   71.2180  -11.9300 C.3   346  ILE346      0.0276
    105  CG1       72.1870   71.5810  -13.0290 C.3   346  ILE346      0.0022
    106  CG2       71.3740   69.7960  -11.4090 C.3   346  ILE346      0.0022
    107  CD1       72.0140   70.8260  -14.3430 C.3   346  ILE346      0.0001
@<TRIPOS>BOND
     1    47    46    2
     2    55    56    1
     3    46    45    1
     4    58    57    2
     5    84    85    1
     6    91    89   ar
     7    91    93   ar
     8    56    57    1
     9    56    59    1
    10    57    66   am
    11    88    89    1
    12    88    85    1
    13    45    48    1
    14    45    44    1
    15    48    49    1
    16    89    90   ar
    17    85    86    1
    18    59    60    1
    19    93    92   ar
    20    66    67    1
    21    67    68    1
    22    60    62   ar
    23    60    61   ar
    24    62    64   ar
    25    50    49   ar
    26    50    52   ar
    27    49    51   ar
    28    90    92   ar
    29    64    65   ar
    30    61    63   ar
    31    86    87    2
    32    86    94   am
    33    36    34    1
    34    65    63   ar
    35    68    69    2
    36    68    70   am
    37    52    54   ar
    38    51    53   ar
    39    35    33    1
    40    40    39    2
    41    94    95    1
    42    34    33    1
    43    70    71    1
    44   107   105    1
    45    39    38    1
    46    33    30    1
    47    54    53   ar
    48    95    98    1
    49    95    96    1
    50    73    72    2
    51   100    96   am
    52   100   101    1
    53   105   104    1
    54    71    72    1
    55    71    74    1
    56    99    98    1
    57    30    31    1
    58    30    29    1
    59    38    41    1
    60    38    37    1
    61    72    79   am
    62    96    97    2
    63    75    74    1
    64    75    76    1
    65   101   104    1
    66   101   102    1
    67    31    32    2
    68    41    42    1
    69    37    43    1
    70    83    80    1
    71    78    76   ar
    72   104   106    1
    73    76    77   ar
    74    29    24   am
    75   103   102    2
    76    79    80    1
    77    43    42    1
    78    80    81    1
    79    24    25    2
    80    24    23    1
    81    81    82    2
    82    23    26    1
    83    23    22    1
    84    21    20    2
    85    26    27    1
    86    14    13    1
    87    14    15    1
    88    13    10    1
    89    22    20   am
    90    22    28    1
    91    20    19    1
    92    16    15   ar
    93    15    17   ar
    94    27    28    1
    95    18    19    1
    96    18    11   am
    97    10    11    1
    98    10     9    1
    99    11    12    2
   100     7     6    1
   101     6     5    1
   102     6     8    1
   103     5     2    1
   104     1     2    1
   105     2     3    1
   106     3     4    2
