@<TRIPOS>MOLECULE
tmp/2wgjA00.pdb
 182 174 0 0 0
SMALL
GASTEIGER

@<TRIPOS>ATOM
      1  N         21.1030   88.9720   -0.4930 N.3    33  ILE33      -0.1231
      2  CA        21.4050   87.5670   -0.2210 C.3    33  ILE33       0.1692
      3  C         20.1860   86.7360    0.1750 C.2    33  ILE33       0.2592
      4  O         20.3020   85.5340    0.3790 O.2    33  ILE33      -0.2718
      5  CB        22.5750   87.4080    0.7930 C.3    33  ILE33       0.0266
      6  CG1       22.2850   88.1560    2.1020 C.3    33  ILE33       0.0019
      7  CG2       23.8930   87.8310    0.1440 C.3    33  ILE33       0.0020
      8  CD1       23.5040   88.6520    2.8340 C.3    33  ILE33       0.0001
      9  N         19.0180   87.3670    0.2610 N.am   34  GLY34      -0.1957
     10  CA        17.7950   86.6430    0.5500 C.3    34  GLY34       0.1869
     11  C         16.5790   87.5110    0.3440 C.2    34  GLY34       0.2309
     12  O         16.6540   88.7290    0.4910 O.2    34  GLY34      -0.2863
     13  N         17.2280   90.5390    2.6030 N.3    41  VAL41      -0.1245
     14  CA        18.4440   90.4620    3.4010 C.3    41  VAL41       0.1561
     15  C         19.6010   90.9790    2.5560 C.2    41  VAL41       0.2260
     16  O         19.7370   90.6250    1.3780 O.2    41  VAL41      -0.2867
     17  CB        18.7560   89.0160    3.9050 C.3    41  VAL41       0.0252
     18  CG1       19.7940   89.0390    5.0290 C.3    41  VAL41       0.0019
     19  CG2       17.4880   88.3100    4.3770 C.3    41  VAL41       0.0019
     20  N         23.9610   92.1840    2.4810 N.3    43  HIS43      -0.1241
     21  CA        25.2920   92.3250    3.0540 C.3    43  HIS43       0.1621
     22  C         25.3530   93.6570    3.7740 C.2    43  HIS43       0.2264
     23  O         24.8300   94.6580    3.2860 O.2    43  HIS43      -0.2867
     24  CB        26.3450   92.3290    1.9570 C.3    43  HIS43       0.0745
     25  CG        26.6920   90.9670    1.4450 C.ar   43  HIS43       0.0817
     26  ND1       27.5180   90.1030    2.1330 N.ar   43  HIS43      -0.2268
     27  CD2       26.3370   90.3250    0.3070 C.ar   43  HIS43       0.1154
     28  CE1       27.6560   88.9880    1.4400 C.ar   43  HIS43       0.1986
     29  NE2       26.9470   89.0950    0.3300 N.ar   43  HIS43      -0.2212
     30  N         24.6430   89.9580    8.0990 N.3    53  ALA53      -0.1245
     31  CA        23.4460   89.8990    7.2850 C.3    53  ALA53       0.1562
     32  C         22.4310   90.8650    7.8850 C.2    53  ALA53       0.2260
     33  O         22.1590   90.8350    9.0940 O.2    53  ALA53      -0.2867
     34  CB        22.9000   88.4950    7.2530 C.3    53  ALA53       0.0290
     35  N         18.6350   92.0580    7.7940 N.3    55  LYS55      -0.1245
     36  CA        17.2700   91.7700    7.3790 C.3    55  LYS55       0.1561
     37  C         16.4170   93.0210    7.4640 C.2    55  LYS55       0.2260
     38  O         16.2230   93.5740    8.5450 O.2    55  LYS55      -0.2867
     39  CB        16.6480   90.6390    8.2130 C.3    55  LYS55       0.0271
     40  CG        15.1560   90.4140    7.9190 C.3    55  LYS55       0.0035
     41  CD        14.9550   89.8180    6.5220 C.3    55  LYS55       0.0206
     42  CE        13.4800   89.7730    6.1260 C.3    55  LYS55       0.1093
     43  NZ        12.7210   88.8950    7.0360 N.3    55  LYS55      -0.1314
     44  N         21.9240   80.5830   15.7770 N.3    85  LEU85      -0.1245
     45  CA        22.1810   81.9220   15.2540 C.3    85  LEU85       0.1561
     46  C         21.8640   82.9830   16.3070 C.2    85  LEU85       0.2260
     47  O         20.7720   83.0080   16.8770 O.2    85  LEU85      -0.2867
     48  CB        21.4000   82.1890   13.9570 C.3    85  LEU85       0.0270
     49  CG        21.7720   83.4770   13.2030 C.3    85  LEU85       0.0019
     50  CD1       23.1380   83.3600   12.5470 C.3    85  LEU85       0.0001
     51  CD2       20.7160   83.8520   12.1790 C.3    85  LEU85       0.0001
     52  N         22.3090   90.4250   11.8180 N.3   102  LEU102     -0.1231
     53  CA        22.7130   89.0850   12.2250 C.3   102  LEU102      0.1678
     54  C         24.1310   88.7990   11.7430 C.2   102  LEU102      0.2434
     55  O         24.5840   89.4190   10.7820 O.2   102  LEU102     -0.2733
     56  CB        21.7590   88.0390   11.6410 C.3   102  LEU102      0.0284
     57  CG        20.2470   88.2260   11.7620 C.3   102  LEU102      0.0019
     58  CD1       19.5360   87.4900   10.6350 C.3   102  LEU102      0.0001
     59  CD2       19.7320   87.7660   13.1250 C.3   102  LEU102      0.0001
     60  N         24.8240   87.8520   12.3840 N.am  103  PRO103     -0.2718
     61  CA        26.1570   87.4460   11.9240 C.3   103  PRO103      0.1535
     62  C         26.0780   86.9080   10.4900 C.2   103  PRO103      0.2599
     63  O         25.1280   86.1930   10.1670 O.2   103  PRO103     -0.2715
     64  CB        26.5420   86.3210   12.8940 C.3   103  PRO103      0.0310
     65  CG        25.6440   86.4630   14.0610 C.3   103  PRO103      0.0237
     66  CD        24.3880   87.0820   13.5620 C.3   103  PRO103      0.0939
     67  N         27.0360   87.2620    9.6410 N.am  104  TYR104     -0.1960
     68  CA        27.0230   86.7550    8.2820 C.3   104  TYR104      0.1771
     69  C         27.5040   85.3000    8.2140 C.2   104  TYR104      0.2619
     70  O         28.5760   84.9580    8.7020 O.2   104  TYR104     -0.2715
     71  CB        27.8440   87.6370    7.3400 C.3   104  TYR104      0.0574
     72  CG        27.7470   87.1790    5.9060 C.ar  104  TYR104     -0.0198
     73  CD1       26.5390   87.2520    5.2170 C.ar  104  TYR104     -0.0009
     74  CD2       28.8540   86.6410    5.2460 C.ar  104  TYR104     -0.0009
     75  CE1       26.4370   86.8190    3.9040 C.ar  104  TYR104      0.0417
     76  CE2       28.7640   86.2070    3.9310 C.ar  104  TYR104      0.0417
     77  CZ        27.5530   86.2990    3.2670 C.ar  104  TYR104      0.1957
     78  OH        27.4470   85.8690    1.9610 O.3   104  TYR104     -0.2866
     79  N         26.6900   84.4480    7.6080 N.am  105  MET105     -0.1963
     80  CA        27.0540   83.0510    7.4260 C.3   105  MET105      0.1736
     81  C         27.6160   82.8490    6.0240 C.2   105  MET105      0.2616
     82  O         26.8800   82.8630    5.0440 O.2   105  MET105     -0.2715
     83  CB        25.8430   82.1670    7.6780 C.3   105  MET105      0.0427
     84  CG        25.1990   82.4290    9.0080 C.3   105  MET105      0.0599
     85  SD        26.1400   81.6200   10.2860 S.3   105  MET105     -0.1393
     86  CE        26.8050   83.0130   11.1630 C.3   105  MET105      0.0692
     87  N         28.9310   82.6560    5.9450 N.am  106  LYS106     -0.1963
     88  CA        29.6540   82.6530    4.6780 C.3   106  LYS106      0.1728
     89  C         29.1790   81.5870    3.6960 C.2   106  LYS106      0.2616
     90  O         29.2120   81.7960    2.4840 O.2   106  LYS106     -0.2715
     91  CB        31.1600   82.5010    4.9380 C.3   106  LYS106      0.0311
     92  CG        31.9230   81.7440    3.8540 C.3   106  LYS106      0.0038
     93  CD        33.3210   82.3260    3.6580 C.3   106  LYS106      0.0206
     94  CE        34.1410   81.4720    2.6900 C.3   106  LYS106      0.1093
     95  NZ        35.1770   80.6770    3.4150 N.3   106  LYS106     -0.1314
     96  N         28.7430   80.4450    4.2170 N.am  107  HIS107     -0.1959
     97  CA        28.3410   79.3320    3.3640 C.3   107  HIS107      0.1787
     98  C         26.8220   79.2270    3.1790 C.2   107  HIS107      0.2621
     99  O         26.3250   78.2340    2.6470 O.2   107  HIS107     -0.2715
    100  CB        28.9430   78.0180    3.8820 C.3   107  HIS107      0.0785
    101  CG        30.4420   78.0180    3.9200 C.ar  107  HIS107      0.0821
    102  ND1       31.1570   78.1600    5.0910 N.ar  107  HIS107     -0.2267
    103  CD2       31.3610   77.9210    2.9290 C.ar  107  HIS107      0.1154
    104  CE1       32.4500   78.1360    4.8220 C.ar  107  HIS107      0.1986
    105  NE2       32.6020   77.9920    3.5170 N.ar  107  HIS107     -0.2212
    106  N         26.0840   80.2540    3.6020 N.am  108  GLY108     -0.1940
    107  CA        24.6450   80.2930    3.3800 C.3   108  GLY108      0.2014
    108  C         23.9420   79.1540    4.0910 C.2   108  GLY108      0.2638
    109  O         24.4380   78.6670    5.0930 O.2   108  GLY108     -0.2714
    110  N         22.7920   78.7320    3.5840 N.am  109  ASP109     -0.1971
    111  CA        22.0160   77.6810    4.2360 C.3   109  ASP109      0.1709
    112  C         22.5350   76.2900    3.9030 C.2   109  ASP109      0.2293
    113  O         23.0460   76.0400    2.8120 O.2   109  ASP109     -0.2864
    114  CB        20.5430   77.7740    3.8560 C.3   109  ASP109      0.1436
    115  CG        20.3160   77.4810    2.4000 C.2   109  ASP109      0.3671
    116  OD1       20.5560   78.3940    1.5730 O.co2 109  ASP109     -0.2456
    117  OD2       19.9400   76.3570    1.9870 O.co2 109  ASP109     -0.2456
    118  N         21.3930   74.5760    0.3090 N.3   112  ASN112     -0.1240
    119  CA        22.1520   74.9530   -0.8780 C.3   112  ASN112      0.1653
    120  C         23.6130   74.5030   -0.7860 C.2   112  ASN112      0.2266
    121  O         24.1960   74.0800   -1.7830 O.2   112  ASN112     -0.2867
    122  CB        22.0450   76.4540   -1.1570 C.3   112  ASN112      0.1155
    123  CG        20.7210   76.8330   -1.7860 C.2   112  ASN112      0.2627
    124  OD1       20.2810   76.2140   -2.7640 O.2   112  ASN112     -0.2716
    125  ND2       20.0780   77.8520   -1.2340 N.am  112  ASN112     -0.0877
    126  N         17.0210   74.3350    4.8410 N.3   153  ARG153     -0.1231
    127  CA        17.0280   75.6880    4.2730 C.3   153  ARG153      0.1694
    128  C         17.1720   76.7530    5.3690 C.2   153  ARG153      0.2592
    129  O         17.4700   77.9260    5.0720 O.2   153  ARG153     -0.2718
    130  CB        15.7480   75.9570    3.4630 C.3   153  ARG153      0.0321
    131  CG        14.4950   75.9600    4.3170 C.3   153  ARG153      0.0489
    132  CD        13.1960   76.2700    3.5920 C.3   153  ARG153      0.2205
    133  NE        12.0780   76.0380    4.5090 N.pl3 153  ARG153     -0.0865
    134  CZ        11.4090   74.8920    4.6220 C.cat 153  ARG153      0.5346
    135  NH1       11.7030   73.8360    3.8530 N.pl3 153  ARG153      0.1354
    136  NH2       10.4320   74.8030    5.5120 N.pl3 153  ARG153      0.1354
    137  N         16.9600   76.3330    6.6180 N.am  154  ASN154     -0.1974
    138  CA        16.8950   77.2380    7.7630 C.3   154  ASN154      0.1688
    139  C         17.9880   77.0070    8.8000 C.2   154  ASN154      0.2292
    140  O         17.8720   77.4460    9.9460 O.2   154  ASN154     -0.2864
    141  CB        15.5150   77.1260    8.4300 C.3   154  ASN154      0.1181
    142  CG        14.4190   77.7960    7.6210 C.2   154  ASN154      0.2629
    143  OD1       14.6870   78.6430    6.7650 O.2   154  ASN154     -0.2716
    144  ND2       13.1760   77.4080    7.8760 N.am  154  ASN154     -0.0877
    145  N         22.2080   77.4580    9.0250 N.3   156  MET156     -0.1245
    146  CA        23.2430   78.1720    8.2810 C.3   156  MET156      0.1570
    147  C         24.6220   77.6170    8.6060 C.2   156  MET156      0.2261
    148  O         24.8060   77.0090    9.6580 O.2   156  MET156     -0.2867
    149  CB        23.1900   79.6720    8.5840 C.3   156  MET156      0.0387
    150  CG        21.7890   80.3010    8.5250 C.3   156  MET156      0.0595
    151  SD        21.0170   80.2010    6.8810 S.3   156  MET156     -0.1393
    152  CE        21.8740   81.5030    6.0740 C.3   156  MET156      0.0692
    153  N         18.6810   78.5600   12.4980 N.3   166  ALA166     -0.1231
    154  CA        18.2390   79.9190   12.2230 C.3   166  ALA166      0.1694
    155  C         16.7700   79.9710   11.8370 C.2   166  ALA166      0.2592
    156  O         16.0000   79.0720   12.1760 O.2   166  ALA166     -0.2718
    157  CB        19.1050   80.5460   11.1340 C.3   166  ALA166      0.0304
    158  N         16.4040   81.0270   11.1150 N.am  167  ASP167     -0.1974
    159  CA        15.0220   81.3390   10.7730 C.3   167  ASP167      0.1709
    160  C         14.0400   81.2610   11.9540 C.2   167  ASP167      0.2293
    161  O         12.9450   80.6980   11.8490 O.2   167  ASP167     -0.2864
    162  CB        14.5490   80.4980    9.5890 C.3   167  ASP167      0.1436
    163  CG        13.3160   81.0740    8.9330 C.2   167  ASP167      0.3671
    164  OD1       13.0780   82.2940    9.0730 O.co2 167  ASP167     -0.2456
    165  OD2       12.5220   80.3840    8.2700 O.co2 167  ASP167     -0.2456
    166  N         14.8180   86.9710   12.7930 N.3   171  ALA171     -0.1245
    167  CA        15.1880   86.4810   11.4760 C.3   171  ALA171      0.1562
    168  C         14.0180   85.7580   10.7620 C.2   171  ALA171      0.2260
    169  O         14.0360   85.6120    9.5450 O.2   171  ALA171     -0.2867
    170  CB        16.3980   85.5520   11.6000 C.3   171  ALA171      0.0290
    171  N         11.9510   82.1130    3.2410 N.3   175  TYR175     -0.1241
    172  CA        13.0010   82.4790    2.2920 C.3   175  TYR175      0.1605
    173  C         13.0050   81.5920    1.0510 C.2   175  TYR175      0.2264
    174  O         13.6860   81.8960    0.0690 O.2   175  TYR175     -0.2867
    175  CB        14.3650   82.4670    2.9870 C.3   175  TYR175      0.0534
    176  CG        14.4580   83.4950    4.0870 C.ar  175  TYR175     -0.0201
    177  CD1       14.5730   84.8510    3.7920 C.ar  175  TYR175     -0.0009
    178  CD2       14.4180   83.1150    5.4180 C.ar  175  TYR175     -0.0009
    179  CE1       14.6430   85.8040    4.8060 C.ar  175  TYR175      0.0417
    180  CE2       14.4990   84.0480    6.4350 C.ar  175  TYR175      0.0417
    181  CZ        14.6090   85.3880    6.1300 C.ar  175  TYR175      0.1957
    182  OH        14.6710   86.3140    7.1470 O.3   175  TYR175     -0.2866
@<TRIPOS>BOND
     1   124   123    2
     2   123   125   am
     3   123   122    1
     4   121   120    2
     5   122   119    1
     6   119   120    1
     7   119   118    1
     8     1     2    1
     9     2     3    1
    10     2     5    1
    11   174   173    2
    12     7     5    1
    13     3     9   am
    14     3     4    2
    15     9    10    1
    16    27    29   ar
    17    27    25   ar
    18    29    28   ar
    19    11    12    2
    20    11    10    1
    21     5     6    1
    22   173   172    1
    23    16    15    2
    24    28    26   ar
    25    25    24    1
    26    25    26   ar
    27   116   115   ar
    28    24    21    1
    29    78    77    1
    30   117   115   ar
    31     6     8    1
    32   172   175    1
    33   172   171    1
    34   115   114    1
    35    20    21    1
    36    90    89    2
    37    15    14    1
    38    13    14    1
    39    99    98    2
    40    94    95    1
    41    94    93    1
    42   113   112    2
    43   103   105   ar
    44   103   101   ar
    45   175   176    1
    46    21    22    1
    47    98    97    1
    48    98   106   am
    49    77    75   ar
    50    77    76   ar
    51    23    22    2
    52    97   100    1
    53    97    96    1
    54   107   106    1
    55   107   108    1
    56    14    17    1
    57   130   127    1
    58   130   131    1
    59   105   104   ar
    60   110   108   am
    61   110   111    1
    62   132   131    1
    63   132   133    1
    64    93    92    1
    65    89    96   am
    66    89    88    1
    67   177   176   ar
    68   177   179   ar
    69   135   134    1
    70    92    91    1
    71   114   111    1
    72   100   101    1
    73   112   111    1
    74    75    73   ar
    75    17    19    1
    76    17    18    1
    77   101   102   ar
    78    76    74   ar
    79   176   178   ar
    80   108   109    2
    81   127   126    1
    82   127   128    1
    83   133   134    2
    84   134   136    1
    85    88    91    1
    86    88    87    1
    87   179   181   ar
    88   104   102   ar
    89    82    81    2
    90   129   128    2
    91    73    72   ar
    92    74    72   ar
    93   128   137   am
    94   178   180   ar
    95    72    71    1
    96    87    81   am
    97    81    80    1
    98   152   151    1
    99    42    41    1
   100    42    43    1
   101   181   180   ar
   102   181   182    1
   103    41    40    1
   104   137   138    1
   105   143   142    2
   106   151   150    1
   107    34    31    1
   108    31    32    1
   109    31    30    1
   110    71    68    1
   111    36    37    1
   112    36    35    1
   113    36    39    1
   114    80    79    1
   115    80    83    1
   116    37    38    2
   117    79    69   am
   118   142   144   am
   119   142   141    1
   120    83    84    1
   121   138   141    1
   122   138   139    1
   123    32    33    2
   124    40    39    1
   125    69    68    1
   126    69    70    2
   127   165   163   ar
   128   146   149    1
   129   146   147    1
   130   146   145    1
   131    68    67    1
   132   150   149    1
   133   147   148    2
   134   139   140    2
   135   163   164   ar
   136   163   162    1
   137    84    85    1
   138   169   168    2
   139   162   159    1
   140    67    62   am
   141    63    62    2
   142    85    86    1
   143    62    61    1
   144    58    57    1
   145   168   167    1
   146   159   158    1
   147   159   160    1
   148    55    54    2
   149   158   155   am
   150   157   154    1
   151   167   170    1
   152   167   166    1
   153    56    57    1
   154    56    53    1
   155    54    53    1
   156    54    60   am
   157    57    59    1
   158    52    53    1
   159   155   156    2
   160   155   154    1
   161   161   160    2
   162    61    60    1
   163    61    64    1
   164    51    49    1
   165   154   153    1
   166    60    66    1
   167    50    49    1
   168    64    65    1
   169    49    48    1
   170    66    65    1
   171    48    45    1
   172    45    44    1
   173    45    46    1
   174    46    47    2
