@<TRIPOS>MOLECULE
tmp/2wgrA00.pdb
 88 87 0 0 0
SMALL
GASTEIGER

@<TRIPOS>ATOM
      1  N         24.7830    1.6360    8.2320 N.3   117  HIS117     -0.1226
      2  CA        24.7750    0.2150    8.6180 C.3   117  HIS117      0.1752
      3  C         24.8210   -0.0100   10.1200 C.2   117  HIS117      0.2597
      4  O         25.3100    0.8220   10.8770 O.2   117  HIS117     -0.2718
      5  CB        25.9370   -0.5370    7.9540 C.3   117  HIS117      0.0759
      6  CG        25.7970   -0.6680    6.4710 C.ar  117  HIS117      0.0818
      7  ND1       26.8540   -1.0190    5.6540 N.ar  117  HIS117     -0.2268
      8  CD2       24.7360   -0.4690    5.6520 C.ar  117  HIS117      0.1154
      9  CE1       26.4380   -1.0580    4.3980 C.ar  117  HIS117      0.1986
     10  NE2       25.1580   -0.7210    4.3680 N.ar  117  HIS117     -0.2212
     11  N         24.3120   -1.1700   10.5310 N.am  118  GLY118     -0.1942
     12  CA        24.2900   -1.5260   11.9410 C.3   118  GLY118      0.2014
     13  C         25.5340   -2.3220   12.2630 C.2   118  GLY118      0.2639
     14  O         26.3530   -2.6410   11.3830 O.2   118  GLY118     -0.2714
     15  N         25.6630   -2.6420   13.5430 N.am  119  THR119     -0.1950
     16  CA        26.7450   -3.4510   14.0400 C.3   119  THR119      0.1897
     17  C         26.3380   -4.9340   13.9980 C.2   119  THR119      0.2313
     18  O         25.2300   -5.3100   14.4610 O.2   119  THR119     -0.2863
     19  CB        27.1240   -2.9860   15.4760 C.3   119  THR119      0.1794
     20  OG1       25.9240   -2.8120   16.2680 O.3   119  THR119     -0.2208
     21  CG2       27.8130   -1.6240   15.3950 C.3   119  THR119      0.0378
     22  N         19.9310   -4.9960   10.9990 N.3   123  ASN123     -0.1225
     23  CA        18.6210   -4.9520   11.6380 C.3   123  ASN123      0.1785
     24  C         18.6160   -3.8900   12.7230 C.2   123  ASN123      0.2597
     25  O         19.6180   -3.7160   13.4310 O.2   123  ASN123     -0.2718
     26  CB        18.2500   -6.2880   12.3050 C.3   123  ASN123      0.1169
     27  CG        18.0450   -7.3980   11.3080 C.2   123  ASN123      0.2627
     28  OD1       18.0170   -7.1670   10.0980 O.2   123  ASN123     -0.2716
     29  ND2       17.9280   -8.6270   11.8090 N.am  123  ASN123     -0.0877
     30  N         17.4960   -3.1650   12.8120 N.am  124  ILE124     -0.1966
     31  CA        17.2140   -2.3370   14.0010 C.3   124  ILE124      0.1727
     32  C         17.2000   -3.3020   15.2060 C.2   124  ILE124      0.2616
     33  O         16.5510   -4.3490   15.1720 O.2   124  ILE124     -0.2715
     34  CB        15.8210   -1.6430   13.9000 C.3   124  ILE124      0.0290
     35  CG1       15.7520   -0.7560   12.6450 C.3   124  ILE124      0.0022
     36  CG2       15.5310   -0.8330   15.1530 C.3   124  ILE124      0.0023
     37  CD1       16.9890    0.1850   12.4490 C.3   124  ILE124      0.0001
     38  N         17.9190   -2.9260   16.2630 N.am  125  LYS125     -0.1977
     39  CA        18.1550   -3.8510   17.3990 C.3   125  LYS125      0.1596
     40  C         17.0470   -3.9360   18.4480 C.2   125  LYS125      0.2287
     41  O         16.8470   -5.0090   19.0540 O.2   125  LYS125     -0.2864
     42  CB        19.5020   -3.5750   18.0900 C.3   125  LYS125      0.0298
     43  CG        20.7300   -3.6910   17.1860 C.3   125  LYS125      0.0038
     44  CD        20.8290   -5.0750   16.4890 C.3   125  LYS125      0.0206
     45  CE        22.1940   -5.2110   15.7750 C.3   125  LYS125      0.1093
     46  NZ        22.2620   -4.2730   14.5880 N.3   125  LYS125     -0.1314
     47  N         15.6600    3.0270   18.4000 N.3   129  SER129     -0.1217
     48  CA        16.8800    3.3430   17.6690 C.3   129  SER129      0.1889
     49  C         16.6570    4.6840   16.9760 C.2   129  SER129      0.2288
     50  O         15.5200    5.0570   16.7010 O.2   129  SER129     -0.2866
     51  CB        17.1230    2.2980   16.5870 C.3   129  SER129      0.2089
     52  OG        17.2270    1.0330   17.2270 O.3   129  SER129     -0.2183
     53  N         23.6270    6.8720   12.8330 N.3   142  ARG142     -0.1231
     54  CA        22.6970    5.9130   13.4020 C.3   142  ARG142      0.1694
     55  C         23.1300    5.7040   14.8510 C.2   142  ARG142      0.2592
     56  O         24.3370    5.6770   15.1170 O.2   142  ARG142     -0.2718
     57  CB        22.8440    4.6160   12.6500 C.3   142  ARG142      0.0321
     58  CG        21.9410    3.5160   13.1790 C.3   142  ARG142      0.0489
     59  CD        21.9920    2.3470   12.2250 C.3   142  ARG142      0.2205
     60  NE        21.3610    1.1340   12.7750 N.pl3 142  ARG142     -0.0865
     61  CZ        21.0370    0.0700   12.0450 C.cat 142  ARG142      0.5346
     62  NH1       21.1680    0.0810   10.7290 N.pl3 142  ARG142      0.1354
     63  NH2       20.5210   -1.0050   12.6410 N.pl3 142  ARG142      0.1354
     64  N         22.1700    5.5480   15.7570 N.am  143  TYR143     -0.1962
     65  CA        22.4450    5.4000   17.1840 C.3   143  TYR143      0.1771
     66  C         21.7230    4.1990   17.7360 C.2   143  TYR143      0.2620
     67  O         20.5680    3.9250   17.3790 O.2   143  TYR143     -0.2715
     68  CB        22.0280    6.6500   17.9870 C.3   143  TYR143      0.0574
     69  CG        22.5720    7.9390   17.4270 C.ar  143  TYR143     -0.0198
     70  CD1       23.7170    8.5370   17.9760 C.ar  143  TYR143     -0.0009
     71  CD2       21.9110    8.5820   16.3760 C.ar  143  TYR143     -0.0009
     72  CE1       24.2260    9.7450   17.4610 C.ar  143  TYR143      0.0417
     73  CE2       22.4120    9.8010   15.8540 C.ar  143  TYR143      0.0417
     74  CZ        23.5620   10.3470   16.3820 C.ar  143  TYR143      0.1957
     75  OH        24.0380   11.5410   15.8630 O.3   143  TYR143     -0.2866
     76  N         22.3800    3.5180   18.6780 N.am  144  SER144     -0.1936
     77  CA        21.7540    2.3730   19.3430 C.3   144  SER144      0.2040
     78  C         20.4790    2.7300   20.1260 C.2   144  SER144      0.2485
     79  O         20.2990    3.8830   20.5730 O.2   144  SER144     -0.2729
     80  CB        22.7720    1.7700   20.3210 C.3   144  SER144      0.2129
     81  OG        23.0640    2.7380   21.3250 O.3   144  SER144     -0.2179
     82  N         19.5860    1.7450   20.3390 N.am  145  PRO145     -0.2726
     83  CA        18.3630    1.9860   21.1400 C.3   145  PRO145      0.1402
     84  C         18.6360    2.6670   22.4880 C.2   145  PRO145      0.2269
     85  O         17.8740    3.5340   22.9210 O.2   145  PRO145     -0.2865
     86  CB        17.8620    0.5590   21.4040 C.3   145  PRO145      0.0296
     87  CG        18.1980   -0.1670   20.0730 C.3   145  PRO145      0.0237
     88  CD        19.5990    0.3790   19.7480 C.3   145  PRO145      0.0939
@<TRIPOS>BOND
     1    10     9   ar
     2    10     8   ar
     3     9     7   ar
     4     8     6   ar
     5     7     6   ar
     6     6     5    1
     7     5     2    1
     8     1     2    1
     9     2     3    1
    10    28    27    2
    11     3    11   am
    12     3     4    2
    13    11    12    1
    14    62    61    1
    15    22    23    1
    16    27    29   am
    17    27    26    1
    18    14    13    2
    19    23    26    1
    20    23    24    1
    21    12    13    1
    22    61    63    1
    23    61    60    2
    24    59    60    1
    25    59    58    1
    26    13    15   am
    27    37    35    1
    28    35    34    1
    29    57    58    1
    30    57    54    1
    31    24    30   am
    32    24    25    2
    33    30    31    1
    34    53    54    1
    35    54    55    1
    36    15    16    1
    37    34    31    1
    38    34    36    1
    39    17    16    1
    40    17    18    2
    41    31    32    1
    42    16    19    1
    43    46    45    1
    44    55    56    2
    45    55    64   am
    46    33    32    2
    47    32    38   am
    48    21    19    1
    49    19    20    1
    50    64    65    1
    51    45    44    1
    52    73    71   ar
    53    73    74   ar
    54    75    74    1
    55    38    39    1
    56    71    69   ar
    57    74    72   ar
    58    44    43    1
    59    51    52    1
    60    51    48    1
    61    50    49    2
    62    49    48    1
    63    65    66    1
    64    65    68    1
    65    43    42    1
    66    67    66    2
    67    39    42    1
    68    39    40    1
    69    69    70   ar
    70    69    68    1
    71    72    70   ar
    72    48    47    1
    73    66    76   am
    74    40    41    2
    75    76    77    1
    76    77    78    1
    77    77    80    1
    78    88    87    1
    79    88    82    1
    80    87    86    1
    81    78    82   am
    82    78    79    2
    83    80    81    1
    84    82    83    1
    85    83    86    1
    86    83    84    1
    87    84    85    2
