@<TRIPOS>MOLECULE
tmp/2wgzB00.pdb
 124 125 0 0 0
SMALL
GASTEIGER

@<TRIPOS>ATOM
      1  N          4.9120   -3.0070   -7.0260 N.3   166  GLN166     -0.1245
      2  CA         4.6230   -1.5940   -7.2240 C.3   166  GLN166      0.1566
      3  C          3.3200   -1.4570   -8.0160 C.2   166  GLN166      0.2260
      4  O          3.1460   -2.1040   -9.0530 O.2   166  GLN166     -0.2867
      5  CB         5.7950   -0.9170   -7.9380 C.3   166  GLN166      0.0367
      6  CG         6.0030    0.5460   -7.5670 C.3   166  GLN166      0.0905
      7  CD         5.2960    1.5100   -8.4950 C.2   166  GLN166      0.2608
      8  OE1        4.3320    1.1520   -9.1710 O.2   166  GLN166     -0.2717
      9  NE2        5.7790    2.7470   -8.5360 N.am  166  GLN166     -0.0878
     10  N          1.8210    0.5590  -10.0740 N.3   168  TRP168     -0.1227
     11  CA         1.7200    1.0100  -11.4620 C.3   168  TRP168      0.1737
     12  C          2.2360   -0.0080  -12.4770 C.2   168  TRP168      0.2595
     13  O          1.8580    0.0420  -13.6460 O.2   168  TRP168     -0.2718
     14  CB         2.4410    2.3550  -11.6570 C.3   168  TRP168      0.0564
     15  CG         1.7510    3.5250  -11.0110 C.ar  168  TRP168      0.0003
     16  CD1        1.8710    3.9340   -9.7120 C.ar  168  TRP168      0.0946
     17  CD2        0.8400    4.4420  -11.6360 C.ar  168  TRP168      0.0152
     18  NE1        1.0900    5.0440   -9.4870 N.ar  168  TRP168     -0.2442
     19  CE2        0.4460    5.3770  -10.6500 C.ar  168  TRP168      0.0810
     20  CE3        0.3150    4.5620  -12.9320 C.ar  168  TRP168      0.0012
     21  CZ2       -0.4510    6.4240  -10.9200 C.ar  168  TRP168      0.0191
     22  CZ3       -0.5800    5.6050  -13.1990 C.ar  168  TRP168      0.0001
     23  CH2       -0.9530    6.5180  -12.1930 C.ar  168  TRP168      0.0015
     24  N          3.0830   -0.9340  -12.0300 N.am  169  TRP169     -0.1976
     25  CA         3.8360   -1.7900  -12.9520 C.3   169  TRP169      0.1640
     26  C          3.5390   -3.2880  -12.8680 C.2   169  TRP169      0.2290
     27  O          4.1600   -4.0750  -13.5830 O.2   169  TRP169     -0.2864
     28  CB         5.3420   -1.5540  -12.7690 C.3   169  TRP169      0.0576
     29  CG         5.7540   -0.1410  -13.0280 C.ar  169  TRP169      0.0006
     30  CD1        6.0370    0.8180  -12.0940 C.ar  169  TRP169      0.0946
     31  CD2        5.9160    0.4820  -14.3050 C.ar  169  TRP169      0.0152
     32  NE1        6.3720    1.9990  -12.7110 N.ar  169  TRP169     -0.2442
     33  CE2        6.3050    1.8230  -14.0700 C.ar  169  TRP169      0.0810
     34  CE3        5.7730    0.0390  -15.6300 C.ar  169  TRP169      0.0012
     35  CZ2        6.5520    2.7270  -15.1100 C.ar  169  TRP169      0.0191
     36  CZ3        6.0190    0.9400  -16.6650 C.ar  169  TRP169      0.0001
     37  CH2        6.4060    2.2690  -16.3950 C.ar  169  TRP169      0.0015
     38  N         10.9360    0.2050  -14.9350 N.3   178  THR178     -0.1218
     39  CA        11.8950    1.2900  -14.7590 C.3   178  THR178      0.1862
     40  C         13.0920    0.8500  -13.9090 C.2   178  THR178      0.2287
     41  O         13.4690    1.5270  -12.9500 O.2   178  THR178     -0.2866
     42  CB        11.2370    2.5650  -14.1600 C.3   178  THR178      0.1770
     43  OG1       10.6500    2.2600  -12.8880 O.3   178  THR178     -0.2211
     44  CG2       10.1650    3.1050  -15.0900 C.3   178  THR178      0.0375
     45  N          8.5770   -5.6500  -10.8730 N.3   197  TYR197     -0.1241
     46  CA         9.0820   -4.3780  -10.3600 C.3   197  TYR197      0.1605
     47  C          8.6150   -4.1750   -8.9200 C.2   197  TYR197      0.2264
     48  O          7.4250   -3.9940   -8.6610 O.2   197  TYR197     -0.2867
     49  CB         8.7130   -3.1800  -11.2480 C.3   197  TYR197      0.0534
     50  CG         9.5080   -1.9420  -10.8720 C.ar  197  TYR197     -0.0201
     51  CD1        8.9740   -0.9760  -10.0230 C.ar  197  TYR197     -0.0009
     52  CD2       10.8160   -1.7650  -11.3340 C.ar  197  TYR197     -0.0009
     53  CE1        9.7160    0.1510   -9.6590 C.ar  197  TYR197      0.0417
     54  CE2       11.5660   -0.6450  -10.9760 C.ar  197  TYR197      0.0417
     55  CZ        11.0130    0.3050  -10.1400 C.ar  197  TYR197      0.1957
     56  OH        11.7570    1.4070   -9.7880 O.3   197  TYR197     -0.2866
     57  N          8.3560   -2.3460   -5.1830 N.3   199  HIS199     -0.1241
     58  CA         8.2540   -1.0190   -4.5820 C.3   199  HIS199      0.1621
     59  C          9.1280   -0.9750   -3.3340 C.2   199  HIS199      0.2264
     60  O          9.0420   -1.8600   -2.4790 O.2   199  HIS199     -0.2867
     61  CB         6.7910   -0.7300   -4.2370 C.3   199  HIS199      0.0745
     62  CG         6.4720    0.7250   -4.0620 C.ar  199  HIS199      0.0817
     63  ND1        5.2380    1.1640   -3.6320 N.ar  199  HIS199     -0.2268
     64  CD2        7.2210    1.8380   -4.2510 C.ar  199  HIS199      0.1154
     65  CE1        5.2400    2.4840   -3.5680 C.ar  199  HIS199      0.1986
     66  NE2        6.4310    2.9180   -3.9370 N.ar  199  HIS199     -0.2212
     67  N         16.0900    5.3750   -9.7300 N.3   233  TRP233     -0.1241
     68  CA        15.1460    5.4200   -8.6160 C.3   233  TRP233      0.1605
     69  C         15.8020    5.0710   -7.2890 C.2   233  TRP233      0.2264
     70  O         15.1580    4.5430   -6.3760 O.2   233  TRP233     -0.2867
     71  CB        13.8990    4.5750   -8.9100 C.3   233  TRP233      0.0550
     72  CG        13.0850    5.2150   -9.9850 C.ar  233  TRP233      0.0003
     73  CD1       13.0330    4.8520  -11.3020 C.ar  233  TRP233      0.0946
     74  CD2       12.2610    6.3820   -9.8550 C.ar  233  TRP233      0.0152
     75  NE1       12.2030    5.7020  -11.9940 N.ar  233  TRP233     -0.2442
     76  CE2       11.7150    6.6500  -11.1310 C.ar  233  TRP233      0.0810
     77  CE3       11.9130    7.2160   -8.7780 C.ar  233  TRP233      0.0012
     78  CZ2       10.8410    7.7210  -11.3660 C.ar  233  TRP233      0.0191
     79  CZ3       11.0440    8.2820   -9.0110 C.ar  233  TRP233      0.0001
     80  CH2       10.5180    8.5220  -10.2990 C.ar  233  TRP233      0.0015
     81  N         15.4020    2.1620   -4.5130 N.3   236  GLU236     -0.1245
     82  CA        14.4610    1.2620   -5.1780 C.3   236  GLU236      0.1567
     83  C         15.0920    0.4860   -6.3380 C.2   236  GLU236      0.2260
     84  O         14.7910   -0.6970   -6.5430 O.2   236  GLU236     -0.2867
     85  CB        13.2390    2.0300   -5.6710 C.3   236  GLU236      0.0388
     86  CG        12.1880    1.1420   -6.3070 C.3   236  GLU236      0.1160
     87  CD        10.8790    1.8600   -6.4930 C.2   236  GLU236      0.3649
     88  OE1       10.6470    2.3660   -7.6060 O.co2 236  GLU236     -0.2457
     89  OE2       10.1000    1.9310   -5.5210 O.co2 236  GLU236     -0.2457
     90  N         -0.9870    5.1520   -0.9790 N.3   275  TRP275     -0.1241
     91  CA         0.0040    6.2150   -1.1250 C.3   275  TRP275      0.1605
     92  C         -0.6010    7.5450   -0.7030 C.2   275  TRP275      0.2264
     93  O         -1.7680    7.8220   -0.9930 O.2   275  TRP275     -0.2867
     94  CB         0.4150    6.3700   -2.5930 C.3   275  TRP275      0.0550
     95  CG         1.0630    5.1870   -3.2720 C.ar  275  TRP275      0.0003
     96  CD1        0.9630    3.8680   -2.9260 C.ar  275  TRP275      0.0946
     97  CD2        1.8650    5.2310   -4.4570 C.ar  275  TRP275      0.0152
     98  NE1        1.6730    3.0920   -3.8090 N.ar  275  TRP275     -0.2442
     99  CE2        2.2360    3.9020   -4.7600 C.ar  275  TRP275      0.0810
    100  CE3        2.3160    6.2680   -5.2880 C.ar  275  TRP275      0.0012
    101  CZ2        3.0350    3.5780   -5.8620 C.ar  275  TRP275      0.0191
    102  CZ3        3.1150    5.9480   -6.3860 C.ar  275  TRP275      0.0001
    103  CH2        3.4670    4.6090   -6.6600 C.ar  275  TRP275      0.0015
    104  N          1.7270   13.1100   -3.5820 N.3   278  LYS278     -0.1245
    105  CA         3.0730   13.6780   -3.5300 C.3   278  LYS278      0.1561
    106  C          3.0050   15.1850   -3.3090 C.2   278  LYS278      0.2260
    107  O          2.1460   15.8640   -3.8760 O.2   278  LYS278     -0.2867
    108  CB         3.8570   13.3610   -4.8120 C.3   278  LYS278      0.0271
    109  CG         3.9190   11.8690   -5.1860 C.3   278  LYS278      0.0035
    110  CD         4.6020   11.0190   -4.1120 C.3   278  LYS278      0.0206
    111  CE         4.7990    9.5790   -4.5900 C.3   278  LYS278      0.1093
    112  NZ         5.3520    8.7060   -3.5210 N.3   278  LYS278     -0.1314
    113  N          6.1000   17.2860   -3.2190 N.3   280  TYR280     -0.1241
    114  CA         7.5400   17.5300   -3.3200 C.3   280  TYR280      0.1605
    115  C          7.9750   18.9940   -3.1700 C.2   280  TYR280      0.2264
    116  O          9.0530   19.2610   -2.6310 O.2   280  TYR280     -0.2867
    117  CB         8.0990   16.9550   -4.6270 C.3   280  TYR280      0.0534
    118  CG         8.0090   15.4440   -4.7710 C.ar  280  TYR280     -0.0201
    119  CD1        8.0210   14.8560   -6.0360 C.ar  280  TYR280     -0.0009
    120  CD2        7.9150   14.6040   -3.6550 C.ar  280  TYR280     -0.0009
    121  CE1        7.9520   13.4780   -6.1940 C.ar  280  TYR280      0.0417
    122  CE2        7.8380   13.2160   -3.8040 C.ar  280  TYR280      0.0417
    123  CZ         7.8620   12.6630   -5.0780 C.ar  280  TYR280      0.1957
    124  OH         7.7950   11.2970   -5.2540 O.3   280  TYR280     -0.2866
@<TRIPOS>BOND
     1    36    37   ar
     2    36    34   ar
     3    37    35   ar
     4    34    31   ar
     5    35    33   ar
     6    44    42    1
     7    38    39    1
     8    39    42    1
     9    39    40    1
    10    31    33   ar
    11    31    29   ar
    12    42    43    1
    13    33    32   ar
    14    40    41    2
    15    13    12    2
    16    27    26    2
    17    22    20   ar
    18    22    23   ar
    19    29    28    1
    20    29    30   ar
    21    25    26    1
    22    25    28    1
    23    25    24    1
    24    20    17   ar
    25    32    30   ar
    26    12    24   am
    27    12    11    1
    28    23    21   ar
    29    75    73   ar
    30    75    76   ar
    31    14    11    1
    32    14    15    1
    33    17    15   ar
    34    17    19   ar
    35    11    10    1
    36    78    76   ar
    37    78    80   ar
    38    52    54   ar
    39    52    50   ar
    40    73    72   ar
    41    49    50    1
    42    49    46    1
    43    76    74   ar
    44    15    16   ar
    45    54    55   ar
    46    21    19   ar
    47    45    46    1
    48    50    51   ar
    49    19    18   ar
    50    46    47    1
    51    80    79   ar
    52    55    56    1
    53    55    53   ar
    54    51    53   ar
    55    72    74   ar
    56    72    71    1
    57    74    77   ar
    58    67    68    1
    59    16    18   ar
    60     8     7    2
    61     4     3    2
    62    79    77   ar
    63    47    48    2
    64    71    68    1
    65    68    69    1
    66     9     7   am
    67     7     6    1
    68     3     2    1
    69     5     6    1
    70     5     2    1
    71    88    87   ar
    72    69    70    2
    73     2     1    1
    74   103   102   ar
    75   103   101   ar
    76    84    83    2
    77    87    86    1
    78    87    89   ar
    79   102   100   ar
    80    83    82    1
    81    86    85    1
    82   121   119   ar
    83   121   123   ar
    84   119   118   ar
    85   101    99   ar
    86    85    82    1
    87   100    97   ar
    88   124   123    1
    89   109   108    1
    90   109   110    1
    91    57    58    1
    92    82    81    1
    93   123   122   ar
    94   108   105    1
    95   118   117    1
    96   118   120   ar
    97    99    97   ar
    98    99    98   ar
    99   117   114    1
   100   111   110    1
   101   111   112    1
   102    58    61    1
   103    58    59    1
   104    97    95   ar
   105    64    62   ar
   106    64    66   ar
   107    61    62    1
   108    62    63   ar
   109    66    65   ar
   110   107   106    2
   111    98    96   ar
   112   122   120   ar
   113    63    65   ar
   114   104   105    1
   115   105   106    1
   116    59    60    2
   117   114   113    1
   118   114   115    1
   119    95    96   ar
   120    95    94    1
   121   115   116    2
   122    94    91    1
   123    91    90    1
   124    91    92    1
   125    93    92    2
