@<TRIPOS>MOLECULE
tmp/2wgzA00.pdb
 142 142 0 0 0
SMALL
GASTEIGER

@<TRIPOS>ATOM
      1  N         10.1760   -0.0220   53.3280 N.3   166  GLN166     -0.1245
      2  CA        10.4680    1.4040   53.4140 C.3   166  GLN166      0.1566
      3  C         11.7850    1.5910   54.1830 C.2   166  GLN166      0.2260
      4  O         11.9450    1.0670   55.2860 O.2   166  GLN166     -0.2867
      5  CB         9.3000    2.1380   54.0820 C.3   166  GLN166      0.0367
      6  CG         9.0410    3.5520   53.5630 C.3   166  GLN166      0.0905
      7  CD         9.7910    4.6290   54.3310 C.2   166  GLN166      0.2608
      8  OE1       10.8360    4.3750   54.9360 O.2   166  GLN166     -0.2717
      9  NE2        9.2570    5.8450   54.3080 N.am  166  GLN166     -0.0878
     10  N         13.3870    3.8270   55.9410 N.3   168  TRP168     -0.1227
     11  CA        13.4660    4.4090   57.2770 C.3   168  TRP168      0.1737
     12  C         12.9230    3.4990   58.3880 C.2   168  TRP168      0.2595
     13  O         13.3090    3.6420   59.5480 O.2   168  TRP168     -0.2718
     14  CB        12.7510    5.7680   57.3150 C.3   168  TRP168      0.0564
     15  CG        13.4810    6.8700   56.5920 C.ar  168  TRP168      0.0003
     16  CD1       13.3840    7.1830   55.2670 C.ar  168  TRP168      0.0946
     17  CD2       14.4170    7.7990   57.1550 C.ar  168  TRP168      0.0152
     18  NE1       14.1980    8.2530   54.9680 N.ar  168  TRP168     -0.2442
     19  CE2       14.8450    8.6490   56.1080 C.ar  168  TRP168      0.0810
     20  CE3       14.9330    8.0000   58.4440 C.ar  168  TRP168      0.0012
     21  CZ2       15.7670    9.6840   56.3100 C.ar  168  TRP168      0.0191
     22  CZ3       15.8540    9.0310   58.6420 C.ar  168  TRP168      0.0001
     23  CH2       16.2590    9.8550   57.5790 C.ar  168  TRP168      0.0015
     24  N         12.0480    2.5590   58.0340 N.am  169  TRP169     -0.1976
     25  CA        11.2900    1.8050   59.0390 C.3   169  TRP169      0.1640
     26  C         11.5960    0.3090   59.1400 C.2   169  TRP169      0.2290
     27  O         10.9980   -0.3800   59.9690 O.2   169  TRP169     -0.2864
     28  CB         9.7790    2.0080   58.8220 C.3   169  TRP169      0.0576
     29  CG         9.3650    3.4440   58.9050 C.ar  169  TRP169      0.0006
     30  CD1        9.1490    4.2950   57.8630 C.ar  169  TRP169      0.0946
     31  CD2        9.1400    4.2040   60.0980 C.ar  169  TRP169      0.0152
     32  NE1        8.7970    5.5380   58.3300 N.ar  169  TRP169     -0.2442
     33  CE2        8.7840    5.5100   59.6990 C.ar  169  TRP169      0.0810
     34  CE3        9.1990    3.9050   61.4650 C.ar  169  TRP169      0.0012
     35  CZ2        8.4890    6.5210   60.6190 C.ar  169  TRP169      0.0191
     36  CZ3        8.9060    4.9150   62.3810 C.ar  169  TRP169      0.0001
     37  CH2        8.5530    6.2050   61.9510 C.ar  169  TRP169      0.0015
     38  N          4.1200    4.0910   60.8600 N.3   178  THR178     -0.1218
     39  CA         3.1510    5.1520   60.5850 C.3   178  THR178      0.1862
     40  C          1.9640    4.6290   59.7720 C.2   178  THR178      0.2287
     41  O          1.5610    5.2420   58.7820 O.2   178  THR178     -0.2866
     42  CB         3.7890    6.3860   59.8900 C.3   178  THR178      0.1770
     43  OG1        4.3980    5.9860   58.6560 O.3   178  THR178     -0.2211
     44  CG2        4.8330    7.0390   60.7910 C.3   178  THR178      0.0375
     45  N          6.5120   -2.2500   57.3640 N.3   197  TYR197     -0.1241
     46  CA         6.0180   -1.0280   56.7410 C.3   197  TYR197      0.1605
     47  C          6.4880   -0.9650   55.2880 C.2   197  TYR197      0.2264
     48  O          7.6840   -0.8170   55.0050 O.2   197  TYR197     -0.2867
     49  CB         6.4220    0.2400   57.5050 C.3   197  TYR197      0.0534
     50  CG         5.6330    1.4370   57.0230 C.ar  197  TYR197     -0.0201
     51  CD1        6.1730    2.3330   56.1000 C.ar  197  TYR197     -0.0009
     52  CD2        4.3210    1.6370   57.4450 C.ar  197  TYR197     -0.0009
     53  CE1        5.4350    3.4170   55.6390 C.ar  197  TYR197      0.0417
     54  CE2        3.5730    2.7130   56.9860 C.ar  197  TYR197      0.0417
     55  CZ         4.1340    3.5990   56.0870 C.ar  197  TYR197      0.1957
     56  OH         3.3820    4.6600   55.6400 O.3   197  TYR197     -0.2866
     57  N          6.6970    0.4070   51.3350 N.3   199  HIS199     -0.1241
     58  CA         6.8340    1.6830   50.6320 C.3   199  HIS199      0.1621
     59  C          5.9660    1.6830   49.3790 C.2   199  HIS199      0.2264
     60  O          6.0230    0.7500   48.5770 O.2   199  HIS199     -0.2867
     61  CB         8.3060    1.9230   50.2740 C.3   199  HIS199      0.0745
     62  CG         8.6420    3.3530   49.9720 C.ar  199  HIS199      0.0817
     63  ND1        9.8680    3.7360   49.4720 N.ar  199  HIS199     -0.2268
     64  CD2        7.9160    4.4910   50.0940 C.ar  199  HIS199      0.1154
     65  CE1        9.8860    5.0470   49.3070 C.ar  199  HIS199      0.1986
     66  NE2        8.7130    5.5290   49.6730 N.ar  199  HIS199     -0.2212
     67  N         -0.9350    8.6660   55.2480 N.3   233  TRP233     -0.1241
     68  CA        -0.0010    8.5580   54.1260 C.3   233  TRP233      0.1605
     69  C         -0.6720    8.0850   52.8360 C.2   233  TRP233      0.2264
     70  O         -0.0540    7.4230   51.9940 O.2   233  TRP233     -0.2867
     71  CB         1.2220    7.7250   54.5110 C.3   233  TRP233      0.0550
     72  CG         2.0490    8.4550   55.5130 C.ar  233  TRP233      0.0003
     73  CD1        2.0870    8.2400   56.8630 C.ar  233  TRP233      0.0946
     74  CD2        2.9140    9.5660   55.2570 C.ar  233  TRP233      0.0152
     75  NE1        2.9440    9.1330   57.4580 N.ar  233  TRP233     -0.2442
     76  CE2        3.4660    9.9580   56.4970 C.ar  233  TRP233      0.0810
     77  CE3        3.2930   10.2570   54.0970 C.ar  233  TRP233      0.0012
     78  CZ2        4.3780   11.0140   56.6110 C.ar  233  TRP233      0.0191
     79  CZ3        4.1970   11.3090   54.2100 C.ar  233  TRP233      0.0001
     80  CH2        4.7290   11.6760   55.4590 C.ar  233  TRP233      0.0015
     81  N         -0.2290    4.9540   50.2880 N.3   236  GLU236     -0.1245
     82  CA         0.6870    4.0990   51.0450 C.3   236  GLU236      0.1567
     83  C          0.0280    3.4640   52.2750 C.2   236  GLU236      0.2260
     84  O          0.3270    2.3170   52.6260 O.2   236  GLU236     -0.2867
     85  CB         1.9370    4.8740   51.4550 C.3   236  GLU236      0.0388
     86  CG         2.9880    4.0340   52.1710 C.3   236  GLU236      0.1160
     87  CD         4.2980    4.7730   52.3100 C.2   236  GLU236      0.3649
     88  OE1        4.5130    5.4010   53.3660 O.co2 236  GLU236     -0.2457
     89  OE2        5.0920    4.7530   51.3490 O.co2 236  GLU236     -0.2457
     90  N         17.1270    5.6030   50.7830 N.3   259  ASP259     -0.1239
     91  CA        17.2870    7.0420   50.9950 C.3   259  ASP259      0.1674
     92  C         18.6760    7.3420   51.5500 C.2   259  ASP259      0.2266
     93  O         18.9710    7.0270   52.7000 O.2   259  ASP259     -0.2867
     94  CB        16.2120    7.5870   51.9410 C.3   259  ASP259      0.1410
     95  CG        16.2340    9.1110   52.0450 C.2   259  ASP259      0.3668
     96  OD1       16.9530    9.7710   51.2600 O.co2 259  ASP259     -0.2456
     97  OD2       15.5210    9.6480   52.9150 O.co2 259  ASP259     -0.2456
     98  N         19.8220   10.0060   52.5460 N.3   261  HIS261     -0.1241
     99  CA        19.7320   10.9140   53.6940 C.3   261  HIS261      0.1621
    100  C         19.9550   10.1870   55.0240 C.2   261  HIS261      0.2264
    101  O         20.3830   10.7940   56.0020 O.2   261  HIS261     -0.2867
    102  CB        18.3940   11.6640   53.7090 C.3   261  HIS261      0.0745
    103  CG        18.3040   12.7050   54.7820 C.ar  261  HIS261      0.0817
    104  ND1       19.0410   13.8710   54.7510 N.ar  261  HIS261     -0.2268
    105  CD2       17.5780   12.7500   55.9250 C.ar  261  HIS261      0.1154
    106  CE1       18.7690   14.5910   55.8250 C.ar  261  HIS261      0.1986
    107  NE2       17.8830   13.9340   56.5540 N.ar  261  HIS261     -0.2212
    108  N         16.1500    7.3590   46.4910 N.3   275  TRP275     -0.1241
    109  CA        15.1810    8.4530   46.5390 C.3   275  TRP275      0.1605
    110  C         15.8200    9.7420   46.0310 C.2   275  TRP275      0.2264
    111  O         16.9830   10.0270   46.3340 O.2   275  TRP275     -0.2867
    112  CB        14.7500    8.7440   47.9830 C.3   275  TRP275      0.0550
    113  CG        14.0990    7.6430   48.7850 C.ar  275  TRP275      0.0003
    114  CD1       14.1950    6.2900   48.5920 C.ar  275  TRP275      0.0946
    115  CD2       13.3010    7.8240   49.9640 C.ar  275  TRP275      0.0152
    116  NE1       13.4820    5.6210   49.5660 N.ar  275  TRP275     -0.2442
    117  CE2       12.9280    6.5380   50.4210 C.ar  275  TRP275      0.0810
    118  CE3       12.8610    8.9520   50.6760 C.ar  275  TRP275      0.0012
    119  CZ2       12.1310    6.3480   51.5570 C.ar  275  TRP275      0.0191
    120  CZ3       12.0660    8.7630   51.8040 C.ar  275  TRP275      0.0001
    121  CH2       11.7110    7.4660   52.2310 C.ar  275  TRP275      0.0015
    122  N         13.5480   15.4570   48.6080 N.3   278  LYS278     -0.1245
    123  CA        12.2230   16.0670   48.5300 C.3   278  LYS278      0.1561
    124  C         12.3350   17.5540   48.2000 C.2   278  LYS278      0.2260
    125  O         13.1680   18.2650   48.7700 O.2   278  LYS278     -0.2867
    126  CB        11.4340   15.8550   49.8300 C.3   278  LYS278      0.0271
    127  CG        11.3300   14.3880   50.2900 C.3   278  LYS278      0.0035
    128  CD        10.7680   13.4720   49.2030 C.3   278  LYS278      0.0206
    129  CE        10.6070   12.0470   49.7190 C.3   278  LYS278      0.1093
    130  NZ         9.9970   11.1410   48.7070 N.3   278  LYS278     -0.1314
    131  N          9.2870   19.5920   47.8840 N.3   280  TYR280     -0.1241
    132  CA         7.8480   19.8670   47.9570 C.3   280  TYR280      0.1605
    133  C          7.4750   21.3220   47.6860 C.2   280  TYR280      0.2264
    134  O          6.4720   21.5920   47.0200 O.2   280  TYR280     -0.2867
    135  CB         7.2740   19.4160   49.3080 C.3   280  TYR280      0.0534
    136  CG         7.3170   17.9140   49.5520 C.ar  280  TYR280     -0.0201
    137  CD1        7.2230   17.4000   50.8450 C.ar  280  TYR280     -0.0009
    138  CD2        7.4620   17.0110   48.4950 C.ar  280  TYR280     -0.0009
    139  CE1        7.2590   16.0250   51.0810 C.ar  280  TYR280      0.0417
    140  CE2        7.5090   15.6350   48.7210 C.ar  280  TYR280      0.0417
    141  CZ         7.4010   15.1520   50.0130 C.ar  280  TYR280      0.1957
    142  OH         7.4370   13.8000   50.2370 O.3   280  TYR280     -0.2866
@<TRIPOS>BOND
     1   110   111    2
     2   110   109    1
     3   108   109    1
     4   109   112    1
     5   134   133    2
     6   133   132    1
     7   131   132    1
     8   132   135    1
     9   112   113    1
    10   124   123    1
    11   124   125    2
    12   138   140   ar
    13   138   136   ar
    14   123   122    1
    15   123   126    1
    16    60    59    2
    17   114   113   ar
    18   114   116   ar
    19   130   129    1
    20   140   141   ar
    21   113   115   ar
    22   128   129    1
    23   128   127    1
    24    65    63   ar
    25    65    66   ar
    26   135   136    1
    27    59    58    1
    28    63    62   ar
    29   136   137   ar
    30   116   117   ar
    31    66    64   ar
    32   126   127    1
    33   115   117   ar
    34   115   118   ar
    35    62    64   ar
    36    62    61    1
    37   141   142    1
    38   141   139   ar
    39    61    58    1
    40    81    82    1
    41   117   119   ar
    42    58    57    1
    43   118   120   ar
    44    90    91    1
    45   137   139   ar
    46    91    92    1
    47    91    94    1
    48    82    85    1
    49    82    83    1
    50    96    95   ar
    51    89    87   ar
    52    85    86    1
    53    92    93    2
    54   119   121   ar
    55   120   121   ar
    56    94    95    1
    57    70    69    2
    58    95    97   ar
    59    86    87    1
    60    83    84    2
    61    87    88   ar
    62    98    99    1
    63    69    68    1
    64     1     2    1
    65     2     5    1
    66     2     3    1
    67     6     5    1
    68     6     7    1
    69    99   102    1
    70    99   100    1
    71   102   103    1
    72    77    79   ar
    73    77    74   ar
    74    68    71    1
    75    68    67    1
    76     3     4    2
    77    79    80   ar
    78     9     7   am
    79     7     8    2
    80    71    72    1
    81   104   103   ar
    82   104   106   ar
    83   103   105   ar
    84    18    16   ar
    85    18    19   ar
    86    48    47    2
    87   100   101    2
    88    74    72   ar
    89    74    76   ar
    90    16    15   ar
    91    47    46    1
    92    80    78   ar
    93    72    73   ar
    94    53    55   ar
    95    53    51   ar
    96    56    55    1
    97   106   107   ar
    98   105   107   ar
    99    10    11    1
   100    55    54   ar
   101    51    50   ar
   102    19    21   ar
   103    19    17   ar
   104    21    23   ar
   105    76    78   ar
   106    76    75   ar
   107    15    17   ar
   108    15    14    1
   109    46    45    1
   110    46    49    1
   111    73    75   ar
   112    54    52   ar
   113    50    52   ar
   114    50    49    1
   115    17    20   ar
   116    11    14    1
   117    11    12    1
   118    23    22   ar
   119    30    32   ar
   120    30    29   ar
   121    24    12   am
   122    24    25    1
   123    32    33   ar
   124    12    13    2
   125    20    22   ar
   126    43    42    1
   127    41    40    2
   128    28    29    1
   129    28    25    1
   130    29    31   ar
   131    25    26    1
   132    26    27    2
   133    33    31   ar
   134    33    35   ar
   135    40    39    1
   136    42    39    1
   137    42    44    1
   138    31    34   ar
   139    39    38    1
   140    35    37   ar
   141    34    36   ar
   142    37    36   ar
