@<TRIPOS>MOLECULE
tmp/2wh0B01.pdb
 86 81 0 0 0
SMALL
GASTEIGER

@<TRIPOS>ATOM
      1  N          5.4920  -14.7180   17.9220 N.3   152  PHE152     -0.1241
      2  CA         5.0990  -16.1160   17.8470 C.3   152  PHE152      0.1605
      3  C          4.2060  -16.3520   16.6400 C.2   152  PHE152      0.2264
      4  O          4.4630  -17.2330   15.8130 O.2   152  PHE152     -0.2867
      5  CB         4.3350  -16.4810   19.1110 C.3   152  PHE152      0.0534
      6  CG         4.1580  -17.9490   19.3150 C.ar  152  PHE152     -0.0203
      7  CD1        5.2560  -18.7830   19.4160 C.ar  152  PHE152     -0.0042
      8  CD2        2.8910  -18.4920   19.4450 C.ar  152  PHE152     -0.0042
      9  CE1        5.0950  -20.1400   19.6260 C.ar  152  PHE152     -0.0003
     10  CE2        2.7210  -19.8510   19.6510 C.ar  152  PHE152     -0.0003
     11  CZ         3.8260  -20.6770   19.7450 C.ar  152  PHE152     -0.0000
     12  N          6.0600  -16.0520   13.4160 N.3   155  SER155     -0.1202
     13  CA         6.8890  -17.2290   13.1720 C.3   155  SER155      0.2020
     14  C          6.0250  -18.4100   12.7520 C.2   155  SER155      0.2618
     15  O          6.3880  -19.1530   11.8480 O.2   155  SER155     -0.2717
     16  CB         7.7530  -17.5860   14.3940 C.3   155  SER155      0.2103
     17  OG         6.9660  -17.8980   15.5300 O.3   155  SER155     -0.2182
     18  N          4.8830  -18.5850   13.4090 N.am  156  LYS156     -0.1979
     19  CA         3.9800  -19.6630   13.0450 C.3   156  LYS156      0.1596
     20  C          3.5400  -19.4260   11.6240 C.2   156  LYS156      0.2287
     21  O          3.3980  -20.3580   10.8360 O.2   156  LYS156     -0.2864
     22  CB         2.7580  -19.7080   13.9670 C.3   156  LYS156      0.0298
     23  CG         2.9250  -20.5960   15.1970 C.3   156  LYS156      0.0038
     24  CD         1.5650  -21.1160   15.6660 C.3   156  LYS156      0.0206
     25  CE         1.5670  -21.5290   17.1480 C.3   156  LYS156      0.1093
     26  NZ         2.2030  -22.8570   17.4560 N.3   156  LYS156     -0.1314
     27  N          8.5630  -25.0630   11.3030 N.3   161  PRO161     -0.2116
     28  CA         8.7920  -25.2980   12.7280 C.3   161  PRO161      0.1372
     29  C         10.2420  -25.6710   13.0070 C.2   161  PRO161      0.2244
     30  O         10.6350  -25.7080   14.1740 O.2   161  PRO161     -0.2868
     31  CB         7.8780  -26.4890   13.0410 C.3   161  PRO161      0.0268
     32  CG         6.9210  -26.5750   11.9050 C.3   161  PRO161      0.0207
     33  CD         7.6650  -26.0720   10.7180 C.3   161  PRO161      0.0892
     34  N         12.4650  -19.7100   14.6770 N.3   166  ARG166     -0.1231
     35  CA        11.1540  -20.0960   15.1700 C.3   166  ARG166      0.1694
     36  C         11.2810  -20.9190   16.4510 C.2   166  ARG166      0.2591
     37  O         10.5190  -20.7300   17.4010 O.2   166  ARG166     -0.2718
     38  CB        10.3890  -20.8690   14.0910 C.3   166  ARG166      0.0321
     39  CG         9.1590  -21.5850   14.6050 C.3   166  ARG166      0.0489
     40  CD         8.1720  -21.8630   13.4950 C.3   166  ARG166      0.2205
     41  NE         6.9290  -22.4170   14.0200 N.pl3 166  ARG166     -0.0865
     42  CZ         5.9270  -22.8580   13.2660 C.cat 166  ARG166      0.5346
     43  NH1        6.0170  -22.8140   11.9490 N.pl3 166  ARG166      0.1354
     44  NH2        4.8360  -23.3500   13.8310 N.pl3 166  ARG166      0.1354
     45  N         12.2610  -21.8180   16.4750 N.am  167  LEU167     -0.1980
     46  CA        12.4770  -22.7050   17.6130 C.3   167  LEU167      0.1596
     47  C         13.0470  -21.9710   18.8230 C.2   167  LEU167      0.2287
     48  O         12.7220  -22.2980   19.9710 O.2   167  LEU167     -0.2864
     49  CB        13.4180  -23.8370   17.2160 C.3   167  LEU167      0.0297
     50  CG        12.8480  -24.9300   16.3190 C.3   167  LEU167      0.0022
     51  CD1       13.9650  -25.6230   15.5610 C.3   167  LEU167      0.0001
     52  CD2       12.0450  -25.9220   17.1650 C.3   167  LEU167      0.0001
     53  N         12.5910  -18.8520   19.6010 N.3   169  LEU169     -0.1231
     54  CA        11.5400  -18.0020   20.1550 C.3   169  LEU169      0.1693
     55  C         10.5100  -18.8310   20.8960 C.2   169  LEU169      0.2591
     56  O          9.9600  -18.3840   21.8990 O.2   169  LEU169     -0.2718
     57  CB        10.8570  -17.2090   19.0430 C.3   169  LEU169      0.0284
     58  CG         9.4340  -16.6870   19.2510 C.3   169  LEU169      0.0019
     59  CD1        9.3850  -15.5340   20.2450 C.3   169  LEU169      0.0001
     60  CD2        8.8960  -16.2520   17.8970 C.3   169  LEU169      0.0001
     61  N         10.2430  -20.0360   20.4060 N.am  170  ALA170     -0.1980
     62  CA         9.3910  -20.9770   21.1350 C.3   170  ALA170      0.1597
     63  C         10.0760  -21.3690   22.4450 C.2   170  ALA170      0.2287
     64  O          9.4880  -21.3070   23.5200 O.2   170  ALA170     -0.2864
     65  CB         9.1050  -22.2130   20.2880 C.3   170  ALA170      0.0319
     66  N          4.7670  -28.6270   22.1220 N.3   193  THR193     -0.1203
     67  CA         4.2130  -28.4690   20.7690 C.3   193  THR193      0.1994
     68  C          5.2850  -28.0840   19.7480 C.2   193  THR193      0.2617
     69  O          5.2850  -28.5750   18.6160 O.2   193  THR193     -0.2717
     70  CB         3.0850  -27.4190   20.7300 C.3   193  THR193      0.1784
     71  OG1        1.8380  -28.0440   21.0530 O.3   193  THR193     -0.2211
     72  CG2        2.9810  -26.7720   19.3350 C.3   193  THR193      0.0376
     73  N          6.1890  -27.1950   20.1600 N.am  194  ALA194     -0.1979
     74  CA         7.3030  -26.7520   19.3210 C.3   194  ALA194      0.1597
     75  C          8.2740  -27.8950   19.0480 C.2   194  ALA194      0.2287
     76  O          8.7920  -28.0330   17.9360 O.2   194  ALA194     -0.2864
     77  CB         8.0310  -25.5750   19.9700 C.3   194  ALA194      0.0319
     78  N          6.3640  -30.7360   16.6500 N.3   197  GLU197     -0.1245
     79  CA         6.0820  -30.3540   15.2720 C.3   197  GLU197      0.1567
     80  C          7.3280  -30.2870   14.3960 C.2   197  GLU197      0.2260
     81  O          7.2900  -30.6650   13.2250 O.2   197  GLU197     -0.2867
     82  CB         5.3030  -29.0380   15.2250 C.3   197  GLU197      0.0388
     83  CG         3.8640  -29.1700   15.7010 C.3   197  GLU197      0.1160
     84  CD         3.0770  -27.8820   15.5430 C.2   197  GLU197      0.3649
     85  OE1        3.6300  -26.9130   14.9820 O.co2 197  GLU197     -0.2457
     86  OE2        1.9040  -27.8400   15.9770 O.co2 197  GLU197     -0.2457
@<TRIPOS>BOND
     1    33    27    1
     2    33    32    1
     3    21    20    2
     4    27    28    1
     5    20    19    1
     6    15    14    2
     7    32    31    1
     8    43    42    1
     9    28    29    1
    10    28    31    1
    11    14    13    1
    12    14    18   am
    13    29    30    2
    14    19    18    1
    15    19    22    1
    16    13    12    1
    17    13    16    1
    18    81    80    2
    19    42    44    1
    20    42    41    2
    21    40    41    1
    22    40    39    1
    23    22    23    1
    24    38    39    1
    25    38    35    1
    26    16    17    1
    27    80    79    1
    28    34    35    1
    29    85    84   ar
    30    35    36    1
    31    23    24    1
    32    82    79    1
    33    82    83    1
    34    79    78    1
    35    84    83    1
    36    84    86   ar
    37    51    50    1
    38    24    25    1
    39     4     3    2
    40    50    52    1
    41    50    49    1
    42    36    45   am
    43    36    37    2
    44    45    46    1
    45     3     2    1
    46    25    26    1
    47    49    46    1
    48    46    47    1
    49     2     1    1
    50     2     5    1
    51    60    58    1
    52    76    75    2
    53    69    68    2
    54    47    48    2
    55    57    58    1
    56    57    54    1
    57    75    74    1
    58     5     6    1
    59    58    59    1
    60     6     7   ar
    61     6     8   ar
    62    74    77    1
    63    74    73    1
    64    72    70    1
    65     7     9   ar
    66     8    10   ar
    67    53    54    1
    68     9    11   ar
    69    10    11   ar
    70    68    73   am
    71    68    67    1
    72    54    55    1
    73    65    62    1
    74    61    55   am
    75    61    62    1
    76    70    67    1
    77    70    71    1
    78    67    66    1
    79    55    56    2
    80    62    63    1
    81    63    64    2
