@<TRIPOS>MOLECULE
tmp/2wh0B00.pdb
 202 191 0 0 0
SMALL
GASTEIGER

@<TRIPOS>ATOM
      1  N         23.7610  -10.0650   14.1930 N.3    41  ASN41      -0.1240
      2  CA        24.3840  -11.0560   15.0610 C.3    41  ASN41       0.1653
      3  C         25.2750  -10.3800   16.0850 C.2    41  ASN41       0.2266
      4  O         25.0880  -10.5410   17.2920 O.2    41  ASN41      -0.2867
      5  CB        25.2070  -12.0530   14.2430 C.3    41  ASN41       0.1155
      6  CG        25.9620  -13.0580   15.1150 C.2    41  ASN41       0.2627
      7  OD1       27.1940  -13.1020   15.1090 O.2    41  ASN41      -0.2716
      8  ND2       25.2240  -13.8740   15.8540 N.am   41  ASN41      -0.0877
      9  N         23.5560   -8.6390   18.6620 N.3    44  SER44      -0.1202
     10  CA        22.8670   -9.6370   19.4610 C.3    44  SER44       0.2020
     11  C         23.8630  -10.2860   20.4210 C.2    44  SER44       0.2618
     12  O         23.5730  -10.4870   21.6080 O.2    44  SER44      -0.2717
     13  CB        22.2300  -10.6760   18.5300 C.3    44  SER44       0.2103
     14  OG        21.1600  -11.3570   19.1490 O.3    44  SER44      -0.2182
     15  N         25.0450  -10.5950   19.8980 N.am   45  VAL45      -0.1979
     16  CA        26.1190  -11.2130   20.6730 C.3    45  VAL45       0.1595
     17  C         26.7190  -10.2610   21.6960 C.2    45  VAL45       0.2287
     18  O         27.0610  -10.6640   22.8070 O.2    45  VAL45      -0.2864
     19  CB        27.2570  -11.6980   19.7530 C.3    45  VAL45       0.0276
     20  CG1       28.5120  -12.0060   20.5630 C.3    45  VAL45       0.0022
     21  CG2       26.8150  -12.9100   18.9690 C.3    45  VAL45       0.0022
     22  N         24.0010   -9.6530   24.4600 N.3    48  LYS48      -0.1245
     23  CA        23.7390  -10.8890   25.1780 C.3    48  LYS48       0.1561
     24  C         24.8610  -11.1300   26.1770 C.2    48  LYS48       0.2260
     25  O         24.6110  -11.5280   27.3180 O.2    48  LYS48      -0.2867
     26  CB        23.5790  -12.0800   24.2370 C.3    48  LYS48       0.0271
     27  CG        22.9670  -13.2990   24.9270 C.3    48  LYS48       0.0035
     28  CD        21.5970  -12.9690   25.5050 C.3    48  LYS48       0.0206
     29  CE        21.3690  -13.6290   26.8550 C.3    48  LYS48       0.1093
     30  NZ        21.3760  -15.1180   26.7750 N.3    48  LYS48      -0.1314
     31  N         23.3000  -10.4930   34.6390 N.3    55  ARG55      -0.1245
     32  CA        22.3460  -11.5160   35.0630 C.3    55  ARG55       0.1563
     33  C         23.0350  -12.5180   35.9900 C.2    55  ARG55       0.2260
     34  O         22.4890  -12.9040   37.0280 O.2    55  ARG55      -0.2867
     35  CB        21.7310  -12.2310   33.8550 C.3    55  ARG55       0.0307
     36  CG        20.6060  -11.4720   33.1740 C.3    55  ARG55       0.0489
     37  CD        20.1670  -12.1690   31.8720 C.3    55  ARG55       0.2205
     38  NE        19.1220  -13.1640   32.1080 N.pl3  55  ARG55      -0.0865
     39  CZ        18.9130  -14.2320   31.3460 C.cat  55  ARG55       0.5346
     40  NH1       19.6930  -14.4570   30.2960 N.pl3  55  ARG55       0.1354
     41  NH2       17.9330  -15.0790   31.6410 N.pl3  55  ARG55       0.1354
     42  N         12.8870  -11.8120   14.6590 N.3   116  PHE116     -0.1241
     43  CA        14.1120  -11.8610   15.4390 C.3   116  PHE116      0.1605
     44  C         14.1500  -10.7330   16.4580 C.2   116  PHE116      0.2264
     45  O         14.5130  -10.9400   17.6210 O.2   116  PHE116     -0.2867
     46  CB        15.3400  -11.7930   14.5330 C.3   116  PHE116      0.0534
     47  CG        16.6430  -11.9460   15.2690 C.ar  116  PHE116     -0.0203
     48  CD1       17.2530  -10.8470   15.8690 C.ar  116  PHE116     -0.0042
     49  CD2       17.2620  -13.1880   15.3670 C.ar  116  PHE116     -0.0042
     50  CE1       18.4550  -10.9830   16.5420 C.ar  116  PHE116     -0.0003
     51  CE2       18.4670  -13.3340   16.0360 C.ar  116  PHE116     -0.0003
     52  CZ        19.0640  -12.2310   16.6240 C.ar  116  PHE116     -0.0000
     53  N         11.4740  -11.0840   19.2100 N.3   119  LYS119     -0.1245
     54  CA        11.9030  -12.0960   20.1600 C.3   119  LYS119      0.1561
     55  C         12.8530  -11.4130   21.1250 C.2   119  LYS119      0.2260
     56  O         12.6210  -11.3810   22.3300 O.2   119  LYS119     -0.2867
     57  CB        12.6210  -13.2350   19.4440 C.3   119  LYS119      0.0271
     58  CG        13.2880  -14.2240   20.3670 C.3   119  LYS119      0.0035
     59  CD        14.2050  -15.1380   19.5750 C.3   119  LYS119      0.0206
     60  CE        15.2600  -15.7620   20.4640 C.3   119  LYS119      0.1093
     61  NZ        16.2140  -14.7260   20.9580 N.3   119  LYS119     -0.1314
     62  N         12.1270   -9.6620   29.4760 N.3   126  ARG126     -0.1231
     63  CA        12.1860  -10.7880   30.4030 C.3   126  ARG126      0.1694
     64  C         13.3100  -10.5710   31.4110 C.2   126  ARG126      0.2592
     65  O         13.1180  -10.7310   32.6130 O.2   126  ARG126     -0.2718
     66  CB        12.3920  -12.0980   29.6540 C.3   126  ARG126      0.0321
     67  CG        12.6120  -13.2890   30.5550 C.3   126  ARG126      0.0489
     68  CD        12.2870  -14.5800   29.8170 C.3   126  ARG126      0.2205
     69  NE        13.1130  -14.7480   28.6230 N.pl3 126  ARG126     -0.0865
     70  CZ        14.2550  -15.4230   28.5980 C.cat 126  ARG126      0.5346
     71  NH1       14.7020  -15.9950   29.7000 N.pl3 126  ARG126      0.1354
     72  NH2       14.9440  -15.5280   27.4700 N.pl3 126  ARG126      0.1354
     73  N         14.4780  -10.1760   30.9190 N.am  127  TYR127     -0.1976
     74  CA        15.5990   -9.8760   31.8010 C.3   127  TYR127      0.1639
     75  C         15.2370   -8.7770   32.8080 C.2   127  TYR127      0.2290
     76  O         15.6760   -8.8040   33.9600 O.2   127  TYR127     -0.2864
     77  CB        16.8350   -9.5120   30.9830 C.3   127  TYR127      0.0560
     78  CG        17.1220  -10.5210   29.9060 C.ar  127  TYR127     -0.0198
     79  CD1       16.8980  -11.8680   30.1250 C.ar  127  TYR127     -0.0009
     80  CD2       17.6230  -10.1320   28.6720 C.ar  127  TYR127     -0.0009
     81  CE1       17.1520  -12.7970   29.1520 C.ar  127  TYR127      0.0417
     82  CE2       17.8900  -11.0560   27.6950 C.ar  127  TYR127      0.0417
     83  CZ        17.6500  -12.3880   27.9380 C.ar  127  TYR127      0.1957
     84  OH        17.9030  -13.3250   26.9700 O.3   127  TYR127     -0.2866
     85  N         13.9050  -20.9870   18.5640 N.3   168  GLY168     -0.1225
     86  CA        14.5610  -20.2420   19.6210 C.3   168  GLY168      0.1811
     87  C         13.6200  -19.2860   20.3200 C.2   168  GLY168      0.2280
     88  O         13.8190  -18.9480   21.4860 O.2   168  GLY168     -0.2866
     89  N         11.3330  -21.7680   22.3560 N.3   171  LEU171     -0.1231
     90  CA        12.0730  -22.0580   23.5680 C.3   171  LEU171      0.1693
     91  C         11.9710  -20.8730   24.5260 C.2   171  LEU171      0.2592
     92  O         11.5380  -21.0350   25.6630 O.2   171  LEU171     -0.2718
     93  CB        13.5360  -22.3820   23.2610 C.3   171  LEU171      0.0284
     94  CG        14.4350  -22.6440   24.4690 C.3   171  LEU171      0.0019
     95  CD1       14.1470  -24.0080   25.0500 C.3   171  LEU171      0.0001
     96  CD2       15.8840  -22.5510   24.0470 C.3   171  LEU171      0.0001
     97  N         12.3490  -19.6830   24.0590 N.am  172  ASN172     -0.1974
     98  CA        12.3700  -18.4970   24.9190 C.3   172  ASN172      0.1688
     99  C         11.0070  -18.0980   25.4660 C.2   172  ASN172      0.2292
    100  O         10.8960  -17.6380   26.6060 O.2   172  ASN172     -0.2864
    101  CB        13.0490  -17.3140   24.2200 C.3   172  ASN172      0.1181
    102  CG        14.5620  -17.3500   24.3670 C.2   172  ASN172      0.2629
    103  OD1       15.1380  -18.4140   24.5710 O.2   172  ASN172     -0.2716
    104  ND2       15.2070  -16.1890   24.2780 N.am  172  ASN172     -0.0877
    105  N         10.1510  -20.4400   28.2230 N.3   175  VAL175     -0.1245
    106  CA        10.8940  -20.0810   29.4270 C.3   175  VAL175      0.1561
    107  C         10.1980  -18.9260   30.1500 C.2   175  VAL175      0.2260
    108  O          9.9830  -18.9790   31.3570 O.2   175  VAL175     -0.2867
    109  CB        12.3580  -19.7020   29.1170 C.3   175  VAL175      0.0252
    110  CG1       13.0950  -19.3570   30.3980 C.3   175  VAL175      0.0019
    111  CG2       13.0560  -20.8320   28.3870 C.3   175  VAL175      0.0019
    112  N          7.2550  -20.2820   31.9420 N.3   178  TYR178     -0.1227
    113  CA         7.6350  -21.1000   33.0820 C.3   178  TYR178      0.1736
    114  C          8.2070  -20.2890   34.2350 C.2   178  TYR178      0.2595
    115  O          7.8670  -20.5160   35.3940 O.2   178  TYR178     -0.2718
    116  CB         8.6510  -22.1630   32.6890 C.3   178  TYR178      0.0548
    117  CG         8.7920  -23.1970   33.7630 C.ar  178  TYR178     -0.0200
    118  CD1        9.7700  -23.0880   34.7410 C.ar  178  TYR178     -0.0009
    119  CD2        7.9190  -24.2690   33.8220 C.ar  178  TYR178     -0.0009
    120  CE1        9.8840  -24.0390   35.7400 C.ar  178  TYR178      0.0417
    121  CE2        8.0200  -25.2180   34.8110 C.ar  178  TYR178      0.0417
    122  CZ         8.9980  -25.1030   35.7720 C.ar  178  TYR178      0.1957
    123  OH         9.0850  -26.0670   36.7560 O.3   178  TYR178     -0.2866
    124  N          9.0870  -19.3490   33.9140 N.am  179  GLU179     -0.1979
    125  CA         9.8540  -18.6750   34.9440 C.3   179  GLU179      0.1602
    126  C          9.3720  -17.2600   35.2150 C.2   179  GLU179      0.2287
    127  O          9.5510  -16.7460   36.3130 O.2   179  GLU179     -0.2864
    128  CB        11.3450  -18.6860   34.5920 C.3   179  GLU179      0.0415
    129  CG        11.8780  -20.0820   34.2860 C.3   179  GLU179      0.1163
    130  CD        13.2660  -20.3360   34.8600 C.2   179  GLU179      0.3649
    131  OE1       14.2430  -19.7260   34.3700 O.co2 179  GLU179     -0.2457
    132  OE2       13.3780  -21.1620   35.7960 O.co2 179  GLU179     -0.2457
    133  N         21.8220  -25.5930   14.4420 N.3   212  ASP212     -0.1239
    134  CA        21.1100  -24.5560   15.1910 C.3   212  ASP212      0.1674
    135  C         19.7580  -25.0680   15.6570 C.2   212  ASP212      0.2266
    136  O         19.4170  -24.9920   16.8380 O.2   212  ASP212     -0.2867
    137  CB        20.8980  -23.3120   14.3260 C.3   212  ASP212      0.1410
    138  CG        22.1980  -22.7080   13.8490 C.2   212  ASP212      0.3668
    139  OD1       22.3450  -22.5080   12.6240 O.co2 212  ASP212     -0.2456
    140  OD2       23.0730  -22.4420   14.6990 O.co2 212  ASP212     -0.2456
    141  N         20.1660  -28.0150   17.9880 N.3   215  LEU215     -0.1231
    142  CA        20.6550  -27.5070   19.2740 C.3   215  LEU215      0.1693
    143  C         19.4840  -27.0400   20.1460 C.2   215  LEU215      0.2591
    144  O         19.2830  -27.5320   21.2490 O.2   215  LEU215     -0.2718
    145  CB        21.6300  -26.3430   19.0640 C.3   215  LEU215      0.0284
    146  CG        22.6810  -26.0840   20.1540 C.3   215  LEU215      0.0019
    147  CD1       23.0680  -24.6160   20.2070 C.3   215  LEU215      0.0001
    148  CD2       22.2330  -26.5760   21.5250 C.3   215  LEU215      0.0001
    149  N         18.7170  -26.0810   19.6380 N.am  216  ILE216     -0.1980
    150  CA        17.5500  -25.5540   20.3440 C.3   216  ILE216      0.1595
    151  C         16.5230  -26.6450   20.6380 C.2   216  ILE216      0.2287
    152  O         15.9320  -26.6730   21.7160 O.2   216  ILE216     -0.2864
    153  CB        16.8770  -24.4290   19.5460 C.3   216  ILE216      0.0276
    154  CG1       17.8550  -23.2670   19.3480 C.3   216  ILE216      0.0022
    155  CG2       15.6360  -23.9550   20.2590 C.3   216  ILE216      0.0022
    156  CD1       17.4960  -22.3570   18.1870 C.3   216  ILE216      0.0001
    157  N         17.6140  -28.0910   23.5340 N.3   219  LEU219     -0.1245
    158  CA        17.3520  -27.1800   24.6490 C.3   219  LEU219      0.1561
    159  C         15.8840  -27.2150   25.0850 C.2   219  LEU219      0.2260
    160  O         15.5800  -26.9420   26.2420 O.2   219  LEU219     -0.2867
    161  CB        17.7610  -25.7500   24.2790 C.3   219  LEU219      0.0270
    162  CG        19.2680  -25.5220   24.1370 C.3   219  LEU219      0.0019
    163  CD1       19.5970  -24.2960   23.2900 C.3   219  LEU219      0.0001
    164  CD2       19.8890  -25.4170   25.5140 C.3   219  LEU219      0.0001
    165  N         15.2210  -30.6730   26.9500 N.3   222  ASP222     -0.1225
    166  CA        15.8670  -30.5550   28.2490 C.3   222  ASP222      0.1805
    167  C         14.9780  -29.7950   29.2200 C.2   222  ASP222      0.2597
    168  O         14.7980  -30.2110   30.3620 O.2   222  ASP222     -0.2718
    169  CB        17.2200  -29.8530   28.1190 C.3   222  ASP222      0.1424
    170  CG        18.2420  -30.6970   27.3860 C.2   222  ASP222      0.3668
    171  OD1       18.1520  -31.9440   27.4490 O.co2 222  ASP222     -0.2456
    172  OD2       19.1370  -30.1070   26.7460 O.co2 222  ASP222     -0.2456
    173  N         14.4330  -28.6720   28.7710 N.am  223  ASN223     -0.1974
    174  CA        13.5300  -27.8980   29.6040 C.3   223  ASN223      0.1688
    175  C         12.2810  -28.6970   29.9280 C.2   223  ASN223      0.2292
    176  O         11.7430  -28.6100   31.0240 O.2   223  ASN223     -0.2864
    177  CB        13.1620  -26.5760   28.9330 C.3   223  ASN223      0.1181
    178  CG        14.2810  -25.5570   29.0050 C.2   223  ASN223      0.2629
    179  OD1       15.3420  -25.8230   29.5740 O.2   223  ASN223     -0.2716
    180  ND2       14.0540  -24.3840   28.4240 N.am  223  ASN223     -0.0877
    181  N         13.3680  -31.0060   32.8330 N.3   226  LEU226     -0.1231
    182  CA        13.4650  -30.2070   34.0470 C.3   226  LEU226      0.1693
    183  C         12.0670  -29.9070   34.6040 C.2   226  LEU226      0.2592
    184  O         11.8450  -29.9580   35.8170 O.2   226  LEU226     -0.2718
    185  CB        14.2420  -28.9170   33.7670 C.3   226  LEU226      0.0284
    186  CG        14.4990  -27.9590   34.9340 C.3   226  LEU226      0.0019
    187  CD1       15.3580  -28.5950   36.0260 C.3   226  LEU226      0.0001
    188  CD2       15.1420  -26.6800   34.4210 C.3   226  LEU226      0.0001
    189  N         11.1280  -29.6100   33.7090 N.am  227  TRP227     -0.1976
    190  CA         9.7370  -29.4100   34.0830 C.3   227  TRP227      0.1640
    191  C          8.9660  -30.7230   33.9710 C.2   227  TRP227      0.2290
    192  O          7.8300  -30.8330   34.4370 O.2   227  TRP227     -0.2864
    193  CB         9.0880  -28.3600   33.1850 C.3   227  TRP227      0.0576
    194  CG         9.9610  -27.1850   32.9010 C.ar  227  TRP227      0.0006
    195  CD1       10.9320  -26.6700   33.7090 C.ar  227  TRP227      0.0946
    196  CD2        9.9280  -26.3530   31.7330 C.ar  227  TRP227      0.0152
    197  NE1       11.5170  -25.5760   33.1100 N.ar  227  TRP227     -0.2442
    198  CE2       10.9170  -25.3610   31.8980 C.ar  227  TRP227      0.0810
    199  CE3        9.1640  -26.3570   30.5590 C.ar  227  TRP227      0.0012
    200  CZ2       11.1620  -24.3800   30.9330 C.ar  227  TRP227      0.0191
    201  CZ3        9.4110  -25.3820   29.6010 C.ar  227  TRP227      0.0001
    202  CH2       10.3970  -24.4060   29.7960 C.ar  227  TRP227      0.0015
@<TRIPOS>BOND
     1   139   138   ar
     2   138   137    1
     3   138   140   ar
     4     1     2    1
     5     5     2    1
     6     5     6    1
     7   137   134    1
     8   133   134    1
     9    46    47    1
    10    46    43    1
    11    42    43    1
    12     2     3    1
    13     7     6    2
    14     6     8   am
    15   134   135    1
    16    47    49   ar
    17    47    48   ar
    18    49    51   ar
    19    43    44    1
    20   135   136    2
    21    48    50   ar
    22    51    52   ar
    23     3     4    2
    24    44    45    2
    25    50    52   ar
    26   141   142    1
    27   156   154    1
    28    13    14    1
    29    13    10    1
    30    85    86    1
    31     9    10    1
    32    21    19    1
    33   145   142    1
    34   145   146    1
    35    53    54    1
    36   142   143    1
    37   154   153    1
    38    57    54    1
    39    57    58    1
    40    10    11    1
    41   153   155    1
    42   153   150    1
    43    59    58    1
    44    59    60    1
    45    86    87    1
    46   149   143   am
    47   149   150    1
    48    19    20    1
    49    19    16    1
    50    15    11   am
    51    15    16    1
    52   143   144    2
    53   146   147    1
    54   146   148    1
    55    54    55    1
    56    87    88    2
    57   150   151    1
    58    11    12    2
    59    60    61    1
    60   151   152    2
    61    16    17    1
    62    55    56    2
    63    17    18    2
    64    89    90    1
    65    93    90    1
    66    93    94    1
    67   163   162    1
    68   157   158    1
    69    90    91    1
    70    96    94    1
    71    97    91   am
    72    97    98    1
    73   162   161    1
    74   162   164    1
    75   101   102    1
    76   101    98    1
    77    26    27    1
    78    26    23    1
    79   104   102   am
    80   161   158    1
    81   102   103    2
    82    22    23    1
    83    94    95    1
    84    91    92    2
    85   158   159    1
    86    98    99    1
    87    27    28    1
    88   159   160    2
    89    23    24    1
    90    99   100    2
    91    28    29    1
    92    24    25    2
    93   172   170   ar
    94    30    29    1
    95   165   166    1
    96    84    83    1
    97   170   171   ar
    98   170   169    1
    99    72    70    1
   100    82    83   ar
   101    82    80   ar
   102    83    81   ar
   103   169   166    1
   104   105   106    1
   105   166   167    1
   106   111   109    1
   107   180   178   am
   108    70    69    2
   109    70    71    1
   110    69    68    1
   111    80    78   ar
   112   173   167   am
   113   173   174    1
   114   177   178    1
   115   177   174    1
   116   178   179    2
   117   109   106    1
   118   109   110    1
   119    81    79   ar
   120   167   168    2
   121   106   107    1
   122    62    63    1
   123   201   202   ar
   124   201   199   ar
   125   174   175    1
   126    66    63    1
   127    66    67    1
   128   202   200   ar
   129    68    67    1
   130    78    79   ar
   131    78    77    1
   132   175   176    2
   133   107   108    2
   134    40    39    1
   135    63    64    1
   136   199   196   ar
   137    73    64   am
   138    73    74    1
   139   200   198   ar
   140    77    74    1
   141    39    41    1
   142    39    38    2
   143    64    65    2
   144   196   198   ar
   145   196   194   ar
   146    74    75    1
   147    37    38    1
   148    37    36    1
   149   198   197   ar
   150   112   113    1
   151   116   113    1
   152   116   117    1
   153    75    76    2
   154   181   182    1
   155   194   193    1
   156   194   195   ar
   157   113   114    1
   158   197   195   ar
   159    36    35    1
   160   193   190    1
   161   189   190    1
   162   189   183   am
   163   117   119   ar
   164   117   118   ar
   165   185   182    1
   166   185   186    1
   167   119   121   ar
   168    35    32    1
   169   124   114   am
   170   124   125    1
   171   191   190    1
   172   191   192    2
   173   182   183    1
   174   114   115    2
   175   129   128    1
   176   129   130    1
   177   131   130   ar
   178   188   186    1
   179   128   125    1
   180   183   184    2
   181    31    32    1
   182   118   120   ar
   183   121   122   ar
   184   130   132   ar
   185   186   187    1
   186   125   126    1
   187    32    33    1
   188   126   127    2
   189   120   122   ar
   190   122   123    1
   191    33    34    2
