@<TRIPOS>MOLECULE
tmp/2wh0C00.pdb
 174 164 0 0 0
SMALL
GASTEIGER

@<TRIPOS>ATOM
      1  N         63.6870   21.0460   29.7750 N.3    46  LYS46      -0.1245
      2  CA        63.3220   22.2890   29.1050 C.3    46  LYS46       0.1561
      3  C         64.3240   22.5870   28.0050 C.2    46  LYS46       0.2260
      4  O         63.9550   22.9820   26.8960 O.2    46  LYS46      -0.2867
      5  CB        63.2690   23.4510   30.0990 C.3    46  LYS46       0.0271
      6  CG        63.2040   24.8460   29.4510 C.3    46  LYS46       0.0035
      7  CD        62.9250   26.0380   30.4260 C.3    46  LYS46       0.0206
      8  CE        64.0900   26.3790   31.4280 C.3    46  LYS46       0.1093
      9  NZ        65.4890   26.7120   30.9010 N.3    46  LYS46      -0.1314
     10  N         62.6650   21.6840   19.6870 N.3    53  ARG53      -0.1245
     11  CA        61.6330   22.6510   19.3030 C.3    53  ARG53       0.1563
     12  C         62.2090   23.7460   18.4140 C.2    53  ARG53       0.2260
     13  O         61.5960   24.1410   17.4230 O.2    53  ARG53      -0.2867
     14  CB        61.0080   23.3020   20.5350 C.3    53  ARG53       0.0307
     15  CG        60.1370   22.3820   21.3810 C.3    53  ARG53       0.0489
     16  CD        59.8300   23.0420   22.7180 C.3    53  ARG53       0.2205
     17  NE        58.8440   24.1040   22.5680 N.pl3  53  ARG53      -0.0865
     18  CZ        58.7930   25.2040   23.3110 C.cat  53  ARG53       0.5346
     19  NH1       59.7000   25.4200   24.2500 N.pl3  53  ARG53       0.1354
     20  NH2       57.8390   26.1000   23.0950 N.pl3  53  ARG53       0.1354
     21  N         61.6390   24.4970   14.4750 N.3    57  ARG57      -0.1245
     22  CA        61.0900   25.7590   13.9930 C.3    57  ARG57       0.1563
     23  C         61.8310   26.2230   12.7480 C.2    57  ARG57       0.2260
     24  O         61.2330   26.8000   11.8370 O.2    57  ARG57      -0.2867
     25  CB        61.1370   26.8300   15.0920 C.3    57  ARG57       0.0307
     26  CG        60.0110   26.6980   16.1100 C.3    57  ARG57       0.0489
     27  CD        59.8640   27.9520   16.9500 C.3    57  ARG57       0.2205
     28  NE        61.0160   28.1620   17.8270 N.pl3  57  ARG57      -0.0865
     29  CZ        61.0290   27.8800   19.1250 C.cat  57  ARG57       0.5346
     30  NH1       59.9480   27.3740   19.7010 N.pl3  57  ARG57       0.1354
     31  NH2       62.1230   28.0980   19.8460 N.pl3  57  ARG57       0.1354
     32  N         50.6320   22.3400   34.8310 N.3   117  LYS117     -0.1245
     33  CA        51.0420   23.2980   33.8110 C.3   117  LYS117      0.1561
     34  C         52.1140   22.6650   32.9400 C.2   117  LYS117      0.2260
     35  O         52.1400   22.8530   31.7280 O.2   117  LYS117     -0.2867
     36  CB        51.5800   24.5820   34.4450 C.3   117  LYS117      0.0271
     37  CG        52.4160   25.4490   33.4980 C.3   117  LYS117      0.0035
     38  CD        53.2490   26.4590   34.2720 C.3   117  LYS117      0.0206
     39  CE        54.3960   27.0060   33.4420 C.3   117  LYS117      0.1093
     40  NZ        55.4130   25.9580   33.1080 N.3   117  LYS117     -0.1314
     41  N         51.2530   20.8030   24.7870 N.3   124  ARG124     -0.1231
     42  CA        51.3130   21.9280   23.8650 C.3   124  ARG124      0.1694
     43  C         52.4740   21.7480   22.8850 C.2   124  ARG124      0.2592
     44  O         52.3430   22.0580   21.7010 O.2   124  ARG124     -0.2718
     45  CB        51.4410   23.2530   24.6240 C.3   124  ARG124      0.0321
     46  CG        51.6860   24.4660   23.7250 C.3   124  ARG124      0.0489
     47  CD        51.3450   25.7840   24.4290 C.3   124  ARG124      0.2205
     48  NE        52.0380   25.9250   25.7060 N.pl3 124  ARG124     -0.0865
     49  CZ        53.2810   26.3800   25.8440 C.cat 124  ARG124      0.5346
     50  NH1       53.9720   26.7480   24.7760 N.pl3 124  ARG124      0.1354
     51  NH2       53.8280   26.4780   27.0540 N.pl3 124  ARG124      0.1354
     52  N         53.6020   21.2380   23.3810 N.am  125  TYR125     -0.1976
     53  CA        54.7560   20.9570   22.5270 C.3   125  TYR125      0.1639
     54  C         54.4430   19.8340   21.5460 C.2   125  TYR125      0.2290
     55  O         55.0150   19.7670   20.4490 O.2   125  TYR125     -0.2864
     56  CB        56.0010   20.5920   23.3460 C.3   125  TYR125      0.0560
     57  CG        56.4070   21.6160   24.3830 C.ar  125  TYR125     -0.0198
     58  CD1       55.9120   22.9150   24.3410 C.ar  125  TYR125     -0.0009
     59  CD2       57.3030   21.2850   25.3940 C.ar  125  TYR125     -0.0009
     60  CE1       56.2800   23.8470   25.2840 C.ar  125  TYR125      0.0417
     61  CE2       57.6840   22.2100   26.3370 C.ar  125  TYR125      0.0417
     62  CZ        57.1700   23.4900   26.2800 C.ar  125  TYR125      0.1957
     63  OH        57.5430   24.4220   27.2250 O.3   125  TYR125     -0.2866
     64  N         52.2530   21.4860   18.8290 N.3   128  GLU128     -0.1245
     65  CA        53.0920   22.2660   17.9180 C.3   128  GLU128      0.1567
     66  C         53.5250   21.4680   16.6860 C.2   128  GLU128      0.2260
     67  O         53.8800   22.0450   15.6520 O.2   128  GLU128     -0.2867
     68  CB        54.3440   22.7570   18.6420 C.3   128  GLU128      0.0388
     69  CG        54.1390   23.9860   19.4960 C.3   128  GLU128      0.1160
     70  CD        55.3590   24.3090   20.3190 C.2   128  GLU128      0.3649
     71  OE1       56.3290   23.5210   20.2670 O.co2 128  GLU128     -0.2457
     72  OE2       55.3440   25.3380   21.0230 O.co2 128  GLU128     -0.2457
     73  N         53.0750   32.1740   35.4860 N.3   166  GLY166     -0.1225
     74  CA        53.6260   31.4720   34.3420 C.3   166  GLY166      0.1811
     75  C         52.5780   30.6050   33.6770 C.2   166  GLY166      0.2280
     76  O         52.5410   30.4900   32.4530 O.2   166  GLY166     -0.2866
     77  N         50.5190   32.7930   31.7350 N.3   169  LEU169     -0.1231
     78  CA        51.3440   33.1420   30.5820 C.3   169  LEU169      0.1693
     79  C         51.3320   32.0280   29.5330 C.2   169  LEU169      0.2592
     80  O         51.0740   32.2710   28.3520 O.2   169  LEU169     -0.2718
     81  CB        52.7760   33.4270   31.0410 C.3   169  LEU169      0.0284
     82  CG        53.9070   33.6150   30.0250 C.3   169  LEU169      0.0019
     83  CD1       53.4950   34.5230   28.8880 C.3   169  LEU169      0.0001
     84  CD2       55.1160   34.1760   30.7480 C.3   169  LEU169      0.0001
     85  N         51.6100   30.8060   29.9830 N.am  170  ASN170     -0.1974
     86  CA        51.6200   29.6370   29.1120 C.3   170  ASN170      0.1688
     87  C         50.2440   29.2660   28.6050 C.2   170  ASN170      0.2292
     88  O         50.0980   28.7820   27.4820 O.2   170  ASN170     -0.2864
     89  CB        52.2380   28.4370   29.8300 C.3   170  ASN170      0.1181
     90  CG        53.7330   28.4580   29.7800 C.2   170  ASN170      0.2629
     91  OD1       54.3240   29.5040   29.5520 O.2   170  ASN170     -0.2716
     92  ND2       54.3600   27.3100   29.9920 N.am  170  ASN170     -0.0877
     93  N         49.3470   31.6360   25.7940 N.3   173  VAL173     -0.1245
     94  CA        50.1020   31.1870   24.6240 C.3   173  VAL173      0.1561
     95  C         49.4310   29.9870   23.9450 C.2   173  VAL173      0.2260
     96  O         49.3920   29.8970   22.7200 O.2   173  VAL173     -0.2867
     97  CB        51.5650   30.8280   24.9990 C.3   173  VAL173      0.0252
     98  CG1       52.2910   30.2300   23.8090 C.3   173  VAL173      0.0019
     99  CG2       52.3060   32.0510   25.5200 C.3   173  VAL173      0.0019
    100  N         46.3970   31.3310   22.0230 N.3   176  TYR176     -0.1227
    101  CA        46.8190   32.1090   20.8610 C.3   176  TYR176      0.1736
    102  C         47.4590   31.2680   19.7570 C.2   176  TYR176      0.2595
    103  O         47.0870   31.3770   18.5850 O.2   176  TYR176     -0.2718
    104  CB        47.7880   33.2230   21.2680 C.3   176  TYR176      0.0548
    105  CG        48.0480   34.1960   20.1400 C.ar  176  TYR176     -0.0200
    106  CD1       49.0650   33.9710   19.2160 C.ar  176  TYR176     -0.0009
    107  CD2       47.2610   35.3290   19.9840 C.ar  176  TYR176     -0.0009
    108  CE1       49.2910   34.8580   18.1720 C.ar  176  TYR176      0.0417
    109  CE2       47.4800   36.2190   18.9500 C.ar  176  TYR176      0.0417
    110  CZ        48.4930   35.9810   18.0440 C.ar  176  TYR176      0.1957
    111  OH        48.7040   36.8750   17.0150 O.3   176  TYR176     -0.2866
    112  N         48.4270   30.4400   20.1350 N.am  177  GLU177     -0.1979
    113  CA        49.2430   29.7340   19.1590 C.3   177  GLU177      0.1602
    114  C         48.6960   28.3570   18.7860 C.2   177  GLU177      0.2287
    115  O         48.8270   27.9190   17.6470 O.2   177  GLU177     -0.2864
    116  CB        50.6880   29.6190   19.6590 C.3   177  GLU177      0.0415
    117  CG        51.3930   30.9540   19.7920 C.3   177  GLU177      0.1163
    118  CD        52.8790   30.7850   19.8970 C.2   177  GLU177      0.3649
    119  OE1       53.3930   29.8990   20.6130 O.co2 177  GLU177     -0.2457
    120  OE2       53.5940   31.5760   19.2440 O.co2 177  GLU177     -0.2457
    121  N         57.8820   37.8050   34.6460 N.3   214  ILE214     -0.1245
    122  CA        56.7470   37.1410   34.0120 C.3   214  ILE214      0.1561
    123  C         55.6940   38.1660   33.5950 C.2   214  ILE214      0.2260
    124  O         55.0760   38.0320   32.5410 O.2   214  ILE214     -0.2867
    125  CB        56.1280   36.0580   34.9260 C.3   214  ILE214      0.0252
    126  CG1       57.0980   34.8820   35.0510 C.3   214  ILE214      0.0019
    127  CG2       54.7910   35.5820   34.3700 C.3   214  ILE214      0.0019
    128  CD1       56.5020   33.6440   35.6460 C.3   214  ILE214      0.0001
    129  N         56.7950   39.6090   30.3830 N.3   217  LEU217     -0.1245
    130  CA        56.4180   38.6640   29.3360 C.3   217  LEU217      0.1561
    131  C         54.9430   38.7510   28.9610 C.2   217  LEU217      0.2260
    132  O         54.5830   38.5930   27.7950 O.2   217  LEU217     -0.2867
    133  CB        56.7450   37.2320   29.7740 C.3   217  LEU217      0.0270
    134  CG        58.2200   36.8370   29.8540 C.3   217  LEU217      0.0019
    135  CD1       58.3490   35.3450   30.0940 C.3   217  LEU217      0.0001
    136  CD2       58.9300   37.2360   28.5700 C.3   217  LEU217      0.0001
    137  N         54.6310   41.9180   26.9810 N.3   220  ASP220     -0.1225
    138  CA        55.2870   41.7470   25.6920 C.3   220  ASP220      0.1805
    139  C         54.3790   40.9360   24.7730 C.2   220  ASP220      0.2597
    140  O         54.3050   41.1910   23.5690 O.2   220  ASP220     -0.2718
    141  CB        56.6470   41.0650   25.8500 C.3   220  ASP220      0.1424
    142  CG        57.6910   41.9840   26.4650 C.2   220  ASP220      0.3668
    143  OD1       57.4640   43.2140   26.4780 O.co2 220  ASP220     -0.2456
    144  OD2       58.7350   41.4770   26.9310 O.co2 220  ASP220     -0.2456
    145  N         53.6760   39.9620   25.3420 N.am  221  ASN221     -0.1974
    146  CA        52.7190   39.1830   24.5620 C.3   221  ASN221      0.1688
    147  C         51.5190   40.0090   24.0710 C.2   221  ASN221      0.2292
    148  O         51.3990   40.2760   22.8750 O.2   221  ASN221     -0.2864
    149  CB        52.2680   37.9330   25.3230 C.3   221  ASN221      0.1181
    150  CG        53.2750   36.7980   25.2270 C.2   221  ASN221      0.2629
    151  OD1       54.2140   36.8510   24.4330 O.2   221  ASN221     -0.2716
    152  ND2       53.0860   35.7650   26.0410 N.am  221  ASN221     -0.0877
    153  N         52.1170   42.5170   21.5030 N.3   224  LEU224     -0.1231
    154  CA        52.3370   41.8300   20.2360 C.3   224  LEU224      0.1693
    155  C         51.0130   41.4010   19.6110 C.2   224  LEU224      0.2592
    156  O         50.7120   41.7440   18.4680 O.2   224  LEU224     -0.2718
    157  CB        53.2290   40.6070   20.4650 C.3   224  LEU224      0.0284
    158  CG        53.2680   39.5280   19.3820 C.3   224  LEU224      0.0019
    159  CD1       53.8820   40.0680   18.1020 C.3   224  LEU224      0.0001
    160  CD2       54.0380   38.3140   19.8780 C.3   224  LEU224      0.0001
    161  N         50.2190   40.6570   20.3730 N.am  225  TRP225     -0.1976
    162  CA        48.9260   40.1780   19.8960 C.3   225  TRP225      0.1640
    163  C         47.9350   41.3090   19.5850 C.2   225  TRP225      0.2290
    164  O         46.8350   41.0520   19.0850 O.2   225  TRP225     -0.2864
    165  CB        48.3160   39.1820   20.8900 C.3   225  TRP225      0.0576
    166  CG        49.2310   38.0390   21.2290 C.ar  225  TRP225      0.0006
    167  CD1       50.2860   37.5870   20.4900 C.ar  225  TRP225      0.0946
    168  CD2       49.1560   37.1860   22.3820 C.ar  225  TRP225      0.0152
    169  NE1       50.8830   36.5180   21.1180 N.ar  225  TRP225     -0.2442
    170  CE2       50.2050   36.2500   22.2790 C.ar  225  TRP225      0.0810
    171  CE3       48.3060   37.1250   23.4930 C.ar  225  TRP225      0.0012
    172  CZ2       50.4250   35.2650   23.2440 C.ar  225  TRP225      0.0191
    173  CZ3       48.5300   36.1480   24.4520 C.ar  225  TRP225      0.0001
    174  CH2       49.5770   35.2320   24.3180 C.ar  225  TRP225      0.0015
@<TRIPOS>BOND
     1    24    23    2
     2    23    22    1
     3    22    21    1
     4    22    25    1
     5    25    26    1
     6    67    66    2
     7    26    27    1
     8    66    65    1
     9    27    28    1
    10   111   110    1
    11    13    12    2
    12   115   114    2
    13    28    29    2
    14    65    68    1
    15    65    64    1
    16   110   108   ar
    17   110   109   ar
    18   159   158    1
    19   108   106   ar
    20    12    11    1
    21   156   155    2
    22   103   102    2
    23    68    69    1
    24   114   113    1
    25   109   107   ar
    26   164   163    2
    27    29    30    1
    28    29    31    1
    29   113   116    1
    30   113   112    1
    31   106   105   ar
    32   120   118   ar
    33    11    10    1
    34    11    14    1
    35   158   160    1
    36   158   157    1
    37    69    70    1
    38   163   162    1
    39   155   154    1
    40   155   161   am
    41   116   117    1
    42   102   112   am
    43   102   101    1
    44   117   118    1
    45   162   161    1
    46   162   165    1
    47   118   119   ar
    48   107   105   ar
    49   105   104    1
    50   154   157    1
    51   154   153    1
    52    71    70   ar
    53    70    72   ar
    54    55    54    2
    55   167   169   ar
    56   167   166   ar
    57    14    15    1
    58   101   104    1
    59   101   100    1
    60   165   166    1
    61   169   170   ar
    62   166   168   ar
    63    15    16    1
    64    54    53    1
    65    44    43    2
    66   170   168   ar
    67   170   172   ar
    68   168   171   ar
    69    53    56    1
    70    53    52    1
    71    17    16    1
    72    17    18    2
    73    96    95    2
    74   148   147    2
    75    43    52   am
    76    43    42    1
    77    20    18    1
    78   172   174   ar
    79    18    19    1
    80    56    57    1
    81   171   173   ar
    82   140   139    2
    83    46    47    1
    84    46    45    1
    85    98    97    1
    86    42    45    1
    87    42    41    1
    88    95    94    1
    89   147   146    1
    90   174   173   ar
    91    58    57   ar
    92    58    60   ar
    93    57    59   ar
    94    47    48    1
    95   151   150    2
    96   146   149    1
    97   146   145    1
    98    94    97    1
    99    94    93    1
   100   139   145   am
   101   139   138    1
   102    50    49    1
   103    97    99    1
   104   150   149    1
   105   150   152   am
   106    60    62   ar
   107    59    61   ar
   108   138   141    1
   109   138   137    1
   110    48    49    2
   111    49    51    1
   112   141   142    1
   113    62    61   ar
   114    62    63    1
   115   142   143   ar
   116   142   144   ar
   117     4     3    2
   118    88    87    2
   119   132   131    2
   120     3     2    1
   121    80    79    2
   122   136   134    1
   123    87    86    1
   124    83    82    1
   125   131   130    1
   126     2     1    1
   127     2     5    1
   128    86    89    1
   129    86    85    1
   130   130   133    1
   131   130   129    1
   132     6     5    1
   133     6     7    1
   134    79    85   am
   135    79    78    1
   136    91    90    2
   137   133   134    1
   138    90    89    1
   139    90    92   am
   140   134   135    1
   141    82    84    1
   142    82    81    1
   143     7     8    1
   144    78    81    1
   145    78    77    1
   146     9     8    1
   147    35    34    2
   148    76    75    2
   149   124   123    2
   150    34    33    1
   151    40    39    1
   152    39    38    1
   153    37    38    1
   154    37    36    1
   155   123   122    1
   156    75    74    1
   157    33    36    1
   158    33    32    1
   159   122   121    1
   160   122   125    1
   161    74    73    1
   162   127   125    1
   163   125   126    1
   164   126   128    1
