@<TRIPOS>MOLECULE
tmp/2wh5C01.pdb
 225 222 0 0 0
SMALL
GASTEIGER

@<TRIPOS>ATOM
      1  N         36.1090   85.0960  102.0090 N.3     8  VAL8       -0.1245
      2  CA        36.9050   84.8840  100.8190 C.3     8  VAL8        0.1561
      3  C         38.2840   85.5210  100.9880 C.2     8  VAL8        0.2260
      4  O         39.3060   84.8860  100.7150 O.2     8  VAL8       -0.2867
      5  CB        36.1720   85.3760   99.5640 C.3     8  VAL8        0.0252
      6  CG1       37.1440   85.5200   98.3990 C.3     8  VAL8        0.0019
      7  CG2       35.0030   84.3930   99.2310 C.3     8  VAL8        0.0019
      8  N         39.8390   86.2780  103.8110 N.3    10  VAL10      -0.1231
      9  CA        40.6200   85.5450  104.7940 C.3    10  VAL10       0.1692
     10  C         41.3190   84.3590  104.1160 C.2    10  VAL10       0.2592
     11  O         42.5340   84.1740  104.2680 O.2    10  VAL10      -0.2718
     12  CB        39.7700   85.1200  106.0270 C.3    10  VAL10       0.0266
     13  CG1       40.3950   83.9210  106.7570 C.3    10  VAL10       0.0020
     14  CG2       39.6130   86.3090  106.9730 C.3    10  VAL10       0.0020
     15  N         40.5680   83.5780  103.3400 N.am   11  ILE11      -0.1966
     16  CA        41.1670   82.4530  102.6130 C.3    11  ILE11       0.1727
     17  C         42.2580   82.9110  101.6400 C.2    11  ILE11       0.2616
     18  O         43.3430   82.3110  101.6020 O.2    11  ILE11      -0.2715
     19  CB        40.1110   81.5870  101.9040 C.3    11  ILE11       0.0290
     20  CG1       39.2030   80.9320  102.9390 C.3    11  ILE11       0.0022
     21  CG2       40.7570   80.5020  101.0650 C.3    11  ILE11       0.0023
     22  CD1       39.8830   79.8860  103.7440 C.3    11  ILE11       0.0001
     23  N         41.9860   83.9740  100.8770 N.am   12  GLN12      -0.1977
     24  CA        42.9720   84.5130   99.9330 C.3    12  GLN12       0.1601
     25  C         44.2900   84.9350  100.6070 C.2    12  GLN12       0.2287
     26  O         45.3780   84.7730  100.0310 O.2    12  GLN12      -0.2864
     27  CB        42.3770   85.6550   99.0960 C.3    12  GLN12       0.0394
     28  CG        42.0520   85.2420   97.6500 C.3    12  GLN12       0.0908
     29  CD        40.6670   85.7050   97.1600 C.2    12  GLN12       0.2608
     30  OE1       39.8300   84.8800   96.7880 O.2    12  GLN12      -0.2717
     31  NE2       40.4270   87.0240   97.1590 N.am   12  GLN12      -0.0878
     32  N         45.4760   83.8580  103.6870 N.3    14  LEU14      -0.1231
     33  CA        46.1020   82.7990  104.4570 C.3    14  LEU14       0.1678
     34  C         47.4870   82.4720  103.8620 C.2    14  LEU14       0.2434
     35  O         47.6490   82.4700  102.6460 O.2    14  LEU14      -0.2733
     36  CB        45.1960   81.5750  104.3540 C.3    14  LEU14       0.0284
     37  CG        44.7560   80.7800  105.5730 C.3    14  LEU14       0.0019
     38  CD1       44.3230   81.6750  106.7400 C.3    14  LEU14       0.0001
     39  CD2       43.6440   79.8590  105.1330 C.3    14  LEU14       0.0001
     40  N         48.4890   82.1950  104.7140 N.am   15  PRO15      -0.2718
     41  CA        49.8070   81.7370  104.2490 C.3    15  PRO15       0.1535
     42  C         49.7180   80.5790  103.2540 C.2    15  PRO15       0.2598
     43  O         48.9280   79.6510  103.4700 O.2    15  PRO15      -0.2715
     44  CB        50.4620   81.2080  105.5280 C.3    15  PRO15       0.0310
     45  CG        49.8230   81.9640  106.6270 C.3    15  PRO15       0.0237
     46  CD        48.4170   82.2750  106.1830 C.3    15  PRO15       0.0939
     47  N         50.5430   80.6260  102.2060 N.am   16  LYS16      -0.1964
     48  CA        50.6410   79.5440  101.2190 C.3    16  LYS16       0.1728
     49  C         50.9660   78.1790  101.8510 C.2    16  LYS16       0.2616
     50  O         50.2850   77.1910  101.5760 O.2    16  LYS16      -0.2715
     51  CB        51.6760   79.8990  100.1500 C.3    16  LYS16       0.0311
     52  CG        51.8970   78.8280   99.1140 C.3    16  LYS16       0.0038
     53  CD        50.6470   78.5550   98.2630 C.3    16  LYS16       0.0206
     54  CE        50.8990   77.4360   97.2520 C.3    16  LYS16       0.1093
     55  NZ        52.0590   76.5630   97.6550 N.3    16  LYS16      -0.1314
     56  N         52.0060   78.1280  102.6860 N.am   17  ASN17      -0.1958
     57  CA        52.3240   76.9250  103.4620 C.3    17  ASN17       0.1823
     58  C         52.2890   77.1860  104.9660 C.2    17  ASN17       0.2661
     59  O         52.3120   78.3380  105.3950 O.2    17  ASN17      -0.2711
     60  CB        53.6890   76.3540  103.0630 C.3    17  ASN17       0.1195
     61  CG        53.5900   75.3360  101.9340 C.2    17  ASN17       0.2630
     62  OD1       52.5100   75.1020  101.3900 O.2    17  ASN17      -0.2716
     63  ND2       54.7180   74.7200  101.5850 N.am   17  ASN17      -0.0877
     64  N         52.2280   76.1260  105.7700 N.am   18  GLY18      -0.1716
     65  CA        52.2130   76.2910  107.2160 C.2    18  GLY18       0.1480
     66  C         51.8840   75.0680  108.0620 C.2    18  GLY18       0.2821
     67  O         51.8230   73.9300  107.5670 O.2    18  GLY18      -0.2669
     68  N         51.6750   75.3210  109.3540 N.am   19  SER19      -0.1901
     69  CA        51.3150   74.2960  110.3390 C.3    19  SER19       0.2058
     70  C         50.1470   73.4030  109.9130 C.2    19  SER19       0.2643
     71  O         50.0770   72.2220  110.2790 O.2    19  SER19      -0.2714
     72  CB        50.9750   74.9600  111.6770 C.3    19  SER19       0.2130
     73  OG        49.7710   74.4390  112.2260 O.3    19  SER19      -0.2179
     74  N         49.2210   73.9820  109.1630 N.am   20  TYR20      -0.1959
     75  CA        48.0470   73.2480  108.7280 C.3    20  TYR20       0.1771
     76  C         48.1670   72.7980  107.2710 C.2    20  TYR20       0.2619
     77  O         48.6510   73.5260  106.3840 O.2    20  TYR20      -0.2715
     78  CB        46.7660   74.0580  108.9590 C.3    20  TYR20       0.0574
     79  CG        45.5040   73.2330  108.8400 C.ar   20  TYR20      -0.0198
     80  CD1       45.2200   72.2250  109.7570 C.ar   20  TYR20      -0.0009
     81  CD2       44.5950   73.4570  107.8060 C.ar   20  TYR20      -0.0009
     82  CE1       44.0610   71.4610  109.6450 C.ar   20  TYR20       0.0417
     83  CE2       43.4360   72.6960  107.6870 C.ar   20  TYR20       0.0417
     84  CZ        43.1750   71.7020  108.6070 C.ar   20  TYR20       0.1957
     85  OH        42.0290   70.9540  108.4970 O.3    20  TYR20      -0.2866
     86  N         47.7380   71.5680  107.0480 N.am   21  ARG21      -0.1964
     87  CA        47.7410   70.9860  105.7280 C.3    21  ARG21       0.1714
     88  C         46.2820   70.5820  105.4420 C.2    21  ARG21       0.2458
     89  O         45.8270   69.5430  105.9260 O.2    21  ARG21      -0.2730
     90  CB        48.7050   69.7800  105.7270 C.3    21  ARG21       0.0347
     91  CG        50.0770   70.0330  106.3270 C.3    21  ARG21       0.0492
     92  CD        51.1020   70.3660  105.2670 C.3    21  ARG21       0.2205
     93  NE        50.8990   71.6000  104.5540 N.pl3  21  ARG21      -0.0865
     94  CZ        51.1480   71.8530  103.2770 C.cat  21  ARG21       0.5346
     95  NH1       51.6220   70.9300  102.4540 N.pl3  21  ARG21       0.1354
     96  NH2       50.9000   73.0700  102.8090 N.pl3  21  ARG21       0.1354
     97  N         45.5250   71.4250  104.7060 N.am   22  PRO22      -0.2727
     98  CA        44.0900   71.1700  104.4550 C.3    22  PRO22       0.1402
     99  C         43.8650   69.8310  103.7740 C.2    22  PRO22       0.2269
    100  O         44.7420   69.3460  103.0470 O.2    22  PRO22      -0.2865
    101  CB        43.6850   72.2920  103.5030 C.3    22  PRO22       0.0296
    102  CG        44.6630   73.3570  103.7470 C.3    22  PRO22       0.0237
    103  CD        45.9650   72.6870  104.0960 C.3    22  PRO22       0.0939
    104  N         39.7850   71.4590  100.5030 N.3    27  MET27      -0.1245
    105  CA        40.1220   72.2460   99.3240 C.3    27  MET27       0.1570
    106  C         38.9820   72.2250   98.2970 C.2    27  MET27       0.2261
    107  O         38.6070   73.2790   97.7710 O.2    27  MET27      -0.2867
    108  CB        41.4290   71.7500   98.6960 C.3    27  MET27       0.0387
    109  CG        42.6810   72.1270   99.5170 C.3    27  MET27       0.0595
    110  SD        44.2410   71.4750   98.8630 S.3    27  MET27      -0.1393
    111  CE        44.0630   69.7360   99.2730 C.3    27  MET27       0.0692
    112  N         35.7610   74.3670   99.5490 N.3    30  PHE30      -0.1227
    113  CA        35.8890   75.8050   99.3840 C.3    30  PHE30       0.1736
    114  C         35.8710   76.1200   97.8980 C.2    30  PHE30       0.2595
    115  O         35.2700   77.0940   97.4420 O.2    30  PHE30      -0.2718
    116  CB        37.1810   76.3170  100.0220 C.3    30  PHE30       0.0547
    117  CG        37.1240   76.4060  101.5300 C.ar   30  PHE30      -0.0202
    118  CD1       36.3230   77.3620  102.1530 C.ar   30  PHE30      -0.0042
    119  CD2       37.8750   75.5420  102.3160 C.ar   30  PHE30      -0.0042
    120  CE1       36.2630   77.4390  103.5320 C.ar   30  PHE30      -0.0003
    121  CE2       37.8290   75.6100  103.7050 C.ar   30  PHE30      -0.0003
    122  CZ        37.0190   76.5570  104.3160 C.ar   30  PHE30      -0.0000
    123  N         36.5430   75.2890   97.1230 N.am   31  TYR31      -0.1976
    124  CA        36.6420   75.5930   95.7190 C.3    31  TYR31       0.1639
    125  C         35.2690   75.5500   95.0540 C.2    31  TYR31       0.2290
    126  O         34.8940   76.4860   94.3320 O.2    31  TYR31      -0.2864
    127  CB        37.6110   74.6600   95.0090 C.3    31  TYR31       0.0560
    128  CG        37.5440   74.8430   93.5130 C.ar   31  TYR31      -0.0198
    129  CD1       38.1580   75.9340   92.9080 C.ar   31  TYR31      -0.0009
    130  CD2       36.8510   73.9350   92.7070 C.ar   31  TYR31      -0.0009
    131  CE1       38.0870   76.1330   91.5510 C.ar   31  TYR31       0.0417
    132  CE2       36.7850   74.1200   91.3420 C.ar   31  TYR31       0.0417
    133  CZ        37.3970   75.2290   90.7770 C.ar   31  TYR31       0.1957
    134  OH        37.3510   75.4310   89.4350 O.3    31  TYR31      -0.2866
    135  N         32.8540   78.2600   96.1430 N.3    34  TYR34      -0.1227
    136  CA        33.3410   79.5200   95.6050 C.3    34  TYR34       0.1736
    137  C         32.9180   79.7150   94.1260 C.2    34  TYR34       0.2595
    138  O         32.4520   80.8060   93.7280 O.2    34  TYR34      -0.2718
    139  CB        34.8670   79.6360   95.7920 C.3    34  TYR34       0.0548
    140  CG        35.4130   80.8990   95.1830 C.ar   34  TYR34      -0.0200
    141  CD1       35.3240   82.1050   95.8490 C.ar   34  TYR34      -0.0009
    142  CD2       35.9540   80.8980   93.9100 C.ar   34  TYR34      -0.0009
    143  CE1       35.7820   83.2690   95.2680 C.ar   34  TYR34       0.0417
    144  CE2       36.4170   82.0530   93.3250 C.ar   34  TYR34       0.0417
    145  CZ        36.3260   83.2320   94.0070 C.ar   34  TYR34       0.1957
    146  OH        36.7930   84.3810   93.4250 O.3    34  TYR34      -0.2866
    147  N         33.0660   78.6570   93.3220 N.am   35  LYS35      -0.1980
    148  CA        32.6440   78.7100   91.9260 C.3    35  LYS35       0.1596
    149  C         31.1300   78.8550   91.8350 C.2    35  LYS35       0.2287
    150  O         30.6140   79.7140   91.1010 O.2    35  LYS35      -0.2864
    151  CB        33.0970   77.4780   91.1460 C.3    35  LYS35       0.0298
    152  CG        34.6100   77.3090   91.0710 C.3    35  LYS35       0.0038
    153  CD        35.2850   78.5400   90.5330 C.3    35  LYS35       0.0206
    154  CE        35.4590   78.4860   89.0120 C.3    35  LYS35       0.1093
    155  NZ        36.6160   79.3550   88.6160 N.3    35  LYS35      -0.1314
    156  N         38.4170   69.3700   90.3050 N.3    57  LYS57      -0.1245
    157  CA        37.7680   70.6660   90.5150 C.3    57  LYS57       0.1561
    158  C         36.4040   70.7250   89.8240 C.2    57  LYS57       0.2260
    159  O         35.3920   71.1400   90.4380 O.2    57  LYS57      -0.2867
    160  CB        38.6640   71.8420   90.0820 C.3    57  LYS57       0.0271
    161  CG        40.1020   71.7060   90.5580 C.3    57  LYS57       0.0035
    162  CD        40.8610   73.0340   90.7470 C.3    57  LYS57       0.0206
    163  CE        40.7120   73.9590   89.5720 C.3    57  LYS57       0.1093
    164  NZ        41.8620   74.8860   89.4900 N.3    57  LYS57      -0.1314
    165  N         32.6690   71.0120   91.5690 N.3    61  TRP61      -0.1241
    166  CA        31.7850   72.1220   91.2240 C.3    61  TRP61       0.1605
    167  C         30.4760   71.6030   90.6010 C.2    61  TRP61       0.2264
    168  O         29.3670   71.9920   90.9970 O.2    61  TRP61      -0.2867
    169  CB        32.5230   73.0450   90.2700 C.3    61  TRP61       0.0550
    170  CG        31.7510   74.2120   89.8190 C.ar   61  TRP61       0.0003
    171  CD1       30.6150   74.7060   90.3800 C.ar   61  TRP61       0.0946
    172  CD2       32.0780   75.0800   88.7210 C.ar   61  TRP61       0.0152
    173  NE1       30.1930   75.8150   89.6830 N.ar   61  TRP61      -0.2442
    174  CE2       31.0690   76.0720   88.6670 C.ar   61  TRP61       0.0810
    175  CE3       33.1180   75.1110   87.7820 C.ar   61  TRP61       0.0012
    176  CZ2       31.0650   77.0940   87.7010 C.ar   61  TRP61       0.0191
    177  CZ3       33.1140   76.1410   86.8070 C.ar   61  TRP61       0.0001
    178  CH2       32.0920   77.1130   86.7860 C.ar   61  TRP61       0.0015
    179  N         29.6440   78.2060  101.8690 N.3    76  TYR76      -0.1241
    180  CA        31.0540   78.5530  101.9260 C.3    76  TYR76       0.1605
    181  C         31.4360   78.9830  103.3450 C.2    76  TYR76       0.2264
    182  O         32.4640   78.5790  103.8820 O.2    76  TYR76      -0.2867
    183  CB        31.3390   79.7090  100.9810 C.3    76  TYR76       0.0534
    184  CG        32.8090   79.9810  100.8190 C.ar   76  TYR76      -0.0201
    185  CD1       33.4780   80.8700  101.6610 C.ar   76  TYR76      -0.0009
    186  CD2       33.5360   79.3370   99.8300 C.ar   76  TYR76      -0.0009
    187  CE1       34.8440   81.1100  101.5010 C.ar   76  TYR76       0.0417
    188  CE2       34.8880   79.5640   99.6630 C.ar   76  TYR76       0.0417
    189  CZ        35.5410   80.4470  100.4970 C.ar   76  TYR76       0.1957
    190  OH        36.8870   80.6640  100.2940 O.3    76  TYR76      -0.2866
    191  N         33.8430   77.3850  106.3030 N.3    80  MET80      -0.1245
    192  CA        34.9640   78.0710  106.9210 C.3    80  MET80       0.1570
    193  C         34.8880   77.9010  108.4340 C.2    80  MET80       0.2261
    194  O         35.8950   77.7190  109.1110 O.2    80  MET80      -0.2867
    195  CB        34.9600   79.5430  106.5430 C.3    80  MET80       0.0387
    196  CG        35.9660   80.3420  107.3200 C.3    80  MET80       0.0595
    197  SD        36.7580   81.5310  106.2460 S.3    80  MET80      -0.1393
    198  CE        36.6140   80.6290  104.7090 C.3    80  MET80       0.0692
    199  N         35.9320   74.2890  109.4140 N.3    83  VAL83      -0.1231
    200  CA        37.3680   74.0200  109.3700 C.3    83  VAL83       0.1692
    201  C         38.1030   74.7590  110.5090 C.2    83  VAL83       0.2591
    202  O         39.0030   74.2060  111.1480 O.2    83  VAL83      -0.2718
    203  CB        37.9620   74.3720  107.9750 C.3    83  VAL83       0.0266
    204  CG1       39.4680   74.2030  107.9580 C.3    83  VAL83       0.0020
    205  CG2       37.3410   73.4990  106.8790 C.3    83  VAL83       0.0020
    206  N         37.7100   76.0050  110.7700 N.am   84  ALA84      -0.1980
    207  CA        38.2670   76.7300  111.9010 C.3    84  ALA84       0.1597
    208  C         37.9600   75.9680  113.1830 C.2    84  ALA84       0.2287
    209  O         38.8280   75.7980  114.0300 O.2    84  ALA84      -0.2864
    210  CB        37.7220   78.1640  111.9810 C.3    84  ALA84       0.0319
    211  N         40.4080   72.9700  113.5780 N.3    87  VAL87      -0.1231
    212  CA        41.7310   73.4050  114.0210 C.3    87  VAL87       0.1692
    213  C         41.7070   73.8100  115.4960 C.2    87  VAL87       0.2591
    214  O         42.5930   73.4390  116.2740 O.2    87  VAL87      -0.2718
    215  CB        42.2610   74.5850  113.1900 C.3    87  VAL87       0.0266
    216  CG1       43.6080   75.0220  113.7360 C.3    87  VAL87       0.0020
    217  CG2       42.3410   74.2150  111.6790 C.3    87  VAL87       0.0020
    218  N         40.6650   74.5330  115.8890 N.am   88  ILE88      -0.1980
    219  CA        40.5400   75.0170  117.2590 C.3    88  ILE88       0.1595
    220  C         40.6170   73.8820  118.2750 C.2    88  ILE88       0.2287
    221  O         41.0700   74.0890  119.3870 O.2    88  ILE88      -0.2864
    222  CB        39.2660   75.8630  117.4410 C.3    88  ILE88       0.0276
    223  CG1       39.5320   77.2870  116.9780 C.3    88  ILE88       0.0022
    224  CG2       38.8620   75.9820  118.8800 C.3    88  ILE88       0.0022
    225  CD1       38.2680   78.0520  116.7800 C.3    88  ILE88       0.0001
@<TRIPOS>BOND
     1   178   177   ar
     2   178   176   ar
     3   177   175   ar
     4   176   174   ar
     5   175   172   ar
     6   155   154    1
     7   174   172   ar
     8   174   173   ar
     9   172   170   ar
    10   154   153    1
    11   134   133    1
    12   164   163    1
    13   163   162    1
    14   173   171   ar
    15   170   169    1
    16   170   171   ar
    17   158   159    2
    18   158   157    1
    19   160   157    1
    20   160   161    1
    21   169   166    1
    22   156   157    1
    23   153   152    1
    24   161   162    1
    25   167   168    2
    26   167   166    1
    27   133   132   ar
    28   133   131   ar
    29   152   151    1
    30   150   149    2
    31   151   148    1
    32   166   165    1
    33   132   130   ar
    34   131   129   ar
    35   149   148    1
    36   148   147    1
    37   130   128   ar
    38   129   128   ar
    39   147   137   am
    40   144   142   ar
    41   144   145   ar
    42   146   145    1
    43   128   127    1
    44   138   137    2
    45   142   140   ar
    46   145   143   ar
    47   137   136    1
    48   126   125    2
    49   127   124    1
    50   125   124    1
    51   140   139    1
    52   140   141   ar
    53   143   141   ar
    54   136   139    1
    55   136   135    1
    56   124   123    1
    57    30    29    2
    58   123   114   am
    59    31    29   am
    60    29    28    1
    61    54    55    1
    62    54    53    1
    63   115   114    2
    64    28    27    1
    65   107   106    2
    66   114   113    1
    67    53    52    1
    68   106   105    1
    69     6     5    1
    70   108   105    1
    71   108   109    1
    72   110   111    1
    73   110   109    1
    74    27    24    1
    75    52    51    1
    76     7     5    1
    77   105   104    1
    78   113   112    1
    79   113   116    1
    80     5     2    1
    81   188   186   ar
    82   188   189   ar
    83   186   184   ar
    84    24    25    1
    85    24    23    1
    86   116   117    1
    87    26    25    2
    88    51    48    1
    89   190   189    1
    90   189   187   ar
    91     4     3    2
    92     2     3    1
    93     2     1    1
    94   184   183    1
    95   184   185   ar
    96    23    17   am
    97   183   180    1
    98    21    19    1
    99    48    49    1
   100    48    47    1
   101    62    61    2
   102   187   185   ar
   103   117   118   ar
   104   117   119   ar
   105    50    49    2
   106    63    61   am
   107    18    17    2
   108    17    16    1
   109    49    56   am
   110   179   180    1
   111    19    16    1
   112    19    20    1
   113   180   181    1
   114    61    60    1
   115   118   120   ar
   116    47    42   am
   117   119   121   ar
   118    95    94    1
   119    16    15    1
   120    35    34    2
   121    56    57    1
   122    96    94    1
   123    20    22    1
   124   100    99    2
   125    60    57    1
   126    42    43    2
   127    42    41    1
   128    94    93    2
   129    15    10   am
   130   181   182    2
   131    57    58    1
   132   101   102    1
   133   101    98    1
   134   120   122   ar
   135    32    33    1
   136   121   122   ar
   137   102   103    1
   138    99    98    1
   139     8     9    1
   140    34    33    1
   141    34    40   am
   142   103    97    1
   143    10    11    2
   144    10     9    1
   145    41    40    1
   146    41    44    1
   147    36    33    1
   148    36    37    1
   149    98    97    1
   150    93    92    1
   151    97    88   am
   152   198   197    1
   153    40    46    1
   154     9    12    1
   155    58    59    2
   156    58    64    1
   157    39    37    1
   158    92    91    1
   159    88    87    1
   160    88    89    2
   161    44    45    1
   162    37    38    1
   163    90    87    1
   164    90    91    1
   165    87    86    1
   166    64    65    2
   167    12    13    1
   168    12    14    1
   169    46    45    1
   170   197   196    1
   171   191   192    1
   172    77    76    2
   173   195   192    1
   174   195   196    1
   175   205   203    1
   176   192   193    1
   177    86    76   am
   178    65    66    1
   179    76    75    1
   180    67    66    2
   181    83    81   ar
   182    83    84   ar
   183    81    79   ar
   184   204   203    1
   185   203   200    1
   186    66    68   am
   187   193   194    2
   188    85    84    1
   189    84    82   ar
   190    75    78    1
   191    75    74    1
   192    79    78    1
   193    79    80   ar
   194    74    70   am
   195    68    69    1
   196   200   199    1
   197   200   201    1
   198    82    80   ar
   199    70    71    2
   200    70    69    1
   201    69    72    1
   202   201   206   am
   203   201   202    2
   204   206   207    1
   205    72    73    1
   206   217   215    1
   207   207   210    1
   208   207   208    1
   209   208   209    2
   210   215   216    1
   211   215   212    1
   212   211   212    1
   213   212   213    1
   214   213   218   am
   215   213   214    2
   216   218   219    1
   217   225   223    1
   218   223   222    1
   219   219   222    1
   220   219   220    1
   221   222   224    1
   222   220   221    2
