@<TRIPOS>MOLECULE
tmp/2wh5C00.pdb
 138 133 0 0 0
SMALL
GASTEIGER

@<TRIPOS>ATOM
      1  N         40.5680   83.5780  103.3400 N.3    11  ILE11      -0.1245
      2  CA        41.1670   82.4530  102.6130 C.3    11  ILE11       0.1561
      3  C         42.2580   82.9110  101.6400 C.2    11  ILE11       0.2260
      4  O         43.3430   82.3110  101.6020 O.2    11  ILE11      -0.2867
      5  CB        40.1110   81.5870  101.9040 C.3    11  ILE11       0.0252
      6  CG1       39.2030   80.9320  102.9390 C.3    11  ILE11       0.0019
      7  CG2       40.7570   80.5020  101.0650 C.3    11  ILE11       0.0019
      8  CD1       39.8830   79.8860  103.7440 C.3    11  ILE11       0.0001
      9  N         45.4760   83.8580  103.6870 N.3    14  LEU14      -0.1245
     10  CA        46.1020   82.7990  104.4570 C.3    14  LEU14       0.1561
     11  C         47.4870   82.4720  103.8620 C.2    14  LEU14       0.2260
     12  O         47.6490   82.4700  102.6460 O.2    14  LEU14      -0.2867
     13  CB        45.1960   81.5750  104.3540 C.3    14  LEU14       0.0270
     14  CG        44.7560   80.7800  105.5730 C.3    14  LEU14       0.0019
     15  CD1       44.3230   81.6750  106.7400 C.3    14  LEU14       0.0001
     16  CD2       43.6440   79.8590  105.1330 C.3    14  LEU14       0.0001
     17  N         49.2210   73.9820  109.1630 N.3    20  TYR20      -0.1241
     18  CA        48.0470   73.2480  108.7280 C.3    20  TYR20       0.1605
     19  C         48.1670   72.7980  107.2710 C.2    20  TYR20       0.2264
     20  O         48.6510   73.5260  106.3840 O.2    20  TYR20      -0.2867
     21  CB        46.7660   74.0580  108.9590 C.3    20  TYR20       0.0534
     22  CG        45.5040   73.2330  108.8400 C.ar   20  TYR20      -0.0201
     23  CD1       45.2200   72.2250  109.7570 C.ar   20  TYR20      -0.0009
     24  CD2       44.5950   73.4570  107.8060 C.ar   20  TYR20      -0.0009
     25  CE1       44.0610   71.4610  109.6450 C.ar   20  TYR20       0.0417
     26  CE2       43.4360   72.6960  107.6870 C.ar   20  TYR20       0.0417
     27  CZ        43.1750   71.7020  108.6070 C.ar   20  TYR20       0.1957
     28  OH        42.0290   70.9540  108.4970 O.3    20  TYR20      -0.2866
     29  N         45.5250   71.4250  104.7060 N.3    22  PRO22      -0.2116
     30  CA        44.0900   71.1700  104.4550 C.3    22  PRO22       0.1372
     31  C         43.8650   69.8310  103.7740 C.2    22  PRO22       0.2244
     32  O         44.7420   69.3460  103.0470 O.2    22  PRO22      -0.2868
     33  CB        43.6850   72.2920  103.5030 C.3    22  PRO22       0.0268
     34  CG        44.6630   73.3570  103.7470 C.3    22  PRO22       0.0207
     35  CD        45.9650   72.6870  104.0960 C.3    22  PRO22       0.0892
     36  N         42.1400   67.3380  100.9940 N.3    24  TYR24      -0.1241
     37  CA        41.5980   67.4210   99.6290 C.3    24  TYR24       0.1605
     38  C         40.1140   67.7730   99.6770 C.2    24  TYR24       0.2264
     39  O         39.6690   68.7040   98.9930 O.2    24  TYR24      -0.2867
     40  CB        41.8100   66.1100   98.8610 C.3    24  TYR24       0.0534
     41  CG        43.2550   65.8610   98.5160 C.ar   24  TYR24      -0.0201
     42  CD1       44.0690   66.9040   98.0830 C.ar   24  TYR24      -0.0009
     43  CD2       43.8100   64.5830   98.6160 C.ar   24  TYR24      -0.0009
     44  CE1       45.4030   66.6920   97.7770 C.ar   24  TYR24       0.0417
     45  CE2       45.1530   64.3520   98.3020 C.ar   24  TYR24       0.0417
     46  CZ        45.9450   65.4160   97.8840 C.ar   24  TYR24       0.1957
     47  OH        47.2760   65.2110   97.5710 O.3    24  TYR24      -0.2866
     48  N         38.4860   69.3690  102.0290 N.3    26  GLU26      -0.1231
     49  CA        38.3700   70.7870  102.3820 C.3    26  GLU26       0.1699
     50  C         38.6800   71.7050  101.1900 C.2    26  GLU26       0.2592
     51  O         37.9190   72.6120  100.8840 O.2    26  GLU26      -0.2718
     52  CB        39.2370   71.1180  103.5930 C.3    26  GLU26       0.0402
     53  CG        38.6650   70.5380  104.8920 C.3    26  GLU26       0.1161
     54  CD        39.6980   70.3020  106.0090 C.2    26  GLU26       0.3649
     55  OE1       40.9250   70.4930  105.7950 O.co2  26  GLU26      -0.2457
     56  OE2       39.2570   69.9080  107.1110 O.co2  26  GLU26      -0.2457
     57  N         39.7850   71.4590  100.5030 N.am   27  MET27      -0.1965
     58  CA        40.1220   72.2460   99.3240 C.3    27  MET27       0.1736
     59  C         38.9820   72.2250   98.2970 C.2    27  MET27       0.2616
     60  O         38.6070   73.2790   97.7710 O.2    27  MET27      -0.2715
     61  CB        41.4290   71.7500   98.6960 C.3    27  MET27       0.0427
     62  CG        42.6810   72.1270   99.5170 C.3    27  MET27       0.0599
     63  SD        44.2410   71.4750   98.8630 S.3    27  MET27      -0.1393
     64  CE        44.0630   69.7360   99.2730 C.3    27  MET27       0.0692
     65  N         38.4160   71.0410   98.0380 N.am   28  LEU28      -0.1977
     66  CA        37.3260   70.8960   97.0490 C.3    28  LEU28       0.1596
     67  C         36.0320   71.5940   97.4610 C.2    28  LEU28       0.2287
     68  O         35.3550   72.1930   96.6270 O.2    28  LEU28      -0.2864
     69  CB        37.0660   69.4260   96.7140 C.3    28  LEU28       0.0297
     70  CG        38.2300   68.8910   95.8740 C.3    28  LEU28       0.0022
     71  CD1       38.1270   67.3990   95.5880 C.3    28  LEU28       0.0001
     72  CD2       38.3330   69.6810   94.5890 C.3    28  LEU28       0.0001
     73  N         35.7610   74.3670   99.5490 N.3    30  PHE30      -0.1227
     74  CA        35.8890   75.8050   99.3840 C.3    30  PHE30       0.1736
     75  C         35.8710   76.1200   97.8980 C.2    30  PHE30       0.2595
     76  O         35.2700   77.0940   97.4420 O.2    30  PHE30      -0.2718
     77  CB        37.1810   76.3170  100.0220 C.3    30  PHE30       0.0547
     78  CG        37.1240   76.4060  101.5300 C.ar   30  PHE30      -0.0202
     79  CD1       36.3230   77.3620  102.1530 C.ar   30  PHE30      -0.0042
     80  CD2       37.8750   75.5420  102.3160 C.ar   30  PHE30      -0.0042
     81  CE1       36.2630   77.4390  103.5320 C.ar   30  PHE30      -0.0003
     82  CE2       37.8290   75.6100  103.7050 C.ar   30  PHE30      -0.0003
     83  CZ        37.0190   76.5570  104.3160 C.ar   30  PHE30      -0.0000
     84  N         36.5430   75.2890   97.1230 N.am   31  TYR31      -0.1976
     85  CA        36.6420   75.5930   95.7190 C.3    31  TYR31       0.1639
     86  C         35.2690   75.5500   95.0540 C.2    31  TYR31       0.2290
     87  O         34.8940   76.4860   94.3320 O.2    31  TYR31      -0.2864
     88  CB        37.6110   74.6600   95.0090 C.3    31  TYR31       0.0560
     89  CG        37.5440   74.8430   93.5130 C.ar   31  TYR31      -0.0198
     90  CD1       38.1580   75.9340   92.9080 C.ar   31  TYR31      -0.0009
     91  CD2       36.8510   73.9350   92.7070 C.ar   31  TYR31      -0.0009
     92  CE1       38.0870   76.1330   91.5510 C.ar   31  TYR31       0.0417
     93  CE2       36.7850   74.1200   91.3420 C.ar   31  TYR31       0.0417
     94  CZ        37.3970   75.2290   90.7770 C.ar   31  TYR31       0.1957
     95  OH        37.3510   75.4310   89.4350 O.3    31  TYR31      -0.2866
     96  N         43.6600   67.1820   88.2810 N.3    53  ILE53      -0.1245
     97  CA        43.1980   68.2170   89.2070 C.3    53  ILE53       0.1561
     98  C         42.0360   69.0140   88.6100 C.2    53  ILE53       0.2260
     99  O         41.0550   69.3200   89.3140 O.2    53  ILE53      -0.2867
    100  CB        44.3320   69.1390   89.6440 C.3    53  ILE53       0.0252
    101  CG1       45.3330   68.3360   90.4730 C.3    53  ILE53       0.0019
    102  CG2       43.8010   70.2810   90.4990 C.3    53  ILE53       0.0019
    103  CD1       46.6830   69.0180   90.5710 C.3    53  ILE53       0.0001
    104  N         38.9620   66.9230   89.0120 N.3    56  TYR56      -0.1227
    105  CA        38.5260   66.9340   90.4040 C.3    56  TYR56       0.1736
    106  C         37.8140   68.2510   90.7000 C.2    56  TYR56       0.2595
    107  O         36.7180   68.2550   91.2580 O.2    56  TYR56      -0.2718
    108  CB        39.7100   66.6990   91.3630 C.3    56  TYR56       0.0548
    109  CG        39.9820   65.2380   91.6370 C.ar   56  TYR56      -0.0200
    110  CD1       39.2230   64.5580   92.5760 C.ar   56  TYR56      -0.0009
    111  CD2       40.9950   64.5400   90.9730 C.ar   56  TYR56      -0.0009
    112  CE1       39.4380   63.2150   92.8520 C.ar   56  TYR56       0.0417
    113  CE2       41.2150   63.1820   91.2210 C.ar   56  TYR56       0.0417
    114  CZ        40.4240   62.5270   92.1770 C.ar   56  TYR56       0.1957
    115  OH        40.5820   61.1900   92.4980 O.3    56  TYR56      -0.2866
    116  N         38.4170   69.3700   90.3050 N.am   57  LYS57      -0.1980
    117  CA        37.7680   70.6660   90.5150 C.3    57  LYS57       0.1596
    118  C         36.4040   70.7250   89.8240 C.2    57  LYS57       0.2287
    119  O         35.3920   71.1400   90.4380 O.2    57  LYS57      -0.2864
    120  CB        38.6640   71.8420   90.0820 C.3    57  LYS57       0.0298
    121  CG        40.1020   71.7060   90.5580 C.3    57  LYS57       0.0038
    122  CD        40.8610   73.0340   90.7470 C.3    57  LYS57       0.0206
    123  CE        40.7120   73.9590   89.5720 C.3    57  LYS57       0.1093
    124  NZ        41.8620   74.8860   89.4900 N.3    57  LYS57      -0.1314
    125  N         35.9320   74.2890  109.4140 N.3    83  VAL83      -0.1245
    126  CA        37.3680   74.0200  109.3700 C.3    83  VAL83       0.1561
    127  C         38.1030   74.7590  110.5090 C.2    83  VAL83       0.2260
    128  O         39.0030   74.2060  111.1480 O.2    83  VAL83      -0.2867
    129  CB        37.9620   74.3720  107.9750 C.3    83  VAL83       0.0252
    130  CG1       39.4680   74.2030  107.9580 C.3    83  VAL83       0.0019
    131  CG2       37.3410   73.4990  106.8790 C.3    83  VAL83       0.0019
    132  N         40.4080   72.9700  113.5780 N.3    87  VAL87      -0.1245
    133  CA        41.7310   73.4050  114.0210 C.3    87  VAL87       0.1561
    134  C         41.7070   73.8100  115.4960 C.2    87  VAL87       0.2260
    135  O         42.5930   73.4390  116.2740 O.2    87  VAL87      -0.2867
    136  CB        42.2610   74.5850  113.1900 C.3    87  VAL87       0.0252
    137  CG1       43.6080   75.0220  113.7360 C.3    87  VAL87       0.0019
    138  CG2       42.3410   74.2150  111.6790 C.3    87  VAL87       0.0019
@<TRIPOS>BOND
     1    96    97    1
     2    98    97    1
     3    98    99    2
     4   104   105    1
     5    97   100    1
     6    95    94    1
     7   124   123    1
     8   123   122    1
     9   100   101    1
    10   100   102    1
    11   118   119    2
    12   118   117    1
    13   120   117    1
    14   120   121    1
    15   116   117    1
    16   116   106   am
    17   105   106    1
    18   105   108    1
    19   101   103    1
    20   121   122    1
    21   106   107    2
    22    94    93   ar
    23    94    92   ar
    24   111   113   ar
    25   111   109   ar
    26   113   114   ar
    27    93    91   ar
    28   108   109    1
    29    92    90   ar
    30   109   110   ar
    31   114   115    1
    32   114   112   ar
    33   110   112   ar
    34    91    89   ar
    35    90    89   ar
    36    89    88    1
    37    87    86    2
    38    72    70    1
    39    88    85    1
    40    86    85    1
    41    71    70    1
    42    85    84    1
    43    70    69    1
    44    68    67    2
    45    69    66    1
    46    66    67    1
    47    66    65    1
    48    84    75   am
    49    76    75    2
    50    47    46    1
    51    60    59    2
    52    44    46   ar
    53    44    42   ar
    54    46    45   ar
    55    75    74    1
    56    65    59   am
    57    42    41   ar
    58    59    58    1
    59    45    43   ar
    60    41    43   ar
    61    41    40    1
    62    61    58    1
    63    61    62    1
    64    40    37    1
    65    63    64    1
    66    63    62    1
    67    39    38    2
    68    58    57    1
    69    74    73    1
    70    74    77    1
    71    37    38    1
    72    37    36    1
    73    77    78    1
    74    57    50   am
    75    51    50    2
    76     7     5    1
    77    50    49    1
    78    78    79   ar
    79    78    80   ar
    80     4     3    2
    81     3     2    1
    82     5     2    1
    83     5     6    1
    84    48    49    1
    85    79    81   ar
    86    80    82   ar
    87    49    52    1
    88     2     1    1
    89    12    11    2
    90     6     8    1
    91    32    31    2
    92    33    34    1
    93    33    30    1
    94    81    83   ar
    95    52    53    1
    96     9    10    1
    97    82    83   ar
    98    34    35    1
    99    31    30    1
   100    11    10    1
   101    35    29    1
   102    13    10    1
   103    13    14    1
   104    30    29    1
   105    53    54    1
   106    16    14    1
   107    14    15    1
   108    55    54   ar
   109    54    56   ar
   110    20    19    2
   111   131   129    1
   112    19    18    1
   113    26    24   ar
   114    26    27   ar
   115    24    22   ar
   116   130   129    1
   117   129   126    1
   118    28    27    1
   119    27    25   ar
   120    18    21    1
   121    18    17    1
   122    22    21    1
   123    22    23   ar
   124   126   125    1
   125   126   127    1
   126    25    23   ar
   127   127   128    2
   128   138   136    1
   129   136   137    1
   130   136   133    1
   131   132   133    1
   132   133   134    1
   133   134   135    2
