@<TRIPOS>MOLECULE
tmp/2wh8C01.pdb
 135 122 0 0 0
SMALL
GASTEIGER

@<TRIPOS>ATOM
      1  N          3.6620   25.0370   25.3380 N.3    66  LEU66      -0.1245
      2  CA         4.0710   26.4080   25.4310 C.3    66  LEU66       0.1561
      3  C          5.3780   26.6220   26.1860 C.2    66  LEU66       0.2260
      4  O          5.6890   27.7590   26.5150 O.2    66  LEU66      -0.2867
      5  CB         2.9630   27.2460   26.0750 C.3    66  LEU66       0.0270
      6  CG         1.6150   27.1610   25.3120 C.3    66  LEU66       0.0019
      7  CD1        0.5630   27.8970   26.1090 C.3    66  LEU66       0.0001
      8  CD2        1.7220   27.7900   23.9520 C.3    66  LEU66       0.0001
      9  N          2.7120   15.2530   30.0250 N.3    76  ILE76      -0.1245
     10  CA         1.7510   15.5540   31.0640 C.3    76  ILE76       0.1561
     11  C          0.3080   15.0340   30.8240 C.2    76  ILE76       0.2260
     12  O         -0.5550   15.1250   31.7140 O.2    76  ILE76      -0.2867
     13  CB         1.7400   17.0210   31.3430 C.3    76  ILE76       0.0252
     14  CG1        0.9130   17.7520   30.3180 C.3    76  ILE76       0.0019
     15  CG2        3.2060   17.5660   31.3330 C.3    76  ILE76       0.0019
     16  CD1        1.0110   19.2280   30.4520 C.3    76  ILE76       0.0001
     17  N         -1.9490   15.6010   27.9670 N.3    78  LEU78      -0.1245
     18  CA        -2.9260   16.5840   27.4530 C.3    78  LEU78       0.1561
     19  C         -3.2060   16.4860   25.9330 C.2    78  LEU78       0.2260
     20  O         -3.7270   17.4410   25.3050 O.2    78  LEU78      -0.2867
     21  CB        -2.3310   17.9710   27.7110 C.3    78  LEU78       0.0270
     22  CG        -3.0550   18.9880   28.5700 C.3    78  LEU78       0.0019
     23  CD1       -4.0110   18.2880   29.5170 C.3    78  LEU78       0.0001
     24  CD2       -2.0480   19.8960   29.2760 C.3    78  LEU78       0.0001
     25  N         -6.0150   22.2480   26.4570 N.3    83  PRO83      -0.2116
     26  CA        -6.5940   23.5210   26.8390 C.3    83  PRO83       0.1372
     27  C         -6.5640   24.4220   25.6060 C.2    83  PRO83       0.2244
     28  O         -5.8100   24.1550   24.6480 O.2    83  PRO83      -0.2868
     29  CB        -5.6590   24.0330   27.9440 C.3    83  PRO83       0.0268
     30  CG        -4.3010   23.4590   27.5690 C.3    83  PRO83       0.0207
     31  CD        -4.6620   22.0460   27.0240 C.3    83  PRO83       0.0892
     32  N         -5.3870   27.2660   25.0730 N.3    85  VAL85      -0.1231
     33  CA        -4.1530   27.9870   24.7890 C.3    85  VAL85       0.1692
     34  C         -3.1330   27.0510   24.0840 C.2    85  VAL85       0.2591
     35  O         -2.0280   27.4910   23.6740 O.2    85  VAL85      -0.2718
     36  CB        -3.6530   28.6170   26.1260 C.3    85  VAL85       0.0266
     37  CG1       -3.1600   27.4990   27.0820 C.3    85  VAL85       0.0020
     38  CG2       -2.6970   29.7390   25.9010 C.3    85  VAL85       0.0020
     39  N         -3.4730   25.7680   23.9600 N.am   86  MET86      -0.1979
     40  CA        -2.6310   24.8070   23.1920 C.3    86  MET86       0.1605
     41  C         -3.3800   24.2680   21.9810 C.2    86  MET86       0.2287
     42  O         -3.1710   23.0920   21.5470 O.2    86  MET86      -0.2864
     43  CB        -2.0860   23.6800   24.0890 C.3    86  MET86       0.0413
     44  CG        -1.1560   24.2220   25.2180 C.3    86  MET86       0.0598
     45  SD        -0.6690   22.8320   26.2450 S.3    86  MET86      -0.1393
     46  CE         0.0080   23.6180   27.7420 C.3    86  MET86       0.0692
     47  N        -12.3590   19.4500   40.0910 N.3   181  MET181     -0.1245
     48  CA       -13.0340   18.5890   39.1170 C.3   181  MET181      0.1570
     49  C        -14.4210   18.2400   39.6420 C.2   181  MET181      0.2261
     50  O        -15.4300   18.4140   38.9520 O.2   181  MET181     -0.2867
     51  CB       -12.2470   17.2880   38.8540 C.3   181  MET181      0.0387
     52  CG       -10.9470   17.4870   38.1190 C.3   181  MET181      0.0595
     53  SD       -11.1270   18.1830   36.4700 S.3   181  MET181     -0.1393
     54  CE        -9.3910   18.1890   36.0130 C.3   181  MET181      0.0692
     55  N        -14.9630   17.5480   29.5680 N.3   216  LEU216     -0.1245
     56  CA       -13.5390   17.6520   29.8550 C.3   216  LEU216      0.1561
     57  C        -13.0460   18.9660   29.2980 C.2   216  LEU216      0.2260
     58  O        -12.2480   19.6290   29.9650 O.2   216  LEU216     -0.2867
     59  CB       -12.6940   16.4660   29.3230 C.3   216  LEU216      0.0270
     60  CG       -11.4450   15.9440   30.1220 C.3   216  LEU216      0.0019
     61  CD1      -10.3120   15.2390   29.2280 C.3   216  LEU216      0.0001
     62  CD2      -10.8000   16.9050   31.1560 C.3   216  LEU216      0.0001
     63  N        -11.1010   21.5600   31.4510 N.3   220  ALA220     -0.1245
     64  CA        -9.8160   22.0420   30.9390 C.3   220  ALA220      0.1562
     65  C         -9.7970   23.5710   30.9270 C.2   220  ALA220      0.2260
     66  O         -8.8200   24.1920   31.3650 O.2   220  ALA220     -0.2867
     67  CB        -9.5350   21.4830   29.5670 C.3   220  ALA220      0.0290
     68  N         -9.3420   24.9210   34.4610 N.3   223  PHE223     -0.1227
     69  CA        -7.9280   24.9010   34.8260 C.3   223  PHE223      0.1736
     70  C         -7.0720   25.9570   34.1430 C.2   223  PHE223      0.2596
     71  O         -6.1570   26.5050   34.7630 O.2   223  PHE223     -0.2718
     72  CB        -7.3450   23.5060   34.7440 C.3   223  PHE223      0.0547
     73  CG        -7.7740   22.6490   35.9110 C.ar  223  PHE223     -0.0202
     74  CD1       -7.0310   22.6440   37.0970 C.ar  223  PHE223     -0.0042
     75  CD2       -8.9620   21.9870   35.8790 C.ar  223  PHE223     -0.0042
     76  CE1       -7.4370   21.9110   38.1880 C.ar  223  PHE223     -0.0003
     77  CE2       -9.4020   21.2110   36.9940 C.ar  223  PHE223     -0.0003
     78  CZ        -8.6420   21.1880   38.1320 C.ar  223  PHE223     -0.0000
     79  N         -7.3400   26.2190   32.8760 N.am  224  THR224     -0.1953
     80  CA        -6.7130   27.3340   32.1920 C.3   224  THR224      0.1897
     81  C         -6.9350   28.6230   32.9590 C.2   224  THR224      0.2313
     82  O         -6.0510   29.4100   33.1370 O.2   224  THR224     -0.2863
     83  CB        -7.2660   27.4620   30.7380 C.3   224  THR224      0.1794
     84  OG1       -6.9540   26.2690   29.9750 O.3   224  THR224     -0.2208
     85  CG2       -6.6340   28.6390   30.0230 C.3   224  THR224      0.0378
     86  N         -4.9430   28.3670   36.4490 N.3   227  THR227     -0.1203
     87  CA        -3.4790   28.3460   36.3350 C.3   227  THR227      0.1994
     88  C         -2.9400   29.5930   35.6370 C.2   227  THR227      0.2618
     89  O         -1.7330   29.8770   35.7520 O.2   227  THR227     -0.2717
     90  CB        -2.9560   27.0730   35.5610 C.3   227  THR227      0.1784
     91  OG1       -3.4950   27.0330   34.2320 O.3   227  THR227     -0.2211
     92  CG2       -3.3200   25.7230   36.3050 C.3   227  THR227      0.0376
     93  N         -3.7870   30.3120   34.9030 N.am  228  GLY228     -0.1942
     94  CA        -3.3090   31.4880   34.1390 C.3   228  GLY228      0.2014
     95  C         -3.7720   32.8380   34.6880 C.2   228  GLY228      0.2639
     96  O         -3.2170   33.9240   34.3620 O.2   228  GLY228     -0.2714
     97  N         -4.8090   32.8080   35.5180 N.am  229  GLY229     -0.1954
     98  CA        -5.4720   34.0350   35.9130 C.3   229  GLY229      0.1869
     99  C         -5.1110   34.5790   37.2840 C.2   229  GLY229      0.2309
    100  O         -5.5890   35.6620   37.6300 O.2   229  GLY229     -0.2863
    101  N         -0.3130   35.4170   37.5360 N.3   232  THR232     -0.1218
    102  CA        -0.0300   36.5240   36.6120 C.3   232  THR232      0.1862
    103  C         -0.4440   37.8790   37.2160 C.2   232  THR232      0.2287
    104  O          0.3360   38.8500   37.2250 O.2   232  THR232     -0.2866
    105  CB        -0.7590   36.3260   35.2820 C.3   232  THR232      0.1770
    106  OG1       -2.1710   36.0810   35.5140 O.3   232  THR232     -0.2211
    107  CG2       -0.1440   35.1360   34.5610 C.3   232  THR232      0.0375
    108  N          3.6620   37.3230   32.3300 N.3   275  VAL275     -0.1245
    109  CA         4.0990   36.3090   31.3970 C.3   275  VAL275      0.1561
    110  C          5.2850   36.8810   30.6220 C.2   275  VAL275      0.2260
    111  O          5.1210   37.6080   29.6470 O.2   275  VAL275     -0.2867
    112  CB         2.9710   35.7820   30.4460 C.3   275  VAL275      0.0252
    113  CG1        3.5250   34.6680   29.5760 C.3   275  VAL275      0.0019
    114  CG2        1.7490   35.2370   31.2760 C.3   275  VAL275      0.0019
    115  N          6.5760   32.7700   26.4980 N.3   278  LEU278     -0.1245
    116  CA         5.9320   31.4670   26.2330 C.3   278  LEU278      0.1561
    117  C          6.4370   30.9660   24.8720 C.2   278  LEU278      0.2260
    118  O          6.8610   31.7560   24.0050 O.2   278  LEU278     -0.2867
    119  CB         4.3940   31.5760   26.2410 C.3   278  LEU278      0.0270
    120  CG         3.7370   31.8310   27.6220 C.3   278  LEU278      0.0019
    121  CD1        2.2520   32.0940   27.4710 C.3   278  LEU278      0.0001
    122  CD2        3.9780   30.5840   28.4370 C.3   278  LEU278      0.0001
    123  N         -4.9770   37.5180   25.4770 N.3   339  CYS339     -0.1235
    124  CA        -5.5900   37.1780   26.7810 C.3   339  CYS339      0.1677
    125  C         -7.0410   37.5800   26.8680 C.2   339  CYS339      0.2270
    126  O         -7.3710   38.7430   26.7470 O.2   339  CYS339     -0.2867
    127  CB        -4.8720   37.9310   27.9110 C.3   339  CYS339      0.0956
    128  SG        -5.4990   37.5690   29.4980 S.3   339  CYS339     -0.0801
    129  N          6.5180   32.7200   34.1480 N.3   378  VAL378     -0.1245
    130  CA         5.8080   33.7890   34.8330 C.3   378  VAL378      0.1561
    131  C          6.6700   34.3610   35.9670 C.2   378  VAL378      0.2260
    132  O          7.1680   33.6110   36.8080 O.2   378  VAL378     -0.2867
    133  CB         4.4660   33.2800   35.4030 C.3   378  VAL378      0.0252
    134  CG1        3.8070   34.3250   36.2640 C.3   378  VAL378      0.0019
    135  CG2        3.5370   32.8850   34.2410 C.3   378  VAL378      0.0019
@<TRIPOS>BOND
     1    42    41    2
     2    41    40    1
     3    40    39    1
     4    40    43    1
     5    35    34    2
     6     8     6    1
     7    39    34   am
     8   118   117    2
     9    34    33    1
    10    43    44    1
    11    28    27    2
    12    33    32    1
    13    33    36    1
    14   117   116    1
    15    44    45    1
    16    20    19    2
    17     6     5    1
    18     6     7    1
    19     1     2    1
    20     2     5    1
    21     2     3    1
    22   123   124    1
    23    27    26    1
    24    38    36    1
    25    19    18    1
    26    36    37    1
    27     3     4    2
    28   116   119    1
    29   116   115    1
    30   119   120    1
    31    45    46    1
    32    25    26    1
    33    25    31    1
    34   126   125    2
    35   124   125    1
    36   124   127    1
    37    26    29    1
    38    31    30    1
    39    18    21    1
    40    18    17    1
    41   121   120    1
    42    30    29    1
    43   120   122    1
    44    21    22    1
    45   127   128    1
    46    22    24    1
    47    22    23    1
    48    61    60    1
    49    57    56    1
    50    57    58    2
    51    59    56    1
    52    59    60    1
    53    67    64    1
    54    55    56    1
    55   113   112    1
    56   111   110    2
    57    84    83    1
    58    85    83    1
    59     9    10    1
    60    60    62    1
    61    14    16    1
    62    14    13    1
    63   112   114    1
    64   112   109    1
    65   110   109    1
    66    83    80    1
    67    11    10    1
    68    11    12    2
    69    65    64    1
    70    65    66    2
    71    64    63    1
    72    10    13    1
    73    15    13    1
    74   109   108    1
    75    80    79    1
    76    80    81    1
    77    79    70   am
    78    81    82    2
    79    94    95    1
    80    94    93    1
    81    70    71    2
    82    70    69    1
    83   129   130    1
    84    91    90    1
    85   135   133    1
    86    96    95    2
    87    68    69    1
    88   107   105    1
    89    95    97   am
    90    72    69    1
    91    72    73    1
    92   130   133    1
    93   130   131    1
    94    93    88   am
    95   105   106    1
    96   105   102    1
    97   133   134    1
    98    97    98    1
    99    90    92    1
   100    90    87    1
   101    88    89    2
   102    88    87    1
   103    75    73   ar
   104    75    77   ar
   105    73    74   ar
   106    98    99    1
   107   131   132    2
   108    54    53    1
   109    87    86    1
   110    53    52    1
   111   102   103    1
   112   102   101    1
   113    77    78   ar
   114    74    76   ar
   115   103   104    2
   116    99   100    2
   117    52    51    1
   118    78    76   ar
   119    51    48    1
   120    50    49    2
   121    48    49    1
   122    48    47    1
