@<TRIPOS>MOLECULE
tmp/2whbB00.pdb
 125 120 0 0 0
SMALL
GASTEIGER

@<TRIPOS>ATOM
      1  N         46.6410   33.6770   -2.9240 N.3    36  MET36      -0.1245
      2  CA        45.5820   33.0370   -2.1780 C.3    36  MET36       0.1570
      3  C         44.2800   33.4650   -2.8460 C.2    36  MET36       0.2261
      4  O         43.3800   32.6520   -3.1010 O.2    36  MET36      -0.2867
      5  CB        45.6260   33.5550   -0.7620 C.3    36  MET36       0.0387
      6  CG        46.8940   33.2270    0.0180 C.3    36  MET36       0.0595
      7  SD        46.6610   32.9920    1.8000 S.3    36  MET36      -0.1393
      8  CE        48.3540   32.8800    2.3610 C.3    36  MET36       0.0692
      9  N         43.7690   31.5730   -5.9480 N.3    39  ILE39      -0.1231
     10  CA        43.2680   30.2440   -5.6370 C.3    39  ILE39       0.1692
     11  C         41.7550   30.3000   -5.3880 C.2    39  ILE39       0.2591
     12  O         40.9790   29.4750   -5.8860 O.2    39  ILE39      -0.2718
     13  CB        44.0340   29.6190   -4.4650 C.3    39  ILE39       0.0266
     14  CG1       45.4360   29.1910   -4.9320 C.3    39  ILE39       0.0019
     15  CG2       43.2320   28.4860   -3.8200 C.3    39  ILE39       0.0020
     16  CD1       46.4800   29.1370   -3.8090 C.3    39  ILE39       0.0001
     17  N         41.3260   31.3220   -4.6530 N.am   40  LEU40      -0.1980
     18  CA        39.9450   31.4340   -4.1740 C.3    40  LEU40       0.1596
     19  C         39.0920   31.5590   -5.4100 C.2    40  LEU40       0.2287
     20  O         38.0890   30.8400   -5.5060 O.2    40  LEU40      -0.2864
     21  CB        39.7850   32.6760   -3.3050 C.3    40  LEU40       0.0297
     22  CG        38.3450   32.9780   -2.9140 C.3    40  LEU40       0.0022
     23  CD1       37.7770   31.7590   -2.2350 C.3    40  LEU40       0.0001
     24  CD2       38.2810   34.2280   -2.0110 C.3    40  LEU40       0.0001
     25  N         39.5830   30.9150   -8.6810 N.3    42  ASP42      -0.1225
     26  CA        39.6300   29.7690   -9.5670 C.3    42  ASP42       0.1805
     27  C         38.6840   28.7060   -9.0520 C.2    42  ASP42       0.2597
     28  O         38.0770   27.9880   -9.8250 O.2    42  ASP42      -0.2718
     29  CB        41.0240   29.1490   -9.5540 C.3    42  ASP42       0.1424
     30  CG        41.1900   28.0560  -10.6260 C.2    42  ASP42       0.3668
     31  OD1       41.1430   28.3410  -11.8470 O.co2  42  ASP42      -0.2456
     32  OD2       41.3710   26.8640  -10.2820 O.co2  42  ASP42      -0.2456
     33  N         38.5630   28.6010   -7.7390 N.am   43  TRP43      -0.1976
     34  CA        37.6150   27.6860   -7.0880 C.3    43  TRP43       0.1640
     35  C         36.2050   28.1380   -7.4350 C.2    43  TRP43       0.2290
     36  O         35.3280   27.3220   -7.7270 O.2    43  TRP43      -0.2864
     37  CB        37.8190   27.6980   -5.5570 C.3    43  TRP43       0.0576
     38  CG        36.8800   26.8380   -4.7700 C.ar   43  TRP43       0.0006
     39  CD1       36.6890   25.5040   -4.9400 C.ar   43  TRP43       0.0946
     40  CD2       35.9730   27.2480   -3.7290 C.ar   43  TRP43       0.0152
     41  NE1       35.6890   25.0590   -4.1060 N.ar   43  TRP43      -0.2442
     42  CE2       35.2430   26.1050   -3.3420 C.ar   43  TRP43       0.0810
     43  CE3       35.6580   28.4760   -3.1350 C.ar   43  TRP43       0.0012
     44  CZ2       34.2500   26.1500   -2.3620 C.ar   43  TRP43       0.0191
     45  CZ3       34.6760   28.5210   -2.1690 C.ar   43  TRP43       0.0001
     46  CH2       34.0000   27.3630   -1.7710 C.ar   43  TRP43       0.0015
     47  N         34.9760   27.0510  -10.7750 N.3    46  GLU46      -0.1245
     48  CA        34.5060   25.6820  -10.8130 C.3    46  GLU46       0.1567
     49  C         33.1960   25.5750  -10.0870 C.2    46  GLU46       0.2260
     50  O         32.3590   24.8570  -10.6040 O.2    46  GLU46      -0.2867
     51  CB        35.4210   24.7360  -10.0520 C.3    46  GLU46       0.0388
     52  CG        36.7820   24.4730  -10.6320 C.3    46  GLU46       0.1160
     53  CD        37.5000   23.3720   -9.8660 C.2    46  GLU46       0.3649
     54  OE1       36.9610   22.2400   -9.8330 O.co2  46  GLU46      -0.2457
     55  OE2       38.5950   23.6400   -9.3110 O.co2  46  GLU46      -0.2457
     56  N         43.7590   33.5060    6.6220 N.3    76  ARG76      -0.1245
     57  CA        43.6710   32.6180    5.4880 C.3    76  ARG76       0.1563
     58  C         42.7700   31.4230    5.7270 C.2    76  ARG76       0.2260
     59  O         42.1750   30.7640    4.8600 O.2    76  ARG76      -0.2867
     60  CB        45.0250   32.1740    4.9700 C.3    76  ARG76       0.0307
     61  CG        45.7460   31.0590    5.7060 C.3    76  ARG76       0.0489
     62  CD        47.0330   31.6890    6.2560 C.3    76  ARG76       0.2205
     63  NE        48.2630   30.9450    5.9980 N.pl3  76  ARG76      -0.0865
     64  CZ        49.5030   31.4370    6.0070 C.cat  76  ARG76       0.5346
     65  NH1       49.7610   32.7260    6.1980 N.pl3  76  ARG76       0.1354
     66  NH2       50.5310   30.6150    5.8300 N.pl3  76  ARG76       0.1354
     67  N         39.0400   32.8890    4.7120 N.3    79  LEU79      -0.1231
     68  CA        38.8760   33.5030    3.3870 C.3    79  LEU79       0.1693
     69  C         37.9130   32.6910    2.5110 C.2    79  LEU79       0.2591
     70  O         37.0400   33.1760    1.7960 O.2    79  LEU79      -0.2718
     71  CB        40.2360   33.6400    2.7080 C.3    79  LEU79       0.0284
     72  CG        40.3390   34.1560    1.2670 C.3    79  LEU79       0.0019
     73  CD1       39.8250   35.6000    1.1450 C.3    79  LEU79       0.0001
     74  CD2       41.8170   34.1490    0.7700 C.3    79  LEU79       0.0001
     75  N         38.0400   31.3790    2.6100 N.am   80  GLN80      -0.1979
     76  CA        37.1660   30.5480    1.8060 C.3    80  GLN80       0.1601
     77  C         35.7220   30.8060    2.2170 C.2    80  GLN80       0.2287
     78  O         34.8180   30.7620    1.3790 O.2    80  GLN80      -0.2864
     79  CB        37.4900   29.0550    1.9650 C.3    80  GLN80       0.0394
     80  CG        36.7590   28.1720    0.9460 C.3    80  GLN80       0.0908
     81  CD        37.1880   26.7100    0.8470 C.2    80  GLN80       0.2608
     82  OE1       38.1630   26.3060    1.4530 O.2    80  GLN80      -0.2717
     83  NE2       36.4430   25.8960    0.1160 N.am   80  GLN80      -0.0878
     84  N         28.4940   21.9050    1.4630 N.3   106  TYR106     -0.1227
     85  CA        29.0590   20.6960    0.8910 C.3   106  TYR106      0.1736
     86  C         30.2990   20.9600    0.0740 C.2   106  TYR106      0.2595
     87  O         31.2490   20.2190    0.1950 O.2   106  TYR106     -0.2718
     88  CB        28.0640   20.1200   -0.0850 C.3   106  TYR106      0.0548
     89  CG        28.5170   18.8280   -0.7090 C.ar  106  TYR106     -0.0200
     90  CD1       28.2920   17.6020   -0.0810 C.ar  106  TYR106     -0.0009
     91  CD2       29.0770   18.8100   -1.9710 C.ar  106  TYR106     -0.0009
     92  CE1       28.6380   16.3930   -0.6660 C.ar  106  TYR106      0.0417
     93  CE2       29.4350   17.6080   -2.5610 C.ar  106  TYR106      0.0417
     94  CZ        29.2270   16.4100   -1.9110 C.ar  106  TYR106      0.1957
     95  OH        29.5880   15.2520   -2.5620 O.3   106  TYR106     -0.2866
     96  N         30.3110   21.9890   -0.7590 N.am  107  ILE107     -0.1966
     97  CA        31.3650   22.2220   -1.7250 C.3   107  ILE107      0.1727
     98  C         32.5910   22.7490   -0.9880 C.2   107  ILE107      0.2617
     99  O         33.6010   23.1120   -1.5810 O.2   107  ILE107     -0.2715
    100  CB        30.9490   23.2240   -2.8390 C.3   107  ILE107      0.0290
    101  CG1       30.7060   24.6390   -2.3010 C.3   107  ILE107      0.0022
    102  CG2       29.7980   22.7390   -3.7100 C.3   107  ILE107      0.0023
    103  CD1       31.0880   25.6810   -3.3350 C.3   107  ILE107      0.0001
    104  N         32.5560   22.8360    0.3300 N.am  108  THR108     -0.1937
    105  CA        33.7870   23.1660    1.0210 C.3   108  THR108      0.2028
    106  C         34.2370   21.9430    1.8280 C.2   108  THR108      0.2642
    107  O         35.0000   22.0280    2.8100 O.2   108  THR108     -0.2714
    108  CB        33.5310   24.3020    2.0300 C.3   108  THR108      0.1808
    109  OG1       32.5920   23.8160    3.0020 O.3   108  THR108     -0.2208
    110  CG2       33.0680   25.6010    1.4040 C.3   108  THR108      0.0379
    111  N         33.6960   20.7940    1.4190 N.am  109  ASP109     -0.1971
    112  CA        33.9920   19.4850    2.0070 C.3   109  ASP109      0.1709
    113  C         33.6450   19.5370    3.4880 C.2   109  ASP109      0.2293
    114  O         34.4950   19.2030    4.3160 O.2   109  ASP109     -0.2864
    115  CB        35.4770   19.1270    1.8190 C.3   109  ASP109      0.1436
    116  CG        35.7070   17.9190    0.9180 C.2   109  ASP109      0.3671
    117  OD1       35.2860   16.8160    1.3440 O.co2 109  ASP109     -0.2456
    118  OD2       36.3260   18.0430   -0.1700 O.co2 109  ASP109     -0.2456
    119  N         33.6350   21.9200    5.5500 N.3   111  THR111     -0.1218
    120  CA        34.7220   22.5420    6.2800 C.3   111  THR111      0.1862
    121  C         34.2580   23.6590    7.2050 C.2   111  THR111      0.2287
    122  O         34.9440   23.9790    8.1620 O.2   111  THR111     -0.2866
    123  CB        35.8190   23.0120    5.2890 C.3   111  THR111      0.1770
    124  OG1       36.7820   23.7810    6.0220 O.3   111  THR111     -0.2211
    125  CG2       35.3960   23.9340    4.1730 C.3   111  THR111      0.0375
@<TRIPOS>BOND
     1    31    30   ar
     2    48    47    1
     3    48    49    1
     4    48    51    1
     5    52    51    1
     6    52    53    1
     7    30    32   ar
     8    30    29    1
     9    50    49    2
    10    53    54   ar
    11    53    55   ar
    12    28    27    2
    13    26    29    1
    14    26    27    1
    15    26    25    1
    16    27    33   am
    17    33    34    1
    18    36    35    2
    19    35    34    1
    20    34    37    1
    21     9    10    1
    22    12    11    2
    23    10    11    1
    24    10    13    1
    25    37    38    1
    26    20    19    2
    27    19    18    1
    28    11    17   am
    29    39    38   ar
    30    39    41   ar
    31    14    13    1
    32    14    16    1
    33    38    40   ar
    34    17    18    1
    35    13    15    1
    36    18    21    1
    37    41    42   ar
    38    40    42   ar
    39    40    43   ar
    40   102   100    1
    41    42    44   ar
    42   103   101    1
    43    21    22    1
    44    43    45   ar
    45     4     3    2
    46     1     2    1
    47    22    23    1
    48    22    24    1
    49     3     2    1
    50   100   101    1
    51   100    97    1
    52    95    94    1
    53    93    91   ar
    54    93    94   ar
    55    44    46   ar
    56     2     5    1
    57    45    46   ar
    58    91    89   ar
    59    94    92   ar
    60    97    98    1
    61    97    96    1
    62    99    98    2
    63    98   104   am
    64     5     6    1
    65    96    86   am
    66    89    88    1
    67    89    90   ar
    68    92    90   ar
    69   118   116   ar
    70    88    85    1
    71     6     7    1
    72    86    87    2
    73    86    85    1
    74    83    81   am
    75   104   105    1
    76    74    72    1
    77    81    80    1
    78    81    82    2
    79    85    84    1
    80   116   117   ar
    81   116   115    1
    82    80    79    1
    83   105   106    1
    84   105   108    1
    85    73    72    1
    86    72    71    1
    87    78    77    2
    88   110   108    1
    89   111   106   am
    90   111   112    1
    91    70    69    2
    92     7     8    1
    93    76    79    1
    94    76    77    1
    95    76    75    1
    96   115   112    1
    97   106   107    2
    98   112   113    1
    99   108   109    1
   100    69    75   am
   101    69    68    1
   102    71    68    1
   103    68    67    1
   104   113   114    2
   105   125   123    1
   106    59    58    2
   107    60    57    1
   108    60    61    1
   109   123   124    1
   110   123   120    1
   111    57    58    1
   112    57    56    1
   113   119   120    1
   114    61    62    1
   115    66    64    1
   116    63    64    2
   117    63    62    1
   118    64    65    1
   119   120   121    1
   120   121   122    2
