@<TRIPOS>MOLECULE
tmp/2whdB02.pdb
 85 80 0 0 0
SMALL
GASTEIGER

@<TRIPOS>ATOM
      1  N        -26.2080    1.8150   38.8620 N.3   162  GLY162     -0.1210
      2  CA       -24.8670    2.1790   38.4770 C.3   162  GLY162      0.1956
      3  C        -24.2130    3.0790   39.4920 C.2   162  GLY162      0.2612
      4  O        -24.7610    3.3380   40.5660 O.2   162  GLY162     -0.2717
      5  N        -23.0260    3.5640   39.1450 N.am  163  ASP163     -0.1959
      6  CA       -22.3270    4.5250   39.9790 C.3   163  ASP163      0.1840
      7  C        -23.1750    5.7760   40.0560 C.2   163  ASP163      0.2622
      8  O        -23.2640    6.4040   41.1000 O.2   163  ASP163     -0.2715
      9  CB       -20.9430    4.8300   39.4160 C.3   163  ASP163      0.1450
     10  CG       -19.9330    3.6950   39.6680 C.2   163  ASP163      0.3671
     11  OD1      -20.1990    2.8010   40.5070 O.co2 163  ASP163     -0.2456
     12  OD2      -18.8580    3.7090   39.0330 O.co2 163  ASP163     -0.2456
     13  N        -23.8320    6.1110   38.9550 N.am  164  SER164     -0.1950
     14  CA       -24.6580    7.3140   38.9040 C.3   164  SER164      0.1924
     15  C        -25.8050    7.2250   39.9000 C.2   164  SER164      0.2314
     16  O        -26.1190    8.1890   40.6180 O.2   164  SER164     -0.2863
     17  CB       -25.2220    7.5340   37.4970 C.3   164  SER164      0.2116
     18  OG       -24.2020    7.9750   36.6180 O.3   164  SER164     -0.2180
     19  N        -24.4940   -3.0720   39.8970 N.3   189  ARG189     -0.1231
     20  CA       -23.4410   -2.9830   38.8850 C.3   189  ARG189      0.1694
     21  C        -22.3210   -2.0110   39.2880 C.2   189  ARG189      0.2591
     22  O        -21.2200   -2.0610   38.7490 O.2   189  ARG189     -0.2718
     23  CB       -24.0720   -2.5370   37.5600 C.3   189  ARG189      0.0321
     24  CG       -23.1050   -2.3660   36.4100 C.3   189  ARG189      0.0489
     25  CD       -23.8460   -1.9690   35.1300 C.3   189  ARG189      0.2205
     26  NE       -24.0720   -0.5240   35.0260 N.pl3 189  ARG189     -0.0865
     27  CZ       -25.1830    0.1020   35.4160 C.cat 189  ARG189      0.5346
     28  NH1      -26.1920   -0.5880   35.9480 N.pl3 189  ARG189      0.1354
     29  NH2      -25.2860    1.4230   35.2740 N.pl3 189  ARG189      0.1354
     30  N        -22.6170   -1.1330   40.2430 N.am  190  ALA190     -0.1980
     31  CA       -21.7100   -0.0670   40.6530 C.3   190  ALA190      0.1597
     32  C        -20.4940   -0.6100   41.3750 C.2   190  ALA190      0.2287
     33  O        -20.4740   -1.7610   41.8210 O.2   190  ALA190     -0.2864
     34  CB       -22.4390    0.9130   41.5490 C.3   190  ALA190      0.0319
     35  N        -31.6710    7.1760   36.9190 N.3   248  ALA248     -0.1245
     36  CA       -30.2060    7.0900   36.9230 C.3   248  ALA248      0.1562
     37  C        -29.7770    5.7730   36.2870 C.2   248  ALA248      0.2260
     38  O        -29.0090    5.0130   36.8680 O.2   248  ALA248     -0.2867
     39  CB       -29.6530    7.2050   38.3470 C.3   248  ALA248      0.0290
     40  N        -28.2410    5.4110   33.1790 N.3   250  GLY250     -0.1210
     41  CA       -27.2490    5.5750   32.1310 C.3   250  GLY250      0.1956
     42  C        -27.6330    6.4520   30.9500 C.2   250  GLY250      0.2611
     43  O        -28.6900    7.0890   30.9560 O.2   250  GLY250     -0.2717
     44  N        -26.7660    6.4430   29.9300 N.am  251  HIS251     -0.1975
     45  CA       -26.8360    7.3310   28.7650 C.3   251  HIS251      0.1656
     46  C        -26.6550    6.4730   27.5310 C.2   251  HIS251      0.2291
     47  O        -25.9630    5.4670   27.5700 O.2   251  HIS251     -0.2864
     48  CB       -25.7730    8.4700   28.8630 C.3   251  HIS251      0.0771
     49  CG       -26.0610    9.4400   29.9770 C.ar  251  HIS251      0.0820
     50  ND1      -25.8760    9.1170   31.3110 N.ar  251  HIS251     -0.2267
     51  CD2      -26.6230   10.6760   29.9660 C.ar  251  HIS251      0.1154
     52  CE1      -26.2740   10.1270   32.0690 C.ar  251  HIS251      0.1986
     53  NE2      -26.7400   11.0830   31.2790 N.ar  251  HIS251     -0.2212
     54  N        -20.2900    3.2090   23.5650 N.3   269  TYR269     -0.1241
     55  CA       -19.3390    4.3190   23.4050 C.3   269  TYR269      0.1605
     56  C        -18.2050    3.9690   22.4550 C.2   269  TYR269      0.2264
     57  O        -17.7570    2.8280   22.3960 O.2   269  TYR269     -0.2867
     58  CB       -18.7600    4.8010   24.7660 C.3   269  TYR269      0.0534
     59  CG       -19.8250    5.4000   25.6430 C.ar  269  TYR269     -0.0201
     60  CD1      -20.7020    4.5850   26.3650 C.ar  269  TYR269     -0.0009
     61  CD2      -20.0020    6.7680   25.7130 C.ar  269  TYR269     -0.0009
     62  CE1      -21.7090    5.1250   27.1550 C.ar  269  TYR269      0.0417
     63  CE2      -21.0020    7.3250   26.5210 C.ar  269  TYR269      0.0417
     64  CZ       -21.8490    6.4980   27.2350 C.ar  269  TYR269      0.1957
     65  OH       -22.8350    7.0460   28.0190 O.3   269  TYR269     -0.2866
     66  N        -18.1830    8.4630   29.2750 N.3   293  LYS293     -0.1245
     67  CA       -19.3280    8.2880   30.1750 C.3   293  LYS293      0.1561
     68  C        -18.9660    8.6760   31.5970 C.2   293  LYS293      0.2260
     69  O        -19.8140    8.6340   32.4930 O.2   293  LYS293     -0.2867
     70  CB       -19.9260    6.8740   30.1060 C.3   293  LYS293      0.0271
     71  CG       -19.0780    5.7590   30.6990 C.3   293  LYS293      0.0035
     72  CD       -19.9640    4.5330   30.9350 C.3   293  LYS293      0.0206
     73  CE       -19.1940    3.2900   31.3520 C.3   293  LYS293      0.1093
     74  NZ       -18.2500    2.8510   30.2730 N.3   293  LYS293     -0.1314
     75  N        -18.7170   13.6340   31.1960 N.3   296  ARG296     -0.1245
     76  CA       -20.0240   14.0090   30.6830 C.3   296  ARG296      0.1563
     77  C        -20.3600   15.4480   30.9460 C.2   296  ARG296      0.2260
     78  O        -21.4740   15.7180   31.3660 O.2   296  ARG296     -0.2867
     79  CB       -21.1000   13.1840   31.3790 C.3   296  ARG296      0.0307
     80  CG       -21.1460   11.7210   30.9630 C.3   296  ARG296      0.0489
     81  CD       -22.4150   11.0230   31.5010 C.3   296  ARG296      0.2205
     82  NE       -22.1780   10.4480   32.8130 N.pl3 296  ARG296     -0.0865
     83  CZ       -22.7430   10.8880   33.9250 C.cat 296  ARG296      0.5346
     84  NH1      -23.6120   11.8950   33.8740 N.pl3 296  ARG296      0.1354
     85  NH2      -22.4510   10.3090   35.0810 N.pl3 296  ARG296      0.1354
@<TRIPOS>BOND
     1    57    56    2
     2    56    55    1
     3    55    54    1
     4    55    58    1
     5    58    59    1
     6    59    61   ar
     7    59    60   ar
     8    61    63   ar
     9    60    62   ar
    10    63    64   ar
    11    62    64   ar
    12    64    65    1
    13    46    47    2
    14    46    45    1
    15    45    48    1
    16    45    44    1
    17    48    49    1
    18    66    67    1
    19    44    42   am
    20    51    49   ar
    21    51    53   ar
    22    49    50   ar
    23    70    67    1
    24    70    71    1
    25    67    68    1
    26    74    73    1
    27    76    77    1
    28    76    75    1
    29    76    79    1
    30    71    72    1
    31    72    73    1
    32    77    78    2
    33    42    43    2
    34    42    41    1
    35    80    79    1
    36    80    81    1
    37    53    52   ar
    38    50    52   ar
    39    81    82    1
    40    68    69    2
    41    41    40    1
    42    82    83    2
    43    84    83    1
    44    83    85    1
    45    26    25    1
    46    26    27    2
    47    25    24    1
    48    29    27    1
    49    27    28    1
    50    37    38    2
    51    37    36    1
    52    24    23    1
    53    18    17    1
    54    35    36    1
    55    36    39    1
    56    17    14    1
    57    23    20    1
    58     2     1    1
    59     2     3    1
    60    22    21    2
    61    20    21    1
    62    20    19    1
    63    14    13    1
    64    14    15    1
    65    13     7   am
    66    12    10   ar
    67     5     3   am
    68     5     6    1
    69    21    30   am
    70     9    10    1
    71     9     6    1
    72     3     4    2
    73    10    11   ar
    74    15    16    2
    75     6     7    1
    76     7     8    2
    77    30    31    1
    78    31    32    1
    79    31    34    1
    80    32    33    2
