@<TRIPOS>MOLECULE
tmp/2whdB01.pdb
 94 89 0 0 0
SMALL
GASTEIGER

@<TRIPOS>ATOM
      1  N        -30.9810    7.8400   29.3330 N.3   123  ARG123     -0.1245
      2  CA       -32.0020    6.7990   29.2260 C.3   123  ARG123      0.1563
      3  C        -33.1410    7.0240   30.1950 C.2   123  ARG123      0.2260
      4  O        -32.9250    7.5470   31.2970 O.2   123  ARG123     -0.2867
      5  CB       -31.4020    5.4250   29.5160 C.3   123  ARG123      0.0307
      6  CG       -30.6590    4.8250   28.3710 C.3   123  ARG123      0.0489
      7  CD       -29.4290    4.0910   28.8300 C.3   123  ARG123      0.2205
      8  NE       -29.5010    2.7010   28.4210 N.pl3 123  ARG123     -0.0865
      9  CZ       -30.2320    1.7880   29.0610 C.cat 123  ARG123      0.5346
     10  NH1      -30.9320    2.1440   30.1270 N.pl3 123  ARG123      0.1354
     11  NH2      -30.2650    0.5240   28.6450 N.pl3 123  ARG123      0.1354
     12  N        -37.3310    5.1820   31.3790 N.3   125  LEU125     -0.1245
     13  CA       -38.2890    4.1000   31.2320 C.3   125  LEU125      0.1561
     14  C        -39.6400    4.6920   30.8680 C.2   125  LEU125      0.2260
     15  O        -39.8770    5.8890   31.0880 O.2   125  LEU125     -0.2867
     16  CB       -38.3920    3.2690   32.5130 C.3   125  LEU125      0.0270
     17  CG       -37.0690    2.5810   32.8410 C.3   125  LEU125      0.0019
     18  CD1      -37.1010    1.9300   34.1990 C.3   125  LEU125      0.0001
     19  CD2      -36.7140    1.5710   31.7380 C.3   125  LEU125      0.0001
     20  N        -34.1600    5.3120   40.2640 N.3   159  ILE159     -0.1231
     21  CA       -34.0810    4.0070   39.6200 C.3   159  ILE159      0.1692
     22  C        -32.7170    3.8120   38.9630 C.2   159  ILE159      0.2593
     23  O        -32.2380    4.6900   38.2360 O.2   159  ILE159     -0.2718
     24  CB       -35.1580    3.8550   38.5400 C.3   159  ILE159      0.0266
     25  CG1      -36.5550    4.0110   39.1250 C.3   159  ILE159      0.0019
     26  CG2      -35.0200    2.5080   37.8020 C.3   159  ILE159      0.0020
     27  CD1      -37.6440    3.9410   38.0080 C.3   159  ILE159      0.0001
     28  N        -32.1040    2.6560   39.1830 N.am  160  GLY160     -0.1942
     29  CA       -30.8310    2.3450   38.5510 C.3   160  GLY160      0.2014
     30  C        -29.8960    1.5980   39.4890 C.2   160  GLY160      0.2639
     31  O        -30.1690    1.4430   40.6900 O.2   160  GLY160     -0.2714
     32  N        -28.7890    1.1020   38.9520 N.am  161  GLY161     -0.1954
     33  CA       -27.8750    0.3360   39.7800 C.3   161  GLY161      0.1869
     34  C        -26.4330    0.6600   39.4750 C.2   161  GLY161      0.2309
     35  O        -25.5370   -0.1190   39.7830 O.2   161  GLY161     -0.2863
     36  N        -34.1580    1.9860   43.5510 N.3   182  ILE182     -0.1231
     37  CA       -34.9280    0.8300   43.0550 C.3   182  ILE182      0.1692
     38  C        -34.2220    0.1710   41.8690 C.2   182  ILE182      0.2592
     39  O        -33.9490    0.8190   40.8690 O.2   182  ILE182     -0.2718
     40  CB       -36.3390    1.2450   42.6150 C.3   182  ILE182      0.0266
     41  CG1      -37.0410    2.0170   43.7330 C.3   182  ILE182      0.0019
     42  CG2      -37.1650    0.0310   42.1760 C.3   182  ILE182      0.0020
     43  CD1      -38.4170    2.5260   43.3630 C.3   182  ILE182      0.0001
     44  N        -33.9250   -1.1160   41.9830 N.am  183  HIS183     -0.1962
     45  CA       -33.1110   -1.8020   40.9860 C.3   183  HIS183      0.1787
     46  C        -33.6910   -3.1860   40.6890 C.2   183  HIS183      0.2620
     47  O        -34.2530   -3.8310   41.5530 O.2   183  HIS183     -0.2715
     48  CB       -31.6700   -1.8880   41.4880 C.3   183  HIS183      0.0785
     49  CG       -30.7290   -2.5950   40.5600 C.ar  183  HIS183      0.0821
     50  ND1      -30.5210   -2.1960   39.2610 N.ar  183  HIS183     -0.2267
     51  CD2      -29.9030   -3.6530   40.7670 C.ar  183  HIS183      0.1154
     52  CE1      -29.6220   -2.9890   38.6960 C.ar  183  HIS183      0.1986
     53  NE2      -29.2330   -3.8780   39.5880 N.ar  183  HIS183     -0.2212
     54  N        -33.5690   -3.6320   39.4490 N.am  184  ARG184     -0.1963
     55  CA       -34.2330   -4.8550   39.0100 C.3   184  ARG184      0.1729
     56  C        -33.6480   -6.1060   39.6620 C.2   184  ARG184      0.2616
     57  O        -34.3540   -7.0880   39.8760 O.2   184  ARG184     -0.2715
     58  CB       -34.1430   -4.9610   37.4900 C.3   184  ARG184      0.0348
     59  CG       -35.2620   -5.7400   36.8480 C.3   184  ARG184      0.0492
     60  CD       -35.1880   -5.6530   35.3340 C.3   184  ARG184      0.2205
     61  NE       -33.8230   -5.8630   34.8670 N.pl3 184  ARG184     -0.0865
     62  CZ       -33.4830   -6.0110   33.5920 C.cat 184  ARG184      0.5346
     63  NH1      -34.4160   -5.9760   32.6470 N.pl3 184  ARG184      0.1354
     64  NH2      -32.2090   -6.1970   33.2620 N.pl3 184  ARG184      0.1354
     65  N        -32.3550   -6.0660   39.9740 N.am  185  ARG185     -0.1977
     66  CA       -31.6650   -7.2280   40.5360 C.3   185  ARG185      0.1597
     67  C        -31.4380   -7.1010   42.0340 C.2   185  ARG185      0.2287
     68  O        -31.9260   -6.1710   42.6740 O.2   185  ARG185     -0.2864
     69  CB       -30.3460   -7.4920   39.7980 C.3   185  ARG185      0.0334
     70  CG       -30.5710   -7.7780   38.3190 C.3   185  ARG185      0.0492
     71  CD       -29.2820   -8.0450   37.5740 C.3   185  ARG185      0.2205
     72  NE       -29.3600   -7.4990   36.2180 N.pl3 185  ARG185     -0.0865
     73  CZ       -30.0440   -8.0560   35.2220 C.cat 185  ARG185      0.5346
     74  NH1      -30.7100   -9.1890   35.4220 N.pl3 185  ARG185      0.1354
     75  NH2      -30.0610   -7.4820   34.0230 N.pl3 185  ARG185      0.1354
     76  N        -24.4940   -3.0720   39.8970 N.3   189  ARG189     -0.1245
     77  CA       -23.4410   -2.9830   38.8850 C.3   189  ARG189      0.1563
     78  C        -22.3210   -2.0110   39.2880 C.2   189  ARG189      0.2260
     79  O        -21.2200   -2.0610   38.7490 O.2   189  ARG189     -0.2867
     80  CB       -24.0720   -2.5370   37.5600 C.3   189  ARG189      0.0307
     81  CG       -23.1050   -2.3660   36.4100 C.3   189  ARG189      0.0489
     82  CD       -23.8460   -1.9690   35.1300 C.3   189  ARG189      0.2205
     83  NE       -24.0720   -0.5240   35.0260 N.pl3 189  ARG189     -0.0865
     84  CZ       -25.1830    0.1020   35.4160 C.cat 189  ARG189      0.5346
     85  NH1      -26.1920   -0.5880   35.9480 N.pl3 189  ARG189      0.1354
     86  NH2      -25.2860    1.4230   35.2740 N.pl3 189  ARG189      0.1354
     87  N        -30.2690    5.5260   35.0740 N.3   249  ILE249     -0.1245
     88  CA       -30.0230    4.2650   34.3930 C.3   249  ILE249      0.1561
     89  C        -29.1270    4.4140   33.1560 C.2   249  ILE249      0.2260
     90  O        -29.2320    3.6280   32.2120 O.2   249  ILE249     -0.2867
     91  CB       -31.3520    3.5350   34.0500 C.3   249  ILE249      0.0252
     92  CG1      -32.0330    4.1420   32.8330 C.3   249  ILE249      0.0019
     93  CG2      -32.3250    3.5980   35.2320 C.3   249  ILE249      0.0019
     94  CD1      -33.1820    5.0440   33.1600 C.3   249  ILE249      0.0001
@<TRIPOS>BOND
     1     6     7    1
     2     6     5    1
     3     8     7    1
     4     8     9    2
     5    11     9    1
     6     9    10    1
     7     2     1    1
     8     2     5    1
     9     2     3    1
    10     3     4    2
    11    14    15    2
    12    14    13    1
    13    13    12    1
    14    13    16    1
    15    19    17    1
    16    90    89    2
    17    16    17    1
    18    63    62    1
    19    92    94    1
    20    92    91    1
    21    17    18    1
    22    89    88    1
    23    64    62    1
    24    62    61    2
    25    75    73    1
    26    91    88    1
    27    91    93    1
    28    88    87    1
    29    61    60    1
    30    83    82    1
    31    83    84    2
    32    82    81    1
    33    73    74    1
    34    73    72    2
    35    86    84    1
    36    60    59    1
    37    84    85    1
    38    72    71    1
    39    81    80    1
    40    59    58    1
    41    58    55    1
    42    80    77    1
    43    71    70    1
    44    26    24    1
    45    27    25    1
    46    23    22    2
    47    70    69    1
    48    24    25    1
    49    24    21    1
    50    29    28    1
    51    29    30    1
    52    52    50   ar
    53    52    53   ar
    54    79    78    2
    55    77    78    1
    56    77    76    1
    57    32    30   am
    58    32    33    1
    59    22    28   am
    60    22    21    1
    61    55    54    1
    62    55    56    1
    63    50    49   ar
    64    54    46   am
    65    34    33    1
    66    34    35    2
    67    30    31    2
    68    53    51   ar
    69    21    20    1
    70    56    57    2
    71    56    65   am
    72    69    66    1
    73    65    66    1
    74    66    67    1
    75    49    51   ar
    76    49    48    1
    77    46    45    1
    78    46    47    2
    79    39    38    2
    80    45    48    1
    81    45    44    1
    82    38    44   am
    83    38    37    1
    84    67    68    2
    85    42    40    1
    86    40    37    1
    87    40    41    1
    88    37    36    1
    89    43    41    1
