@<TRIPOS>MOLECULE
tmp/2whfA01.pdb
 134 125 0 0 0
SMALL
GASTEIGER

@<TRIPOS>ATOM
      1  N         71.1710   12.3180   13.0940 N.3    66  LEU66      -0.1231
      2  CA        69.7930   11.8620   12.9960 C.3    66  LEU66       0.1693
      3  C         69.6090   10.5180   12.2790 C.2    66  LEU66       0.2592
      4  O         68.4830   10.1280   12.0110 O.2    66  LEU66      -0.2718
      5  CB        68.9200   12.9220   12.3180 C.3    66  LEU66       0.0284
      6  CG        68.9910   14.2890   13.0310 C.3    66  LEU66       0.0019
      7  CD1       68.4050   15.3700   12.1590 C.3    66  LEU66       0.0001
      8  CD2       68.3330   14.2330   14.3840 C.3    66  LEU66       0.0001
      9  N         70.7060    9.8540   11.9480 N.am   67  THR67      -0.1953
     10  CA        70.6270    8.5340   11.3170 C.3    67  THR67       0.1897
     11  C         71.0330    7.4760   12.3080 C.2    67  THR67       0.2313
     12  O         71.4990    7.7800   13.4170 O.2    67  THR67      -0.2863
     13  CB        71.5460    8.4450   10.0740 C.3    67  THR67       0.1794
     14  OG1       72.9090    8.2830   10.4790 O.3    67  THR67      -0.2208
     15  CG2       71.4230    9.6760    9.1530 C.3    67  THR67       0.0378
     16  N         78.2450    9.4690   11.9670 N.3    72  GLU72      -0.1245
     17  CA        77.5870   10.3680   10.9990 C.3    72  GLU72       0.1567
     18  C         78.1360   11.7960   10.9460 C.2    72  GLU72       0.2260
     19  O         78.4290   12.3260    9.8600 O.2    72  GLU72      -0.2867
     20  CB        76.1110   10.4520   11.3810 C.3    72  GLU72       0.0388
     21  CG        75.2790   11.3840   10.5670 C.3    72  GLU72       0.1160
     22  CD        73.9000   11.4660   11.1430 C.2    72  GLU72       0.3649
     23  OE1       73.5620   10.5390   11.9500 O.co2  72  GLU72      -0.2457
     24  OE2       73.1750   12.4480   10.8090 O.co2  72  GLU72      -0.2457
     25  N         80.1300   17.8300   10.0180 N.3    78  LEU78      -0.1245
     26  CA        79.2370   18.8470   10.6020 C.3    78  LEU78       0.1561
     27  C         79.4820   19.1400   12.1010 C.2    78  LEU78       0.2260
     28  O         78.6530   19.7640   12.7870 O.2    78  LEU78      -0.2867
     29  CB        77.7850   18.4120   10.3930 C.3    78  LEU78       0.0270
     30  CG        76.9050   19.0080    9.2900 C.3    78  LEU78       0.0019
     31  CD1       77.6420   19.7550    8.2160 C.3    78  LEU78       0.0001
     32  CD2       75.9640   17.9610    8.7530 C.3    78  LEU78       0.0001
     33  N         74.0850   21.9080   12.1830 N.3    83  PRO83      -0.2116
     34  CA        72.8230   22.5930   11.8880 C.3    83  PRO83       0.1372
     35  C         71.8970   22.5010   13.0600 C.2    83  PRO83       0.2244
     36  O         72.1210   21.7250   13.9920 O.2    83  PRO83      -0.2868
     37  CB        72.2800   21.8330   10.6960 C.3    83  PRO83       0.0268
     38  CG        72.8830   20.4390   10.8650 C.3    83  PRO83       0.0207
     39  CD        74.2280   20.6300   11.4630 C.3    83  PRO83       0.0892
     40  N         69.1100   21.2770   13.4580 N.3    85  VAL85      -0.1231
     41  CA        68.4240   19.9750   13.7010 C.3    85  VAL85       0.1692
     42  C         69.3260   18.9850   14.4470 C.2    85  VAL85       0.2591
     43  O         68.8850   17.9000   14.8500 O.2    85  VAL85      -0.2718
     44  CB        67.9440   19.2940   12.3790 C.3    85  VAL85       0.0266
     45  CG1       66.9060   20.1050   11.6820 C.3    85  VAL85       0.0020
     46  CG2       69.0960   18.9800   11.4490 C.3    85  VAL85       0.0020
     47  N         70.5960   19.3590   14.6090 N.am   86  MET86      -0.1979
     48  CA        71.5640   18.5190   15.3350 C.3    86  MET86       0.1605
     49  C         72.1260   19.2790   16.5220 C.2    86  MET86       0.2287
     50  O         73.2600   18.9970   16.9740 O.2    86  MET86      -0.2864
     51  CB        72.6910   18.0160   14.4110 C.3    86  MET86       0.0413
     52  CG        72.2060   17.1030   13.2730 C.3    86  MET86       0.0598
     53  SD        73.4940   16.6690   12.0840 S.3    86  MET86      -0.1393
     54  CE        72.5160   15.8630   10.8050 C.3    86  MET86       0.0692
     55  N         71.1660   25.3110    4.2420 N.3   228  PHE228     -0.1227
     56  CA        71.2520   23.9080    3.8930 C.3   228  PHE228      0.1736
     57  C         70.1750   23.0680    4.5850 C.2   228  PHE228      0.2596
     58  O         69.6080   22.1570    3.9890 O.2   228  PHE228     -0.2718
     59  CB        72.6020   23.3680    4.2900 C.3   228  PHE228      0.0547
     60  CG        73.2630   22.7110    3.1830 C.ar  228  PHE228     -0.0202
     61  CD1       73.2410   21.3380    3.0610 C.ar  228  PHE228     -0.0042
     62  CD2       73.7580   23.4720    2.1550 C.ar  228  PHE228     -0.0042
     63  CE1       73.8220   20.7130    1.9470 C.ar  228  PHE228     -0.0003
     64  CE2       74.3490   22.8960    1.0530 C.ar  228  PHE228     -0.0003
     65  CZ        74.3780   21.5030    0.9430 C.ar  228  PHE228     -0.0000
     66  N         69.8950   23.3640    5.8360 N.am  229  THR229     -0.1953
     67  CA        68.7920   22.6840    6.5090 C.3   229  THR229      0.1897
     68  C         67.5050   22.9020    5.7440 C.2   229  THR229      0.2313
     69  O         66.6830   21.9960    5.5670 O.2   229  THR229     -0.2863
     70  CB        68.6730   23.2310    7.9310 C.3   229  THR229      0.1794
     71  OG1       69.8710   22.9400    8.6720 O.3   229  THR229     -0.2208
     72  CG2       67.4610   22.6450    8.6830 C.3   229  THR229      0.0378
     73  N         67.6650   20.9280    2.3190 N.3   232  THR232     -0.1203
     74  CA        67.6690   19.4870    2.4640 C.3   232  THR232      0.1994
     75  C         66.4350   18.9470    3.1630 C.2   232  THR232      0.2618
     76  O         66.1850   17.7290    3.0640 O.2   232  THR232     -0.2717
     77  CB        68.8970   18.9660    3.2420 C.3   232  THR232      0.1784
     78  OG1       68.9120   19.5250    4.5540 O.3   232  THR232     -0.2211
     79  CG2       70.1680   19.2910    2.4940 C.3   232  THR232      0.0376
     80  N         65.7320   19.7870    3.9110 N.am  233  GLY233     -0.1942
     81  CA        64.5230   19.3190    4.6260 C.3   233  GLY233      0.2014
     82  C         63.1790   19.7890    4.0770 C.2   233  GLY233      0.2639
     83  O         62.1470   19.2280    4.4190 O.2   233  GLY233     -0.2714
     84  N         63.1840   20.8080    3.2160 N.am  234  GLY234     -0.1954
     85  CA        61.9190   21.4110    2.7960 C.3   234  GLY234      0.1869
     86  C         61.4310   21.0550    1.3960 C.2   234  GLY234      0.2309
     87  O         60.3980   21.5470    0.9610 O.2   234  GLY234     -0.2863
     88  N         60.6520   16.1750    1.2840 N.3   237  THR237     -0.1218
     89  CA        59.5330   15.8840    2.1650 C.3   237  THR237      0.1862
     90  C         58.1920   16.2850    1.5390 C.2   237  THR237      0.2287
     91  O         57.2410   15.5000    1.5620 O.2   237  THR237     -0.2866
     92  CB        59.7180   16.6370    3.4530 C.3   237  THR237      0.1770
     93  OG1       60.0280   18.0130    3.1700 O.3   237  THR237     -0.2211
     94  CG2       60.8850   16.0750    4.2460 C.3   237  THR237      0.0375
     95  N         58.7750   12.1010    6.4150 N.3   280  VAL280     -0.1245
     96  CA        59.8690   11.7000    7.2830 C.3   280  VAL280      0.1561
     97  C         59.3200   10.4910    8.0450 C.2   280  VAL280      0.2260
     98  O         58.5780   10.6070    9.0390 O.2   280  VAL280     -0.2867
     99  CB        60.3140   12.8030    8.2160 C.3   280  VAL280      0.0252
    100  CG1       61.4310   12.2430    9.0810 C.3   280  VAL280      0.0019
    101  CG2       60.7950   13.9900    7.3530 C.3   280  VAL280      0.0019
    102  N         63.5590    9.2940   12.1020 N.3   283  LEU283     -0.1245
    103  CA        64.8440    9.9410   12.3270 C.3   283  LEU283      0.1561
    104  C         65.3100    9.4220   13.6880 C.2   283  LEU283      0.2260
    105  O         64.4850    8.9560   14.5260 O.2   283  LEU283     -0.2867
    106  CB        64.7330   11.4720   12.3390 C.3   283  LEU283      0.0270
    107  CG        64.4900   12.1530   10.9840 C.3   283  LEU283      0.0019
    108  CD1       64.2540   13.6800   11.1220 C.3   283  LEU283      0.0001
    109  CD2       65.5750   11.8740    9.9090 C.3   283  LEU283      0.0001
    110  N         58.7980   20.8000   13.2560 N.3   344  CYS344     -0.1235
    111  CA        59.0850   21.4170   11.9460 C.3   344  CYS344      0.1677
    112  C         58.6400   22.8560   11.8220 C.2   344  CYS344      0.2270
    113  O         57.4520   23.1710   12.0270 O.2   344  CYS344     -0.2867
    114  CB        58.3650   20.6750   10.8440 C.3   344  CYS344      0.0956
    115  SG        58.6650   21.2990    9.2130 S.3   344  CYS344     -0.0801
    116  N         65.2100    7.2450    5.3240 N.3   382  TYR382     -0.1227
    117  CA        64.5300    8.1090    6.2970 C.3   382  TYR382      0.1736
    118  C         63.3210    8.8490    5.7530 C.2   382  TYR382      0.2595
    119  O         62.2990    8.9690    6.4510 O.2   382  TYR382     -0.2718
    120  CB        65.5430    9.0900    6.9150 C.3   382  TYR382      0.0548
    121  CG        66.6130    8.2830    7.5620 C.ar  382  TYR382     -0.0200
    122  CD1       66.4130    7.7290    8.8310 C.ar  382  TYR382     -0.0009
    123  CD2       67.7870    7.9930    6.8760 C.ar  382  TYR382     -0.0009
    124  CE1       67.3950    6.9290    9.4080 C.ar  382  TYR382      0.0417
    125  CE2       68.7780    7.2010    7.4490 C.ar  382  TYR382      0.0417
    126  CZ        68.5590    6.6550    8.6920 C.ar  382  TYR382      0.1957
    127  OH        69.5460    5.8610    9.2350 O.3   382  TYR382     -0.2866
    128  N         63.4310    9.2900    4.4970 N.am  383  VAL383     -0.1980
    129  CA        62.3410   10.0080    3.8240 C.3   383  VAL383      0.1595
    130  C         61.7470    9.1490    2.7070 C.2   383  VAL383      0.2287
    131  O         62.4810    8.6440    1.8620 O.2   383  VAL383     -0.2864
    132  CB        62.8530   11.3330    3.2260 C.3   383  VAL383      0.0276
    133  CG1       61.7710   11.9800    2.3950 C.3   383  VAL383      0.0022
    134  CG2       63.2840   12.3080    4.3590 C.3   383  VAL383      0.0022
@<TRIPOS>BOND
     1    65    64   ar
     2    65    63   ar
     3    87    86    2
     4    64    62   ar
     5    88    89    1
     6    86    85    1
     7    90    91    2
     8    90    89    1
     9   131   130    2
    10    63    61   ar
    11    62    60   ar
    12    89    92    1
    13    73    74    1
    14   133   132    1
    15    74    75    1
    16    74    77    1
    17    79    77    1
    18   130   129    1
    19    85    84    1
    20    61    60   ar
    21    76    75    2
    22    75    80   am
    23    93    92    1
    24    60    59    1
    25    84    82   am
    26   132   129    1
    27   132   134    1
    28    77    78    1
    29    92    94    1
    30   129   128    1
    31    56    55    1
    32    56    59    1
    33    56    57    1
    34    80    81    1
    35    58    57    2
    36    82    83    2
    37    82    81    1
    38   128   118   am
    39    57    66   am
    40   116   117    1
    41    69    68    2
    42    68    67    1
    43   118   117    1
    44   118   119    2
    45    66    67    1
    46   117   120    1
    47    95    96    1
    48    67    70    1
    49   123   125   ar
    50   123   121   ar
    51   120   121    1
    52    96    97    1
    53    96    99    1
    54   101    99    1
    55   125   126   ar
    56   121   122   ar
    57    70    71    1
    58    70    72    1
    59    97    98    2
    60    99   100    1
    61    31    30    1
    62   126   127    1
    63   126   124   ar
    64    32    30    1
    65   122   124   ar
    66    15    13    1
    67   115   114    1
    68    30    29    1
    69    19    18    2
    70   109   107    1
    71    25    26    1
    72    13    14    1
    73    13    10    1
    74    29    26    1
    75    21    22    1
    76    21    20    1
    77    26    27    1
    78    37    38    1
    79    37    34    1
    80    54    53    1
    81    24    22   ar
    82   114   111    1
    83    38    39    1
    84    18    17    1
    85   107   108    1
    86   107   106    1
    87    17    20    1
    88    17    16    1
    89    22    23   ar
    90    10     9    1
    91    10    11    1
    92    46    44    1
    93    39    33    1
    94    45    44    1
    95   112   111    1
    96   112   113    2
    97    34    33    1
    98    34    35    1
    99   111   110    1
   100     9     3   am
   101     4     3    2
   102    53    52    1
   103    27    28    2
   104   102   103    1
   105     7     6    1
   106     3     2    1
   107    11    12    2
   108     5     2    1
   109     5     6    1
   110   103   106    1
   111   103   104    1
   112    44    41    1
   113     2     1    1
   114     6     8    1
   115    35    36    2
   116    52    51    1
   117    40    41    1
   118   104   105    2
   119    41    42    1
   120    51    48    1
   121    42    47   am
   122    42    43    2
   123    47    48    1
   124    48    49    1
   125    49    50    2
