@<TRIPOS>MOLECULE
tmp/2whfA02.pdb
 114 104 0 0 0
SMALL
GASTEIGER

@<TRIPOS>ATOM
      1  N         80.1210   13.3060    7.7010 N.3    76  ILE76      -0.1245
      2  CA        79.6090   14.3710    6.8260 C.3    76  ILE76       0.1561
      3  C         80.3930   15.6690    7.0750 C.2    76  ILE76       0.2260
      4  O         80.4440   16.5500    6.2080 O.2    76  ILE76      -0.2867
      5  CB        78.0950   14.6120    7.0110 C.3    76  ILE76       0.0252
      6  CG1       77.8000   15.1360    8.4090 C.3    76  ILE76       0.0019
      7  CG2       77.2970   13.3220    6.8000 C.3    76  ILE76       0.0019
      8  CD1       76.3380   15.0080    8.8140 C.3    76  ILE76       0.0001
      9  N         80.1300   17.8300   10.0180 N.3    78  LEU78      -0.1245
     10  CA        79.2370   18.8470   10.6020 C.3    78  LEU78       0.1561
     11  C         79.4820   19.1400   12.1010 C.2    78  LEU78       0.2260
     12  O         78.6530   19.7640   12.7870 O.2    78  LEU78      -0.2867
     13  CB        77.7850   18.4120   10.3930 C.3    78  LEU78       0.0270
     14  CG        76.9050   19.0080    9.2900 C.3    78  LEU78       0.0019
     15  CD1       77.6420   19.7550    8.2160 C.3    78  LEU78       0.0001
     16  CD2       75.9640   17.9610    8.7530 C.3    78  LEU78       0.0001
     17  N         80.2060   23.3990   13.1070 N.3    81  THR81      -0.1218
     18  CA        79.0490   24.2750   12.9790 C.3    81  THR81       0.1862
     19  C         77.8660   23.3870   12.5950 C.2    81  THR81       0.2287
     20  O         77.4650   23.3470   11.4290 O.2    81  THR81      -0.2866
     21  CB        79.2970   25.4050   11.9200 C.3    81  THR81       0.1770
     22  OG1       80.4530   26.1680   12.3080 O.3    81  THR81      -0.2211
     23  CG2       78.0940   26.3520   11.8020 C.3    81  THR81       0.0375
     24  N         74.0850   21.9080   12.1830 N.3    83  PRO83      -0.2116
     25  CA        72.8230   22.5930   11.8880 C.3    83  PRO83       0.1372
     26  C         71.8970   22.5010   13.0600 C.2    83  PRO83       0.2244
     27  O         72.1210   21.7250   13.9920 O.2    83  PRO83      -0.2868
     28  CB        72.2800   21.8330   10.6960 C.3    83  PRO83       0.0268
     29  CG        72.8830   20.4390   10.8650 C.3    83  PRO83       0.0207
     30  CD        74.2280   20.6300   11.4630 C.3    83  PRO83       0.0892
     31  N         69.1100   21.2770   13.4580 N.3    85  VAL85      -0.1231
     32  CA        68.4240   19.9750   13.7010 C.3    85  VAL85       0.1692
     33  C         69.3260   18.9850   14.4470 C.2    85  VAL85       0.2591
     34  O         68.8850   17.9000   14.8500 O.2    85  VAL85      -0.2718
     35  CB        67.9440   19.2940   12.3790 C.3    85  VAL85       0.0266
     36  CG1       66.9060   20.1050   11.6820 C.3    85  VAL85       0.0020
     37  CG2       69.0960   18.9800   11.4490 C.3    85  VAL85       0.0020
     38  N         70.5960   19.3590   14.6090 N.am   86  MET86      -0.1979
     39  CA        71.5640   18.5190   15.3350 C.3    86  MET86       0.1605
     40  C         72.1260   19.2790   16.5220 C.2    86  MET86       0.2287
     41  O         73.2600   18.9970   16.9740 O.2    86  MET86      -0.2864
     42  CB        72.6910   18.0160   14.4110 C.3    86  MET86       0.0413
     43  CG        72.2060   17.1030   13.2730 C.3    86  MET86       0.0598
     44  SD        73.4940   16.6690   12.0840 S.3    86  MET86      -0.1393
     45  CE        72.5160   15.8630   10.8050 C.3    86  MET86       0.0692
     46  N         71.7110   14.0130   -1.4160 N.3   172  ASN172     -0.1240
     47  CA        71.4890   13.9010    0.0130 C.3   172  ASN172      0.1653
     48  C         70.5230   12.7720    0.3910 C.2   172  ASN172      0.2266
     49  O         70.3700   12.4380    1.5740 O.2   172  ASN172     -0.2867
     50  CB        70.9370   15.2420    0.5160 C.3   172  ASN172      0.1155
     51  CG        70.7300   15.2770    2.0110 C.2   172  ASN172      0.2627
     52  OD1       71.6830   15.4520    2.7740 O.2   172  ASN172     -0.2716
     53  ND2       69.4740   15.1470    2.4420 N.am  172  ASN172     -0.0877
     54  N         76.7660   23.0720   -3.8950 N.3   180  VAL180     -0.1245
     55  CA        77.0770   23.5310   -2.5670 C.3   180  VAL180      0.1561
     56  C         77.8650   24.8550   -2.5710 C.2   180  VAL180      0.2260
     57  O         77.5570   25.7960   -1.8070 O.2   180  VAL180     -0.2867
     58  CB        77.7760   22.4340   -1.7520 C.3   180  VAL180      0.0252
     59  CG1       77.9990   22.8850   -0.3110 C.3   180  VAL180      0.0019
     60  CG2       76.9540   21.1790   -1.7790 C.3   180  VAL180      0.0019
     61  N         76.6230   28.3990   -1.3220 N.3   184  MET184     -0.1245
     62  CA        77.3030   29.0740   -0.2540 C.3   184  MET184      0.1570
     63  C         77.8430   30.4540   -0.7230 C.2   184  MET184      0.2261
     64  O         77.7980   31.4110    0.0510 O.2   184  MET184     -0.2867
     65  CB        78.2760   28.0990    0.4680 C.3   184  MET184      0.0387
     66  CG        77.7330   27.5110    1.8830 C.3   184  MET184      0.0595
     67  SD        75.9540   27.1490    2.2550 S.3   184  MET184     -0.1393
     68  CE        75.5980   25.4600    1.6860 C.3   184  MET184      0.0692
     69  N         78.3110   31.6290    9.4530 N.3   221  LEU221     -0.1245
     70  CA        78.3310   30.2060    9.1390 C.3   221  LEU221      0.1561
     71  C         77.0190   29.5030    9.5140 C.2   221  LEU221      0.2260
     72  O         76.5600   28.6060    8.8090 O.2   221  LEU221     -0.2867
     73  CB        79.4400   29.5220    9.9180 C.3   221  LEU221      0.0270
     74  CG        80.7180   30.2340    9.5210 C.3   221  LEU221      0.0019
     75  CD1       81.8270   29.9450   10.5410 C.3   221  LEU221      0.0001
     76  CD2       81.0390   29.8000    8.0920 C.3   221  LEU221      0.0001
     77  N         74.4670   30.1340    6.9360 N.3   224  LEU224     -0.1231
     78  CA        74.7250   29.2460    5.8100 C.3   224  LEU224      0.1693
     79  C         74.2420   27.8120    6.0900 C.2   224  LEU224      0.2591
     80  O         73.6350   27.1610    5.2230 O.2   224  LEU224     -0.2718
     81  CB        76.2240   29.2750    5.4340 C.3   224  LEU224      0.0284
     82  CG        76.5900   30.6950    4.9650 C.3   224  LEU224      0.0019
     83  CD1       78.1160   30.9090    4.9410 C.3   224  LEU224      0.0001
     84  CD2       75.9860   31.0000    3.5930 C.3   224  LEU224      0.0001
     85  N         74.4940   27.3160    7.3060 N.am  225  ALA225     -0.1980
     86  CA        74.1040   25.9440    7.6360 C.3   225  ALA225      0.1597
     87  C         72.5580   25.8580    7.5800 C.2   225  ALA225      0.2287
     88  O         71.9790   24.8290    7.1620 O.2   225  ALA225     -0.2864
     89  CB        74.6160   25.5530    9.0520 C.3   225  ALA225      0.0319
     90  N         71.1660   25.3110    4.2420 N.3   228  PHE228     -0.1227
     91  CA        71.2520   23.9080    3.8930 C.3   228  PHE228      0.1736
     92  C         70.1750   23.0680    4.5850 C.2   228  PHE228      0.2596
     93  O         69.6080   22.1570    3.9890 O.2   228  PHE228     -0.2718
     94  CB        72.6020   23.3680    4.2900 C.3   228  PHE228      0.0547
     95  CG        73.2630   22.7110    3.1830 C.ar  228  PHE228     -0.0202
     96  CD1       73.2410   21.3380    3.0610 C.ar  228  PHE228     -0.0042
     97  CD2       73.7580   23.4720    2.1550 C.ar  228  PHE228     -0.0042
     98  CE1       73.8220   20.7130    1.9470 C.ar  228  PHE228     -0.0003
     99  CE2       74.3490   22.8960    1.0530 C.ar  228  PHE228     -0.0003
    100  CZ        74.3780   21.5030    0.9430 C.ar  228  PHE228     -0.0000
    101  N         69.8950   23.3640    5.8360 N.am  229  THR229     -0.1953
    102  CA        68.7920   22.6840    6.5090 C.3   229  THR229      0.1897
    103  C         67.5050   22.9020    5.7440 C.2   229  THR229      0.2313
    104  O         66.6830   21.9960    5.5670 O.2   229  THR229     -0.2863
    105  CB        68.6730   23.2310    7.9310 C.3   229  THR229      0.1794
    106  OG1       69.8710   22.9400    8.6720 O.3   229  THR229     -0.2208
    107  CG2       67.4610   22.6450    8.6830 C.3   229  THR229      0.0378
    108  N         67.6650   20.9280    2.3190 N.3   232  THR232     -0.1218
    109  CA        67.6690   19.4870    2.4640 C.3   232  THR232      0.1862
    110  C         66.4350   18.9470    3.1630 C.2   232  THR232      0.2287
    111  O         66.1850   17.7290    3.0640 O.2   232  THR232     -0.2866
    112  CB        68.8970   18.9660    3.2420 C.3   232  THR232      0.1770
    113  OG1       68.9120   19.5250    4.5540 O.3   232  THR232     -0.2211
    114  CG2       70.1680   19.2910    2.4940 C.3   232  THR232      0.0375
@<TRIPOS>BOND
     1    54    55    1
     2    56    55    1
     3    56    57    2
     4    55    58    1
     5    60    58    1
     6    58    59    1
     7    46    47    1
     8    61    62    1
     9    63    62    1
    10    63    64    2
    11    62    65    1
    12    47    48    1
    13    47    50    1
    14    48    49    2
    15    65    66    1
    16    50    51    1
    17   100    99   ar
    18   100    98   ar
    19    99    97   ar
    20    68    67    1
    21    66    67    1
    22    98    96   ar
    23    51    53   am
    24    51    52    2
    25    97    95   ar
    26   108   109    1
    27   109   110    1
    28   109   112    1
    29   114   112    1
    30    96    95   ar
    31   111   110    2
    32    95    94    1
    33   112   113    1
    34    84    82    1
    35    91    90    1
    36    91    94    1
    37    91    92    1
    38    93    92    2
    39    92   101   am
    40    83    82    1
    41    82    81    1
    42    80    79    2
    43    81    78    1
    44   104   103    2
    45   103   102    1
    46    78    79    1
    47    78    77    1
    48   101   102    1
    49    79    85   am
    50     4     3    2
    51   102   105    1
    52     7     5    1
    53     2     5    1
    54     2     3    1
    55     2     1    1
    56     5     6    1
    57    88    87    2
    58    85    86    1
    59    87    86    1
    60    86    89    1
    61   105   106    1
    62   105   107    1
    63    76    74    1
    64    15    14    1
    65     6     8    1
    66    16    14    1
    67    72    71    2
    68    70    69    1
    69    70    71    1
    70    70    73    1
    71    14    13    1
    72    74    73    1
    73    74    75    1
    74     9    10    1
    75    13    10    1
    76    10    11    1
    77    28    29    1
    78    28    25    1
    79    45    44    1
    80    29    30    1
    81    20    19    2
    82    37    35    1
    83    30    24    1
    84    36    35    1
    85    23    21    1
    86    25    24    1
    87    25    26    1
    88    21    22    1
    89    21    18    1
    90    44    43    1
    91    11    12    2
    92    35    32    1
    93    19    18    1
    94    18    17    1
    95    26    27    2
    96    43    42    1
    97    31    32    1
    98    32    33    1
    99    42    39    1
   100    33    38   am
   101    33    34    2
   102    38    39    1
   103    39    40    1
   104    40    41    2
