@<TRIPOS>MOLECULE
tmp/2whgB00.pdb
 122 120 0 0 0
SMALL
GASTEIGER

@<TRIPOS>ATOM
      1  N         30.8290   -2.5900  -23.6580 N.3    31  PHE31      -0.1241
      2  CA        29.3530   -2.6880  -23.7390 C.3    31  PHE31       0.1605
      3  C         28.9300   -2.8670  -25.1970 C.2    31  PHE31       0.2264
      4  O         29.3520   -2.0940  -26.0800 O.2    31  PHE31      -0.2867
      5  CB        28.6470   -1.4730  -23.0820 C.3    31  PHE31       0.0534
      6  CG        27.1450   -1.4200  -23.3250 C.ar   31  PHE31      -0.0203
      7  CD1       26.6090   -0.5500  -24.2850 C.ar   31  PHE31      -0.0042
      8  CD2       26.2740   -2.2240  -22.5940 C.ar   31  PHE31      -0.0042
      9  CE1       25.2190   -0.5050  -24.5410 C.ar   31  PHE31      -0.0003
     10  CE2       24.8690   -2.1850  -22.8250 C.ar   31  PHE31      -0.0003
     11  CZ        24.3420   -1.3260  -23.7960 C.ar   31  PHE31      -0.0000
     12  N         32.9190    2.1070  -24.2500 N.3    36  TYR36      -0.1241
     13  CA        32.2980    3.4000  -23.9700 C.3    36  TYR36       0.1605
     14  C         32.9610    4.1150  -22.7650 C.2    36  TYR36       0.2264
     15  O         33.3320    3.4730  -21.7630 O.2    36  TYR36      -0.2867
     16  CB        30.7970    3.2380  -23.6580 C.3    36  TYR36       0.0534
     17  CG        29.8850    2.7870  -24.7910 C.ar   36  TYR36      -0.0201
     18  CD1       29.9850    1.5030  -25.3380 C.ar   36  TYR36      -0.0009
     19  CD2       28.8860    3.6250  -25.2810 C.ar   36  TYR36      -0.0009
     20  CE1       29.1310    1.0710  -26.3740 C.ar   36  TYR36       0.0417
     21  CE2       28.0280    3.2080  -26.3230 C.ar   36  TYR36       0.0417
     22  CZ        28.1560    1.9190  -26.8560 C.ar   36  TYR36       0.1957
     23  OH        27.3160    1.5130  -27.8700 O.3    36  TYR36      -0.2866
     24  N         30.7730    2.6520  -13.1450 N.3    56  TRP56      -0.1241
     25  CA        30.3870    1.5460  -14.0520 C.3    56  TRP56       0.1605
     26  C         31.1320    0.2270  -13.7790 C.2    56  TRP56       0.2264
     27  O         31.9650   -0.2200  -14.5740 O.2    56  TRP56      -0.2867
     28  CB        30.5230    1.9480  -15.5430 C.3    56  TRP56       0.0550
     29  CG        29.6950    1.1130  -16.5150 C.ar   56  TRP56       0.0003
     30  CD1       29.0410   -0.0680  -16.2650 C.ar   56  TRP56       0.0946
     31  CD2       29.4710    1.4030  -17.9070 C.ar   56  TRP56       0.0152
     32  NE1       28.4160   -0.5220  -17.4140 N.ar   56  TRP56      -0.2442
     33  CE2       28.6590    0.3610  -18.4330 C.ar   56  TRP56       0.0810
     34  CE3       29.8730    2.4460  -18.7630 C.ar   56  TRP56       0.0012
     35  CZ2       28.2530    0.3270  -19.7860 C.ar   56  TRP56       0.0191
     36  CZ3       29.4520    2.4110  -20.1200 C.ar   56  TRP56       0.0001
     37  CH2       28.6600    1.3590  -20.6040 C.ar   56  TRP56       0.0015
     38  N         19.8750    6.3520  -12.2050 N.3    83  HIS83      -0.1241
     39  CA        18.9690    5.2910  -12.6950 C.3    83  HIS83       0.1621
     40  C         19.5520    3.8920  -12.4940 C.2    83  HIS83       0.2264
     41  O         20.5920    3.7370  -11.8330 O.2    83  HIS83      -0.2867
     42  CB        18.4150    5.5420  -14.1140 C.3    83  HIS83       0.0745
     43  CG        19.4180    5.3800  -15.2180 C.ar   83  HIS83       0.0817
     44  ND1       20.2580    6.3940  -15.6150 N.ar   83  HIS83      -0.2268
     45  CD2       19.6870    4.3260  -16.0310 C.ar   83  HIS83       0.1154
     46  CE1       21.0090    5.9710  -16.6150 C.ar   83  HIS83       0.1986
     47  NE2       20.6870    4.7170  -16.8820 N.ar   83  HIS83      -0.2212
     48  N         20.5940    1.2310  -14.3740 N.3    85  HIS85      -0.1226
     49  CA        21.5790    0.5140  -15.2120 C.3    85  HIS85       0.1752
     50  C         22.9300    0.4140  -14.5320 C.2    85  HIS85       0.2596
     51  O         23.2080    1.1620  -13.5950 O.2    85  HIS85      -0.2718
     52  CB        21.7230    1.1730  -16.5940 C.3    85  HIS85       0.0759
     53  CG        20.5240    0.9790  -17.4800 C.ar   85  HIS85       0.0818
     54  ND1       20.1760    1.8710  -18.4710 N.ar   85  HIS85      -0.2268
     55  CD2       19.5900   -0.0010  -17.5120 C.ar   85  HIS85       0.1154
     56  CE1       19.0800    1.4490  -19.0790 C.ar   85  HIS85       0.1986
     57  NE2       18.6980    0.3210  -18.5080 N.ar   85  HIS85      -0.2212
     58  N         23.7680   -0.4970  -15.0150 N.am   86  ASP86      -0.1960
     59  CA        25.0830   -0.7330  -14.4190 C.3    86  ASP86       0.1840
     60  C         26.0630    0.4410  -14.4100 C.2    86  ASP86       0.2622
     61  O         27.0050    0.4660  -13.6050 O.2    86  ASP86      -0.2715
     62  CB        25.7470   -1.9600  -15.0600 C.3    86  ASP86       0.1450
     63  CG        25.0080   -3.2370  -14.7550 C.2    86  ASP86       0.3671
     64  OD1       24.7420   -3.9940  -15.7170 O.co2  86  ASP86      -0.2456
     65  OD2       24.6830   -3.4730  -13.5630 O.co2  86  ASP86      -0.2456
     66  N         25.8710    1.4010  -15.3080 N.am   87  ASP87      -0.1971
     67  CA        26.7630    2.5630  -15.3280 C.3    87  ASP87       0.1709
     68  C         26.3840    3.5840  -14.2210 C.2    87  ASP87       0.2293
     69  O         27.0190    4.6430  -14.0840 O.2    87  ASP87      -0.2864
     70  CB        26.8520    3.2020  -16.7350 C.3    87  ASP87       0.1436
     71  CG        25.5530    3.8410  -17.1940 C.2    87  ASP87       0.3671
     72  OD1       24.4840    3.5090  -16.6590 O.co2  87  ASP87      -0.2456
     73  OD2       25.6050    4.6810  -18.1200 O.co2  87  ASP87      -0.2456
     74  N         15.4120    8.3350  -21.3360 N.3   148  HIS148     -0.1241
     75  CA        16.3140    7.2020  -21.4940 C.3   148  HIS148      0.1621
     76  C         15.8170    5.9660  -20.7240 C.2   148  HIS148      0.2264
     77  O         15.9300    4.8230  -21.2010 O.2   148  HIS148     -0.2867
     78  CB        17.7300    7.5900  -21.0270 C.3   148  HIS148      0.0745
     79  CG        18.6580    6.4260  -20.8760 C.ar  148  HIS148      0.0817
     80  ND1       19.3960    5.9230  -21.9280 N.ar  148  HIS148     -0.2268
     81  CD2       18.9510    5.6530  -19.8050 C.ar  148  HIS148      0.1154
     82  CE1       20.1230    4.9050  -21.5060 C.ar  148  HIS148      0.1986
     83  NE2       19.8750    4.7230  -20.2210 N.ar  148  HIS148     -0.2212
     84  N         21.9640    9.8650  -18.4200 N.3   167  CYS167     -0.1235
     85  CA        21.8260    9.2020  -19.7260 C.3   167  CYS167      0.1677
     86  C         20.6500    9.6960  -20.5680 C.2   167  CYS167      0.2270
     87  O         20.5020    9.3290  -21.7480 O.2   167  CYS167     -0.2867
     88  CB        21.8260    7.6870  -19.5610 C.3   167  CYS167      0.0956
     89  SG        23.4350    7.0960  -18.9800 S.3   167  CYS167     -0.0801
     90  N         27.4130   12.3820  -30.4190 N.3   174  ARG174     -0.1245
     91  CA        26.4860   11.2740  -30.5530 C.3   174  ARG174      0.1563
     92  C         25.4290   11.6390  -31.6000 C.2   174  ARG174      0.2260
     93  O         24.8630   12.7350  -31.5590 O.2   174  ARG174     -0.2867
     94  CB        25.8120   10.9860  -29.2080 C.3   174  ARG174      0.0307
     95  CG        24.8800    9.8070  -29.2380 C.3   174  ARG174      0.0489
     96  CD        24.5040    9.3640  -27.8550 C.3   174  ARG174      0.2205
     97  NE        25.1950    8.1450  -27.4340 N.pl3 174  ARG174     -0.0865
     98  CZ        24.8980    7.4790  -26.3190 C.cat 174  ARG174      0.5346
     99  NH1       23.9370    7.9280  -25.5130 N.pl3 174  ARG174      0.1354
    100  NH2       25.5590    6.3630  -25.9980 N.pl3 174  ARG174      0.1354
    101  N         21.5590    6.4590  -28.3490 N.3   178  GLY178     -0.1210
    102  CA        22.1610    5.5300  -27.3880 C.3   178  GLY178      0.1956
    103  C         21.3970    4.2180  -27.2720 C.2   178  GLY178      0.2611
    104  O         20.7230    3.7850  -28.2200 O.2   178  GLY178     -0.2717
    105  N         21.5160    3.5840  -26.1070 N.am  179  ASN179     -0.1974
    106  CA        20.7600    2.3760  -25.8010 C.3   179  ASN179      0.1688
    107  C         19.2980    2.7480  -25.5040 C.2   179  ASN179      0.2292
    108  O         19.0240    3.4870  -24.5590 O.2   179  ASN179     -0.2864
    109  CB        21.4150    1.6320  -24.6330 C.3   179  ASN179      0.1181
    110  CG        20.5440    0.5360  -24.0660 C.2   179  ASN179      0.2629
    111  OD1       19.8630   -0.1940  -24.8070 O.2   179  ASN179     -0.2716
    112  ND2       20.5560    0.4030  -22.7370 N.am  179  ASN179     -0.0877
    113  N         27.3180   10.1190  -20.9250 N.3   209  HIS209     -0.1241
    114  CA        28.5290    9.6930  -21.6100 C.3   209  HIS209      0.1621
    115  C         29.0870   10.8280  -22.4690 C.2   209  HIS209      0.2264
    116  O         28.3370   11.4880  -23.2060 O.2   209  HIS209     -0.2867
    117  CB        28.2040    8.4700  -22.4980 C.3   209  HIS209      0.0745
    118  CG        27.5530    7.3390  -21.7470 C.ar  209  HIS209      0.0817
    119  ND1       28.2670    6.2700  -21.2370 N.ar  209  HIS209     -0.2268
    120  CD2       26.2600    7.1300  -21.3940 C.ar  209  HIS209      0.1154
    121  CE1       27.4390    5.4520  -20.6030 C.ar  209  HIS209      0.1986
    122  NE2       26.2190    5.9470  -20.6850 N.ar  209  HIS209     -0.2212
@<TRIPOS>BOND
     1    92    93    2
     2    92    91    1
     3    91    90    1
     4    91    94    1
     5    95    94    1
     6    95    96    1
     7   101   102    1
     8   104   103    2
     9    23    22    1
    10    96    97    1
    11    97    98    2
    12   102   103    1
    13   103   105   am
    14    22    20   ar
    15    22    21   ar
    16    20    18   ar
    17    21    19   ar
    18    98   100    1
    19    98    99    1
    20   105   106    1
    21     4     3    2
    22   106   107    1
    23   106   109    1
    24   107   108    2
    25    18    17   ar
    26    19    17   ar
    27     3     2    1
    28   111   110    2
    29    17    16    1
    30   109   110    1
    31     9     7   ar
    32     9    11   ar
    33     7     6   ar
    34    12    13    1
    35   110   112   am
    36    13    16    1
    37    13    14    1
    38    11    10   ar
    39     2     1    1
    40     2     5    1
    41     6     5    1
    42     6     8   ar
    43   116   115    2
    44    10     8   ar
    45    14    15    2
    46   117   118    1
    47   117   114    1
    48   115   114    1
    49    80    82   ar
    50    80    79   ar
    51    87    86    2
    52   118   120   ar
    53   118   119   ar
    54   114   113    1
    55    82    83   ar
    56    75    74    1
    57    75    78    1
    58    75    76    1
    59   120   122   ar
    60   119   121   ar
    61    77    76    2
    62    78    79    1
    63    79    81   ar
    64   122   121   ar
    65    37    36   ar
    66    37    35   ar
    67    86    85    1
    68    83    81   ar
    69    36    34   ar
    70    35    33   ar
    71    85    88    1
    72    85    84    1
    73    88    89    1
    74    56    57   ar
    75    56    54   ar
    76    34    31   ar
    77    57    55   ar
    78    54    53   ar
    79    33    31   ar
    80    33    32   ar
    81    73    71   ar
    82    31    29   ar
    83    55    53   ar
    84    53    52    1
    85    32    30   ar
    86    71    70    1
    87    71    72   ar
    88    47    46   ar
    89    47    45   ar
    90    70    67    1
    91    46    44   ar
    92    52    49    1
    93    29    30   ar
    94    29    28    1
    95    45    43   ar
    96    64    63   ar
    97    44    43   ar
    98    28    25    1
    99    67    66    1
   100    67    68    1
   101    66    60   am
   102    43    42    1
   103    49    50    1
   104    49    48    1
   105    62    63    1
   106    62    59    1
   107    58    50   am
   108    58    59    1
   109    63    65   ar
   110    27    26    2
   111    50    51    2
   112    59    60    1
   113    60    61    2
   114    68    69    2
   115    42    39    1
   116    25    26    1
   117    25    24    1
   118    39    40    1
   119    39    38    1
   120    40    41    2
