@<TRIPOS>MOLECULE
tmp/2whhA03.pdb
 107 98 0 0 0
SMALL
GASTEIGER

@<TRIPOS>ATOM
      1  N         16.2480   21.1150    2.4950 N.3    25  ASP25      -0.1239
      2  CA        14.9130   21.0190    1.8950 C.3    25  ASP25       0.1674
      3  C         13.8990   22.0390    2.4330 C.2    25  ASP25       0.2266
      4  O         13.2450   21.7830    3.4450 O.2    25  ASP25      -0.2867
      5  CB        14.4180   19.5950    2.1470 C.3    25  ASP25       0.1410
      6  CG        13.1230   19.2560    1.4150 C.2    25  ASP25       0.3668
      7  OD1       12.4180   20.1560    0.9180 O.co2  25  ASP25      -0.2456
      8  OD2       12.8130   18.0510    1.3630 O.co2  25  ASP25      -0.2456
      9  N         11.0380   22.6520    1.4800 N.3    27  GLY27      -0.1210
     10  CA         9.6860   22.1550    1.4460 C.3    27  GLY27       0.1956
     11  C          9.3700   21.2020    2.5770 C.2    27  GLY27       0.2612
     12  O          8.2500   20.7230    2.6670 O.2    27  GLY27      -0.2717
     13  N         10.3350   20.9310    3.4490 N.am   28  ALA28      -0.1965
     14  CA        10.1120   20.0030    4.5540 C.3    28  ALA28       0.1728
     15  C         10.0090   20.7320    5.9020 C.2    28  ALA28       0.2616
     16  O         10.8760   21.5240    6.2660 O.2    28  ALA28      -0.2715
     17  CB        11.2560   18.9610    4.5940 C.3    28  ALA28       0.0334
     18  N          8.9450   20.4410    6.6520 N.am   29  ASP29      -0.1971
     19  CA         8.7880   21.1000    7.9480 C.3    29  ASP29       0.1709
     20  C          9.7920   20.4860    8.9090 C.2    29  ASP29       0.2293
     21  O         10.3330   21.1770    9.7660 O.2    29  ASP29      -0.2864
     22  CB         7.4010   20.8540    8.5620 C.3    29  ASP29       0.1436
     23  CG         6.2690   21.4180    7.7360 C.2    29  ASP29       0.3671
     24  OD1        6.4930   22.3730    6.9530 O.co2  29  ASP29      -0.2456
     25  OD2        5.1400   20.8890    7.8990 O.co2  29  ASP29      -0.2456
     26  N          4.0820   12.4790    6.6530 N.3    48  GLY48      -0.1210
     27  CA         3.7000   12.2600    5.2740 C.3    48  GLY48       0.1956
     28  C          4.5080   13.0170    4.2470 C.2    48  GLY48       0.2612
     29  O          5.2650   13.9130    4.5920 O.2    48  GLY48      -0.2717
     30  N          4.3350   12.6370    2.9840 N.am   49  GLY49      -0.1942
     31  CA         5.0100   13.2940    1.8820 C.3    49  GLY49       0.2014
     32  C          4.3290   12.8380    0.6080 C.2    49  GLY49       0.2638
     33  O          3.2170   12.3090    0.6360 O.2    49  GLY49      -0.2714
     34  N          4.9680   13.0570   -0.5270 N.am   50  ILE50      -0.1977
     35  CA         4.3860   12.5770   -1.7640 C.3    50  ILE50       0.1596
     36  C          4.5870   11.0650   -1.6790 C.2    50  ILE50       0.2287
     37  O          5.6620   10.6040   -1.2990 O.2    50  ILE50      -0.2864
     38  CB         5.1550   13.1050   -2.9920 C.3    50  ILE50       0.0276
     39  CG1        4.6330   14.4780   -3.3850 C.3    50  ILE50       0.0022
     40  CG2        4.9770   12.1560   -4.1730 C.3    50  ILE50       0.0022
     41  CD1        5.3020   15.0290   -4.6340 C.3    50  ILE50       0.0001
     42  N          6.3230   28.1770    6.1920 N.3   107  ARG107     -0.1245
     43  CA         6.5220   27.5540    4.8740 C.3   107  ARG107      0.1563
     44  C          6.6430   28.6560    3.8420 C.2   107  ARG107      0.2260
     45  O          5.9040   29.6410    3.8700 O.2   107  ARG107     -0.2867
     46  CB         5.3540   26.6600    4.5060 C.3   107  ARG107      0.0307
     47  CG         5.1980   25.4730    5.4230 C.3   107  ARG107      0.0489
     48  CD         4.0920   24.5490    4.9340 C.3   107  ARG107      0.2205
     49  NE         3.9710   23.4080    5.8320 N.pl3 107  ARG107     -0.0865
     50  CZ         3.0740   22.4380    5.6930 C.cat 107  ARG107      0.5346
     51  NH1        2.2150   22.4770    4.6800 N.pl3 107  ARG107      0.1354
     52  NH2        3.0350   21.4360    6.5680 N.pl3 107  ARG107      0.1354
     53  N          4.4860   25.8120   -2.7830 N.3   122  LEU122     -0.1245
     54  CA         5.6030   25.8470   -1.8620 C.3   122  LEU122      0.1561
     55  C          6.9150   25.8460   -2.6160 C.2   122  LEU122      0.2260
     56  O          7.0790   25.0240   -3.5170 O.2   122  LEU122     -0.2867
     57  CB         5.4830   24.6040   -0.9710 C.3   122  LEU122      0.0270
     58  CG         6.4890   24.2600    0.1150 C.3   122  LEU122      0.0019
     59  CD1        6.3020   25.2550    1.2570 C.3   122  LEU122      0.0001
     60  CD2        6.2700   22.8220    0.6110 C.3   122  LEU122      0.0001
     61  N         10.2000   24.6380   -2.9700 N.3   124  ASP124     -0.1239
     62  CA        10.7660   23.4150   -2.3910 C.3   124  ASP124      0.1674
     63  C         12.1350   23.0310   -2.9490 C.2   124  ASP124      0.2266
     64  O         12.2210   22.3950   -4.0090 O.2   124  ASP124     -0.2867
     65  CB         9.7510   22.2980   -2.6470 C.3   124  ASP124      0.1410
     66  CG        10.1080   20.9790   -1.9640 C.2   124  ASP124      0.3668
     67  OD1        9.2640   20.0750   -2.0330 O.co2 124  ASP124     -0.2456
     68  OD2       11.2040   20.8310   -1.3750 O.co2 124  ASP124     -0.2456
     69  N         14.0750   20.8010   -2.0020 N.3   126  GLY126     -0.1210
     70  CA        14.3370   19.3790   -1.9600 C.3   126  GLY126      0.1956
     71  C         13.6640   18.6410   -3.0920 C.2   126  GLY126      0.2611
     72  O         13.8080   17.4310   -3.2130 O.2   126  GLY126     -0.2717
     73  N         12.9330   19.3610   -3.9400 N.am  127  ALA127     -0.1979
     74  CA        12.2300   18.7070   -5.0300 C.3   127  ALA127      0.1597
     75  C         12.9340   18.9730   -6.3620 C.2   127  ALA127      0.2287
     76  O         13.2400   20.1110   -6.7000 O.2   127  ALA127     -0.2864
     77  CB        10.7550   19.1960   -5.0750 C.3   127  ALA127      0.0319
     78  N          8.9060   10.8770   -0.0660 N.3   149  ILE149     -0.1245
     79  CA         9.1200   10.2530    1.2130 C.3   149  ILE149      0.1561
     80  C          8.2290    9.0650    1.5720 C.2   149  ILE149      0.2260
     81  O          8.6490    8.2040    2.3500 O.2   149  ILE149     -0.2867
     82  CB         9.0470   11.3210    2.3160 C.3   149  ILE149      0.0252
     83  CG1       10.0790   11.0170    3.3940 C.3   149  ILE149      0.0019
     84  CG2        7.6530   11.3790    2.9010 C.3   149  ILE149      0.0019
     85  CD1       10.2950   12.1640    4.3530 C.3   149  ILE149      0.0001
     86  N          0.1040   16.0770   -2.0790 N.3   180  PRO180     -0.2102
     87  CA        -0.6930   16.7300   -1.0350 C.3   180  PRO180      0.1504
     88  C         -0.5880   18.2610   -1.0590 C.2   180  PRO180      0.2575
     89  O         -1.4630   18.9550   -0.5460 O.2   180  PRO180     -0.2718
     90  CB        -0.1300   16.1360    0.2520 C.3   180  PRO180      0.0282
     91  CG         1.2910   15.7590   -0.1200 C.3   180  PRO180      0.0208
     92  CD         1.1330   15.1940   -1.5040 C.3   180  PRO180      0.0893
     93  N          0.4790   18.7800   -1.6610 N.am  181  VAL181     -0.1980
     94  CA         0.6830   20.2270   -1.7390 C.3   181  VAL181      0.1595
     95  C          1.3590   20.5960   -3.0500 C.2   181  VAL181      0.2287
     96  O          2.1520   19.8210   -3.5740 O.2   181  VAL181     -0.2864
     97  CB         1.5570   20.7370   -0.5600 C.3   181  VAL181      0.0276
     98  CG1        0.8560   20.4660    0.7720 C.3   181  VAL181      0.0022
     99  CG2        2.9170   20.0630   -0.5790 C.3   181  VAL181      0.0022
    100  N          3.9940   22.0190   -5.2790 N.3   183  ILE183     -0.1245
    101  CA         5.4220   22.2310   -5.0450 C.3   183  ILE183      0.1561
    102  C          6.1590   22.8070   -6.2590 C.2   183  ILE183      0.2260
    103  O          6.0040   22.3110   -7.3730 O.2   183  ILE183     -0.2867
    104  CB         6.1140   20.8900   -4.6930 C.3   183  ILE183      0.0252
    105  CG1        5.6710   20.4140   -3.3010 C.3   183  ILE183      0.0019
    106  CG2        7.6290   21.0280   -4.8270 C.3   183  ILE183      0.0019
    107  CD1        6.3220   21.1340   -2.1570 C.3   183  ILE183      0.0001
@<TRIPOS>BOND
     1   103   102    2
     2    76    75    2
     3    75    74    1
     4   102   101    1
     5   100   101    1
     6    77    74    1
     7   101   104    1
     8    74    73    1
     9   106   104    1
    10   104   105    1
    11    41    39    1
    12    40    38    1
    13    64    63    2
    14    73    71   am
    15    96    95    2
    16    56    55    2
    17    39    38    1
    18   105   107    1
    19    72    71    2
    20    71    70    1
    21    95    94    1
    22    38    35    1
    23    61    62    1
    24    63    62    1
    25    53    54    1
    26    65    62    1
    27    65    66    1
    28    55    54    1
    29    86    92    1
    30    86    87    1
    31    67    66   ar
    32    69    70    1
    33    66    68   ar
    34    54    57    1
    35    35    36    1
    36    35    34    1
    37    94    93    1
    38    94    97    1
    39    36    37    2
    40    93    88   am
    41    92    91    1
    42    88    87    1
    43    88    89    2
    44    87    90    1
    45    57    58    1
    46    99    97    1
    47    97    98    1
    48    34    32   am
    49    91    90    1
    50    78    79    1
    51    58    60    1
    52    58    59    1
    53    32    33    2
    54    32    31    1
    55     7     6   ar
    56    79    80    1
    57    79    82    1
    58     8     6   ar
    59     6     5    1
    60    10     9    1
    61    10    11    1
    62    80    81    2
    63    31    30    1
    64     2     5    1
    65     2     3    1
    66     2     1    1
    67    82    84    1
    68    82    83    1
    69     3     4    2
    70    11    12    2
    71    11    13   am
    72    30    28   am
    73    83    85    1
    74    13    14    1
    75    44    45    2
    76    44    43    1
    77    28    29    2
    78    28    27    1
    79    46    43    1
    80    46    47    1
    81    14    17    1
    82    14    15    1
    83    51    50    1
    84    43    42    1
    85    48    47    1
    86    48    49    1
    87    27    26    1
    88    50    49    2
    89    50    52    1
    90    15    16    2
    91    15    18   am
    92    18    19    1
    93    24    23   ar
    94    23    25   ar
    95    23    22    1
    96    19    22    1
    97    19    20    1
    98    20    21    2
