@<TRIPOS>MOLECULE
tmp/2whhA00.pdb
 98 89 0 0 0
SMALL
GASTEIGER

@<TRIPOS>ATOM
      1  N         21.2030   19.5170   -6.7070 N.3     8  ARG8       -0.1245
      2  CA        20.5690   19.3770   -5.3820 C.3     8  ARG8        0.1563
      3  C         21.4720   20.0450   -4.3510 C.2     8  ARG8        0.2260
      4  O         22.6960   19.9020   -4.3830 O.2     8  ARG8       -0.2867
      5  CB        20.4000   17.9210   -4.9910 C.3     8  ARG8        0.0307
      6  CG        19.4370   17.1680   -5.8700 C.3     8  ARG8        0.0489
      7  CD        19.1690   15.7960   -5.3130 C.3     8  ARG8        0.2205
      8  NE        18.3040   15.0510   -6.2180 N.pl3   8  ARG8       -0.0865
      9  CZ        17.8580   13.8270   -5.9710 C.cat   8  ARG8        0.5346
     10  NH1       18.2030   13.2190   -4.8390 N.pl3   8  ARG8        0.1354
     11  NH2       17.0740   13.2160   -6.8510 N.pl3   8  ARG8        0.1354
     12  N         16.2480   21.1150    2.4950 N.3    25  ASP25      -0.1239
     13  CA        14.9130   21.0190    1.8950 C.3    25  ASP25       0.1674
     14  C         13.8990   22.0390    2.4330 C.2    25  ASP25       0.2266
     15  O         13.2450   21.7830    3.4450 O.2    25  ASP25      -0.2867
     16  CB        14.4180   19.5950    2.1470 C.3    25  ASP25       0.1410
     17  CG        13.1230   19.2560    1.4150 C.2    25  ASP25       0.3668
     18  OD1       12.4180   20.1560    0.9180 O.co2  25  ASP25      -0.2456
     19  OD2       12.8130   18.0510    1.3630 O.co2  25  ASP25      -0.2456
     20  N          4.9680   13.0570   -0.5270 N.3    50  ILE50      -0.1245
     21  CA         4.3860   12.5770   -1.7640 C.3    50  ILE50       0.1561
     22  C          4.5870   11.0650   -1.6790 C.2    50  ILE50       0.2260
     23  O          5.6620   10.6040   -1.2990 O.2    50  ILE50      -0.2867
     24  CB         5.1550   13.1050   -2.9920 C.3    50  ILE50       0.0252
     25  CG1        4.6330   14.4780   -3.3850 C.3    50  ILE50       0.0019
     26  CG2        4.9770   12.1560   -4.1730 C.3    50  ILE50       0.0019
     27  CD1        5.3020   15.0290   -4.6340 C.3    50  ILE50       0.0001
     28  N         16.0090    9.8450    1.1240 N.3    82  VAL82      -0.1245
     29  CA        17.1570   10.7460    1.2240 C.3    82  VAL82       0.1561
     30  C         17.1410   11.4750    2.5590 C.2    82  VAL82       0.2260
     31  O         16.0740   11.7250    3.1090 O.2    82  VAL82      -0.2867
     32  CB        17.1520   11.7980    0.0870 C.3    82  VAL82       0.0252
     33  CG1       17.5830   11.1570   -1.2230 C.3    82  VAL82       0.0019
     34  CG2       15.7550   12.4010   -0.0590 C.3    82  VAL82       0.0019
     35  N         10.2000   24.6380   -2.9700 N.3   124  ASP124     -0.1239
     36  CA        10.7660   23.4150   -2.3910 C.3   124  ASP124      0.1674
     37  C         12.1350   23.0310   -2.9490 C.2   124  ASP124      0.2266
     38  O         12.2210   22.3950   -4.0090 O.2   124  ASP124     -0.2867
     39  CB         9.7510   22.2980   -2.6470 C.3   124  ASP124      0.1410
     40  CG        10.1080   20.9790   -1.9640 C.2   124  ASP124      0.3668
     41  OD1        9.2640   20.0750   -2.0330 O.co2 124  ASP124     -0.2456
     42  OD2       11.2040   20.8310   -1.3750 O.co2 124  ASP124     -0.2456
     43  N         14.0750   20.8010   -2.0020 N.3   126  GLY126     -0.1210
     44  CA        14.3370   19.3790   -1.9600 C.3   126  GLY126      0.1956
     45  C         13.6640   18.6410   -3.0920 C.2   126  GLY126      0.2612
     46  O         13.8080   17.4310   -3.2130 O.2   126  GLY126     -0.2717
     47  N         12.9330   19.3610   -3.9400 N.am  127  ALA127     -0.1965
     48  CA        12.2300   18.7070   -5.0300 C.3   127  ALA127      0.1728
     49  C         12.9340   18.9730   -6.3620 C.2   127  ALA127      0.2616
     50  O         13.2400   20.1110   -6.7000 O.2   127  ALA127     -0.2715
     51  CB        10.7550   19.1960   -5.0750 C.3   127  ALA127      0.0334
     52  N         13.2010   17.9130   -7.1150 N.am  128  ASP128     -0.1957
     53  CA        13.8690   18.1020   -8.4140 C.3   128  ASP128      0.1840
     54  C         12.8610   18.6850   -9.3970 C.2   128  ASP128      0.2622
     55  O         13.2180   19.4870  -10.2720 O.2   128  ASP128     -0.2715
     56  CB        14.3000   16.7550   -8.9950 C.3   128  ASP128      0.1450
     57  CG        15.3850   16.0740   -8.1900 C.2   128  ASP128      0.3671
     58  OD1       15.5870   14.8650   -8.4270 O.co2 128  ASP128     -0.2456
     59  OD2       16.0240   16.7200   -7.3390 O.co2 128  ASP128     -0.2456
     60  N         11.6130   18.2560   -9.2430 N.am  129  ASP129     -0.1971
     61  CA        10.5350   18.6440  -10.1470 C.3   129  ASP129      0.1709
     62  C          9.4250   19.4830   -9.5290 C.2   129  ASP129      0.2293
     63  O          9.2760   19.5680   -8.3160 O.2   129  ASP129     -0.2864
     64  CB         9.8660   17.3920  -10.7100 C.3   129  ASP129      0.1436
     65  CG        10.8510   16.3950  -11.2430 C.2   129  ASP129      0.3671
     66  OD1       10.8130   15.2390  -10.7770 O.co2 129  ASP129     -0.2456
     67  OD2       11.6580   16.7650  -12.1220 O.co2 129  ASP129     -0.2456
     68  N          5.5110   19.8520   -8.9880 N.3   131  VAL131     -0.1245
     69  CA         4.3360   18.9760   -8.9160 C.3   131  VAL131      0.1561
     70  C          3.1070   19.7220   -8.3910 C.2   131  VAL131      0.2260
     71  O          3.1100   20.2210   -7.2730 O.2   131  VAL131     -0.2867
     72  CB         4.5850   17.7710   -7.9610 C.3   131  VAL131      0.0252
     73  CG1        3.5020   16.7120   -8.1670 C.3   131  VAL131      0.0019
     74  CG2        5.9590   17.1730   -8.2140 C.3   131  VAL131      0.0019
     75  N          6.6930    9.4410  -10.0140 N.3   146  ILE146     -0.1231
     76  CA         7.7200   10.1420   -9.2630 C.3   146  ILE146      0.1692
     77  C          7.6780    9.6440   -7.8310 C.2   146  ILE146      0.2593
     78  O          6.6500    9.1580   -7.3550 O.2   146  ILE146     -0.2718
     79  CB         7.5230   11.6960   -9.2790 C.3   146  ILE146      0.0266
     80  CG1        6.1110   12.0570   -8.8360 C.3   146  ILE146      0.0019
     81  CG2        7.8370   12.2470  -10.6700 C.3   146  ILE146      0.0020
     82  CD1        5.8620   13.5660   -8.7740 C.3   146  ILE146      0.0001
     83  N          8.8160    9.7380   -7.1580 N.am  147  GLY147     -0.1942
     84  CA         8.8740    9.2870   -5.7860 C.3   147  GLY147      0.2014
     85  C          9.0200   10.3860   -4.7650 C.2   147  GLY147      0.2639
     86  O          9.4610   11.4900   -5.0700 O.2   147  GLY147     -0.2714
     87  N          8.6390   10.0540   -3.5430 N.am  148  GLY148     -0.1954
     88  CA         8.7340   10.9830   -2.4480 C.3   148  GLY148      0.1869
     89  C          8.9340   10.1800   -1.1830 C.2   148  GLY148      0.2309
     90  O          9.0600    8.9510   -1.1950 O.2   148  GLY148     -0.2863
     91  N          3.9940   22.0190   -5.2790 N.3   183  ILE183     -0.1245
     92  CA         5.4220   22.2310   -5.0450 C.3   183  ILE183      0.1561
     93  C          6.1590   22.8070   -6.2590 C.2   183  ILE183      0.2260
     94  O          6.0040   22.3110   -7.3730 O.2   183  ILE183     -0.2867
     95  CB         6.1140   20.8900   -4.6930 C.3   183  ILE183      0.0252
     96  CG1        5.6710   20.4140   -3.3010 C.3   183  ILE183      0.0019
     97  CG2        7.6290   21.0280   -4.8270 C.3   183  ILE183      0.0019
     98  CD1        6.3220   21.1340   -2.1570 C.3   183  ILE183      0.0001
@<TRIPOS>BOND
     1    67    65   ar
     2    65    66   ar
     3    65    64    1
     4    64    61    1
     5    81    79    1
     6    55    54    2
     7    61    62    1
     8    61    60    1
     9    75    76    1
    10    62    63    2
    11    54    60   am
    12    54    53    1
    13    79    76    1
    14    79    80    1
    15    76    77    1
    16    56    53    1
    17    56    57    1
    18    68    69    1
    19    69    70    1
    20    69    72    1
    21    80    82    1
    22    58    57   ar
    23    53    52    1
    24    70    71    2
    25    74    72    1
    26    57    59   ar
    27    73    72    1
    28    77    78    2
    29    77    83   am
    30    94    93    2
    31    83    84    1
    32    52    49   am
    33    11     9    1
    34     1     2    1
    35    50    49    2
    36    49    48    1
    37    93    92    1
    38     8     9    2
    39     8     7    1
    40     9    10    1
    41     6     7    1
    42     6     5    1
    43    84    85    1
    44     2     5    1
    45     2     3    1
    46    91    92    1
    47    51    48    1
    48    86    85    2
    49    92    95    1
    50    48    47    1
    51    97    95    1
    52    85    87   am
    53    95    96    1
    54    27    25    1
    55     4     3    2
    56    26    24    1
    57    38    37    2
    58    47    45   am
    59    87    88    1
    60    25    24    1
    61    96    98    1
    62    46    45    2
    63    45    44    1
    64    24    21    1
    65    35    36    1
    66    37    36    1
    67    39    36    1
    68    39    40    1
    69    88    89    1
    70    41    40   ar
    71    43    44    1
    72    40    42   ar
    73    21    22    1
    74    21    20    1
    75    22    23    2
    76    33    32    1
    77    90    89    2
    78    34    32    1
    79    32    29    1
    80    18    17   ar
    81    28    29    1
    82    29    30    1
    83    19    17   ar
    84    17    16    1
    85    13    16    1
    86    13    14    1
    87    13    12    1
    88    14    15    2
    89    30    31    2
