@<TRIPOS>MOLECULE
tmp/2whhA01.pdb
 83 76 0 0 0
SMALL
GASTEIGER

@<TRIPOS>ATOM
      1  N         16.2480   21.1150    2.4950 N.3    25  ASP25      -0.1239
      2  CA        14.9130   21.0190    1.8950 C.3    25  ASP25       0.1674
      3  C         13.8990   22.0390    2.4330 C.2    25  ASP25       0.2266
      4  O         13.2450   21.7830    3.4450 O.2    25  ASP25      -0.2867
      5  CB        14.4180   19.5950    2.1470 C.3    25  ASP25       0.1410
      6  CG        13.1230   19.2560    1.4150 C.2    25  ASP25       0.3668
      7  OD1       12.4180   20.1560    0.9180 O.co2  25  ASP25      -0.2456
      8  OD2       12.8130   18.0510    1.3630 O.co2  25  ASP25      -0.2456
      9  N         11.0380   22.6520    1.4800 N.3    27  GLY27      -0.1210
     10  CA         9.6860   22.1550    1.4460 C.3    27  GLY27       0.1956
     11  C          9.3700   21.2020    2.5770 C.2    27  GLY27       0.2612
     12  O          8.2500   20.7230    2.6670 O.2    27  GLY27      -0.2717
     13  N         10.3350   20.9310    3.4490 N.am   28  ALA28      -0.1965
     14  CA        10.1120   20.0030    4.5540 C.3    28  ALA28       0.1728
     15  C         10.0090   20.7320    5.9020 C.2    28  ALA28       0.2616
     16  O         10.8760   21.5240    6.2660 O.2    28  ALA28      -0.2715
     17  CB        11.2560   18.9610    4.5940 C.3    28  ALA28       0.0334
     18  N          8.9450   20.4410    6.6520 N.am   29  ASP29      -0.1957
     19  CA         8.7880   21.1000    7.9480 C.3    29  ASP29       0.1840
     20  C          9.7920   20.4860    8.9090 C.2    29  ASP29       0.2622
     21  O         10.3330   21.1770    9.7660 O.2    29  ASP29      -0.2715
     22  CB         7.4010   20.8540    8.5620 C.3    29  ASP29       0.1450
     23  CG         6.2690   21.4180    7.7360 C.2    29  ASP29       0.3671
     24  OD1        6.4930   22.3730    6.9530 O.co2  29  ASP29      -0.2456
     25  OD2        5.1400   20.8890    7.8990 O.co2  29  ASP29      -0.2456
     26  N         10.0230   19.1900    8.7430 N.am   30  ASP30      -0.1971
     27  CA        10.9070   18.4390    9.6350 C.3    30  ASP30       0.1709
     28  C         12.1850   17.9080    9.0060 C.2    30  ASP30       0.2293
     29  O         12.3390   17.8420    7.7840 O.2    30  ASP30      -0.2864
     30  CB        10.1600   17.2290   10.1900 C.3    30  ASP30       0.1436
     31  CG         8.7780   17.5750   10.6740 C.2    30  ASP30       0.3671
     32  OD1        8.6610   18.4510   11.5520 O.co2  30  ASP30      -0.2456
     33  OD2        7.8210   16.9720   10.1620 O.co2  30  ASP30      -0.2456
     34  N         14.4890   14.6750    8.5040 N.3    32  VAL32      -0.1245
     35  CA        14.2970   13.2320    8.4540 C.3    32  VAL32       0.1561
     36  C         15.5340   12.5560    7.9160 C.2    32  VAL32       0.2260
     37  O         15.9710   12.8410    6.7920 O.2    32  VAL32      -0.2867
     38  CB        13.1200   12.8630    7.5170 C.3    32  VAL32       0.0252
     39  CG1       12.7650   11.3800    7.7010 C.3    32  VAL32       0.0019
     40  CG2       11.9170   13.7670    7.8030 C.3    32  VAL32       0.0019
     41  N          4.8470   10.5150    9.5910 N.3    47  ILE47      -0.1231
     42  CA         4.9450   11.7350    8.7850 C.3    47  ILE47       0.1692
     43  C          4.5420   11.4520    7.3530 C.2    47  ILE47       0.2593
     44  O          4.6400   10.3220    6.8810 O.2    47  ILE47      -0.2718
     45  CB         6.3800   12.3290    8.7650 C.3    47  ILE47       0.0266
     46  CG1        7.3750   11.2890    8.2640 C.3    47  ILE47       0.0019
     47  CG2        6.7530   12.8250   10.1580 C.3    47  ILE47       0.0020
     48  CD1        8.7740   11.8390    8.0170 C.3    47  ILE47       0.0001
     49  N          4.0820   12.4790    6.6530 N.am   48  GLY48      -0.1942
     50  CA         3.7000   12.2600    5.2740 C.3    48  GLY48       0.2014
     51  C          4.5080   13.0170    4.2470 C.2    48  GLY48       0.2639
     52  O          5.2650   13.9130    4.5920 O.2    48  GLY48      -0.2714
     53  N          4.3350   12.6370    2.9840 N.am   49  GLY49      -0.1954
     54  CA         5.0100   13.2940    1.8820 C.3    49  GLY49       0.1869
     55  C          4.3290   12.8380    0.6080 C.2    49  GLY49       0.2309
     56  O          3.2170   12.3090    0.6360 O.2    49  GLY49      -0.2863
     57  N         17.0730   14.4960    4.7910 N.3    84  ILE84      -0.1245
     58  CA        16.5590   15.8500    4.5700 C.3    84  ILE84       0.1561
     59  C         16.6970   16.7770    5.7820 C.2    84  ILE84       0.2260
     60  O         16.3330   16.4010    6.8980 O.2    84  ILE84      -0.2867
     61  CB        15.0450   15.8130    4.2230 C.3    84  ILE84       0.0252
     62  CG1       14.8210   15.0520    2.9160 C.3    84  ILE84       0.0019
     63  CG2       14.4840   17.2260    4.1600 C.3    84  ILE84       0.0019
     64  CD1       15.4800   15.6770    1.7370 C.3    84  ILE84       0.0001
     65  N          6.3230   28.1770    6.1920 N.3   107  ARG107     -0.1245
     66  CA         6.5220   27.5540    4.8740 C.3   107  ARG107      0.1563
     67  C          6.6430   28.6560    3.8420 C.2   107  ARG107      0.2260
     68  O          5.9040   29.6410    3.8700 O.2   107  ARG107     -0.2867
     69  CB         5.3540   26.6600    4.5060 C.3   107  ARG107      0.0307
     70  CG         5.1980   25.4730    5.4230 C.3   107  ARG107      0.0489
     71  CD         4.0920   24.5490    4.9340 C.3   107  ARG107      0.2205
     72  NE         3.9710   23.4080    5.8320 N.pl3 107  ARG107     -0.0865
     73  CZ         3.0740   22.4380    5.6930 C.cat 107  ARG107      0.5346
     74  NH1        2.2150   22.4770    4.6800 N.pl3 107  ARG107      0.1354
     75  NH2        3.0350   21.4360    6.5680 N.pl3 107  ARG107      0.1354
     76  N          8.9060   10.8770   -0.0660 N.3   149  ILE149     -0.1245
     77  CA         9.1200   10.2530    1.2130 C.3   149  ILE149      0.1561
     78  C          8.2290    9.0650    1.5720 C.2   149  ILE149      0.2260
     79  O          8.6490    8.2040    2.3500 O.2   149  ILE149     -0.2867
     80  CB         9.0470   11.3210    2.3160 C.3   149  ILE149      0.0252
     81  CG1       10.0790   11.0170    3.3940 C.3   149  ILE149      0.0019
     82  CG2        7.6530   11.3790    2.9010 C.3   149  ILE149      0.0019
     83  CD1       10.2950   12.1640    4.3530 C.3   149  ILE149      0.0001
@<TRIPOS>BOND
     1    76    77    1
     2    55    56    2
     3    55    54    1
     4     7     6   ar
     5    77    78    1
     6    77    80    1
     7     8     6   ar
     8     6     5    1
     9    10     9    1
    10    10    11    1
    11    78    79    2
    12    64    62    1
    13    54    53    1
    14     2     5    1
    15     2     3    1
    16     2     1    1
    17    80    82    1
    18    80    81    1
    19     3     4    2
    20    11    12    2
    21    11    13   am
    22    62    61    1
    23    53    51   am
    24    81    83    1
    25    13    14    1
    26    67    68    2
    27    67    66    1
    28    63    61    1
    29    61    58    1
    30    51    52    2
    31    51    50    1
    32    69    66    1
    33    69    70    1
    34    14    17    1
    35    14    15    1
    36    58    57    1
    37    58    59    1
    38    74    73    1
    39    66    65    1
    40    71    70    1
    41    71    72    1
    42    50    49    1
    43    73    72    2
    44    73    75    1
    45    59    60    2
    46    15    16    2
    47    15    18   am
    48    18    19    1
    49    49    43   am
    50    37    36    2
    51    44    43    2
    52    24    23   ar
    53    43    42    1
    54    38    39    1
    55    38    40    1
    56    38    35    1
    57    23    25   ar
    58    23    22    1
    59    29    28    2
    60    36    35    1
    61    19    22    1
    62    19    20    1
    63    48    46    1
    64    46    45    1
    65    35    34    1
    66    26    20   am
    67    26    27    1
    68    45    42    1
    69    45    47    1
    70    42    41    1
    71    20    21    2
    72    28    27    1
    73    27    30    1
    74    33    31   ar
    75    30    31    1
    76    31    32   ar
