@<TRIPOS>MOLECULE
tmp/2whhA02.pdb
 114 105 0 0 0
SMALL
GASTEIGER

@<TRIPOS>ATOM
      1  N         21.2030   19.5170   -6.7070 N.3     8  ARG8       -0.1245
      2  CA        20.5690   19.3770   -5.3820 C.3     8  ARG8        0.1563
      3  C         21.4720   20.0450   -4.3510 C.2     8  ARG8        0.2260
      4  O         22.6960   19.9020   -4.3830 O.2     8  ARG8       -0.2867
      5  CB        20.4000   17.9210   -4.9910 C.3     8  ARG8        0.0307
      6  CG        19.4370   17.1680   -5.8700 C.3     8  ARG8        0.0489
      7  CD        19.1690   15.7960   -5.3130 C.3     8  ARG8        0.2205
      8  NE        18.3040   15.0510   -6.2180 N.pl3   8  ARG8       -0.0865
      9  CZ        17.8580   13.8270   -5.9710 C.cat   8  ARG8        0.5346
     10  NH1       18.2030   13.2190   -4.8390 N.pl3   8  ARG8        0.1354
     11  NH2       17.0740   13.2160   -6.8510 N.pl3   8  ARG8        0.1354
     12  N         20.1310   16.7470    2.2880 N.3    23  LEU23      -0.1245
     13  CA        19.5800   17.7070    1.3640 C.3    23  LEU23       0.1561
     14  C         18.9240   18.8590    2.1180 C.2    23  LEU23       0.2260
     15  O         18.1000   18.6110    2.9990 O.2    23  LEU23      -0.2867
     16  CB        18.5490   16.9560    0.5320 C.3    23  LEU23       0.0270
     17  CG        17.7730   17.6840   -0.5520 C.3    23  LEU23       0.0019
     18  CD1       18.7370   18.1610   -1.6250 C.3    23  LEU23       0.0001
     19  CD2       16.7260   16.7400   -1.1240 C.3    23  LEU23       0.0001
     20  N         16.2480   21.1150    2.4950 N.3    25  ASP25      -0.1239
     21  CA        14.9130   21.0190    1.8950 C.3    25  ASP25       0.1674
     22  C         13.8990   22.0390    2.4330 C.2    25  ASP25       0.2266
     23  O         13.2450   21.7830    3.4450 O.2    25  ASP25      -0.2867
     24  CB        14.4180   19.5950    2.1470 C.3    25  ASP25       0.1410
     25  CG        13.1230   19.2560    1.4150 C.2    25  ASP25       0.3668
     26  OD1       12.4180   20.1560    0.9180 O.co2  25  ASP25      -0.2456
     27  OD2       12.8130   18.0510    1.3630 O.co2  25  ASP25      -0.2456
     28  N         11.0380   22.6520    1.4800 N.3    27  GLY27      -0.1210
     29  CA         9.6860   22.1550    1.4460 C.3    27  GLY27       0.1956
     30  C          9.3700   21.2020    2.5770 C.2    27  GLY27       0.2611
     31  O          8.2500   20.7230    2.6670 O.2    27  GLY27      -0.2717
     32  N         10.3350   20.9310    3.4490 N.am   28  ALA28      -0.1979
     33  CA        10.1120   20.0030    4.5540 C.3    28  ALA28       0.1597
     34  C         10.0090   20.7320    5.9020 C.2    28  ALA28       0.2287
     35  O         10.8760   21.5240    6.2660 O.2    28  ALA28      -0.2864
     36  CB        11.2560   18.9610    4.5940 C.3    28  ALA28       0.0319
     37  N          4.9680   13.0570   -0.5270 N.3    50  ILE50      -0.1245
     38  CA         4.3860   12.5770   -1.7640 C.3    50  ILE50       0.1561
     39  C          4.5870   11.0650   -1.6790 C.2    50  ILE50       0.2260
     40  O          5.6620   10.6040   -1.2990 O.2    50  ILE50      -0.2867
     41  CB         5.1550   13.1050   -2.9920 C.3    50  ILE50       0.0252
     42  CG1        4.6330   14.4780   -3.3850 C.3    50  ILE50       0.0019
     43  CG2        4.9770   12.1560   -4.1730 C.3    50  ILE50       0.0019
     44  CD1        5.3020   15.0290   -4.6340 C.3    50  ILE50       0.0001
     45  N         13.1770    7.1900    4.8580 N.3    80  THR80      -0.1204
     46  CA        13.1640    8.2310    3.8490 C.3    80  THR80       0.1979
     47  C         14.1700    7.8690    2.7610 C.2    80  THR80       0.2460
     48  O         15.2310    7.3090    3.0340 O.2    80  THR80      -0.2732
     49  CB        13.5440    9.6100    4.4570 C.3    80  THR80       0.1783
     50  OG1       13.6770   10.5760    3.4050 O.3    80  THR80      -0.2211
     51  CG2       14.8610    9.5130    5.2450 C.3    80  THR80       0.0376
     52  N         13.8430    8.1640    1.5010 N.am   81  PRO81      -0.2717
     53  CA        14.8170    7.8220    0.4530 C.3    81  PRO81       0.1535
     54  C         16.0910    8.6830    0.4820 C.2    81  PRO81       0.2598
     55  O         17.1300    8.2910   -0.0600 O.2    81  PRO81      -0.2715
     56  CB        14.0170    7.9980   -0.8470 C.3    81  PRO81       0.0310
     57  CG        12.9020    8.9570   -0.4670 C.3    81  PRO81       0.0237
     58  CD        12.5340    8.5300    0.9330 C.3    81  PRO81       0.0939
     59  N         16.0090    9.8450    1.1240 N.am   82  VAL82      -0.1978
     60  CA        17.1570   10.7460    1.2240 C.3    82  VAL82       0.1596
     61  C         17.1410   11.4750    2.5590 C.2    82  VAL82       0.2287
     62  O         16.0740   11.7250    3.1090 O.2    82  VAL82      -0.2864
     63  CB        17.1520   11.7980    0.0870 C.3    82  VAL82       0.0276
     64  CG1       17.5830   11.1570   -1.2230 C.3    82  VAL82       0.0022
     65  CG2       15.7550   12.4010   -0.0590 C.3    82  VAL82       0.0022
     66  N         17.0730   14.4960    4.7910 N.3    84  ILE84      -0.1245
     67  CA        16.5590   15.8500    4.5700 C.3    84  ILE84       0.1561
     68  C         16.6970   16.7770    5.7820 C.2    84  ILE84       0.2260
     69  O         16.3330   16.4010    6.8980 O.2    84  ILE84      -0.2867
     70  CB        15.0450   15.8130    4.2230 C.3    84  ILE84       0.0252
     71  CG1       14.8210   15.0520    2.9160 C.3    84  ILE84       0.0019
     72  CG2       14.4840   17.2260    4.1600 C.3    84  ILE84       0.0019
     73  CD1       15.4800   15.6770    1.7370 C.3    84  ILE84       0.0001
     74  N         10.2000   24.6380   -2.9700 N.3   124  ASP124     -0.1239
     75  CA        10.7660   23.4150   -2.3910 C.3   124  ASP124      0.1674
     76  C         12.1350   23.0310   -2.9490 C.2   124  ASP124      0.2266
     77  O         12.2210   22.3950   -4.0090 O.2   124  ASP124     -0.2867
     78  CB         9.7510   22.2980   -2.6470 C.3   124  ASP124      0.1410
     79  CG        10.1080   20.9790   -1.9640 C.2   124  ASP124      0.3668
     80  OD1        9.2640   20.0750   -2.0330 O.co2 124  ASP124     -0.2456
     81  OD2       11.2040   20.8310   -1.3750 O.co2 124  ASP124     -0.2456
     82  N         14.0750   20.8010   -2.0020 N.3   126  GLY126     -0.1210
     83  CA        14.3370   19.3790   -1.9600 C.3   126  GLY126      0.1956
     84  C         13.6640   18.6410   -3.0920 C.2   126  GLY126      0.2612
     85  O         13.8080   17.4310   -3.2130 O.2   126  GLY126     -0.2717
     86  N         12.9330   19.3610   -3.9400 N.am  127  ALA127     -0.1965
     87  CA        12.2300   18.7070   -5.0300 C.3   127  ALA127      0.1728
     88  C         12.9340   18.9730   -6.3620 C.2   127  ALA127      0.2616
     89  O         13.2400   20.1110   -6.7000 O.2   127  ALA127     -0.2715
     90  CB        10.7550   19.1960   -5.0750 C.3   127  ALA127      0.0334
     91  N         13.2010   17.9130   -7.1150 N.am  128  ASP128     -0.1971
     92  CA        13.8690   18.1020   -8.4140 C.3   128  ASP128      0.1709
     93  C         12.8610   18.6850   -9.3970 C.2   128  ASP128      0.2293
     94  O         13.2180   19.4870  -10.2720 O.2   128  ASP128     -0.2864
     95  CB        14.3000   16.7550   -8.9950 C.3   128  ASP128      0.1436
     96  CG        15.3850   16.0740   -8.1900 C.2   128  ASP128      0.3671
     97  OD1       15.5870   14.8650   -8.4270 O.co2 128  ASP128     -0.2456
     98  OD2       16.0240   16.7200   -7.3390 O.co2 128  ASP128     -0.2456
     99  N          8.8160    9.7380   -7.1580 N.3   147  GLY147     -0.1210
    100  CA         8.8740    9.2870   -5.7860 C.3   147  GLY147      0.1956
    101  C          9.0200   10.3860   -4.7650 C.2   147  GLY147      0.2612
    102  O          9.4610   11.4900   -5.0700 O.2   147  GLY147     -0.2717
    103  N          8.6390   10.0540   -3.5430 N.am  148  GLY148     -0.1942
    104  CA         8.7340   10.9830   -2.4480 C.3   148  GLY148      0.2014
    105  C          8.9340   10.1800   -1.1830 C.2   148  GLY148      0.2638
    106  O          9.0600    8.9510   -1.1950 O.2   148  GLY148     -0.2714
    107  N          8.9060   10.8770   -0.0660 N.am  149  ILE149     -0.1977
    108  CA         9.1200   10.2530    1.2130 C.3   149  ILE149      0.1596
    109  C          8.2290    9.0650    1.5720 C.2   149  ILE149      0.2287
    110  O          8.6490    8.2040    2.3500 O.2   149  ILE149     -0.2864
    111  CB         9.0470   11.3210    2.3160 C.3   149  ILE149      0.0276
    112  CG1       10.0790   11.0170    3.3940 C.3   149  ILE149      0.0022
    113  CG2        7.6530   11.3790    2.9010 C.3   149  ILE149      0.0022
    114  CD1       10.2950   12.1640    4.3530 C.3   149  ILE149      0.0001
@<TRIPOS>BOND
     1    94    93    2
     2    93    92    1
     3    95    92    1
     4    95    96    1
     5    97    96   ar
     6    92    91    1
     7    96    98   ar
     8    99   100    1
     9    91    88   am
    10    11     9    1
    11     1     2    1
    12    89    88    2
    13    88    87    1
    14     8     9    2
    15     8     7    1
    16     9    10    1
    17     6     7    1
    18     6     5    1
    19   100   101    1
    20     2     5    1
    21     2     3    1
    22    90    87    1
    23   102   101    2
    24    87    86    1
    25   101   103   am
    26    44    42    1
    27     4     3    2
    28    43    41    1
    29    77    76    2
    30    86    84   am
    31   103   104    1
    32    42    41    1
    33    85    84    2
    34    84    83    1
    35    41    38    1
    36    74    75    1
    37    76    75    1
    38    78    75    1
    39    78    79    1
    40   104   105    1
    41    80    79   ar
    42    82    83    1
    43    79    81   ar
    44    38    39    1
    45    38    37    1
    46    39    40    2
    47    18    17    1
    48    64    63    1
    49   106   105    2
    50   105   107   am
    51    19    17    1
    52    56    57    1
    53    56    53    1
    54    17    16    1
    55    57    58    1
    56   107   108    1
    57    55    54    2
    58    65    63    1
    59    63    60    1
    60    53    54    1
    61    53    52    1
    62    54    59   am
    63    16    13    1
    64    26    25   ar
    65    58    52    1
    66    59    60    1
    67   108   109    1
    68   108   111    1
    69    60    61    1
    70    27    25   ar
    71    13    14    1
    72    13    12    1
    73    25    24    1
    74    29    28    1
    75    29    30    1
    76    52    47   am
    77   109   110    2
    78    73    71    1
    79    21    24    1
    80    21    22    1
    81    21    20    1
    82    14    15    2
    83   111   113    1
    84   111   112    1
    85    22    23    2
    86    61    62    2
    87    30    31    2
    88    30    32   am
    89    47    48    2
    90    47    46    1
    91    71    70    1
    92   112   114    1
    93    50    49    1
    94    32    33    1
    95    46    49    1
    96    46    45    1
    97    72    70    1
    98    70    67    1
    99    49    51    1
   100    33    36    1
   101    33    34    1
   102    67    66    1
   103    67    68    1
   104    68    69    2
   105    34    35    2
