@<TRIPOS>MOLECULE
tmp/2whiB01.pdb
 163 163 0 0 0
SMALL
GASTEIGER

@<TRIPOS>ATOM
      1  N        -41.0810   25.5890    7.3090 N.3   127  TYR127     -0.1227
      2  CA       -40.0680   26.6360    7.4150 C.3   127  TYR127      0.1736
      3  C        -39.9840   27.1890    8.8280 C.2   127  TYR127      0.2595
      4  O        -41.0050   27.5410    9.4320 O.2   127  TYR127     -0.2718
      5  CB       -40.3480   27.7690    6.4300 C.3   127  TYR127      0.0548
      6  CG       -40.0850   27.4040    4.9880 C.ar  127  TYR127     -0.0200
      7  CD1      -38.7870   27.1890    4.5280 C.ar  127  TYR127     -0.0009
      8  CD2      -41.1330   27.2840    4.0810 C.ar  127  TYR127     -0.0009
      9  CE1      -38.5390   26.8590    3.2010 C.ar  127  TYR127      0.0417
     10  CE2      -40.8970   26.9490    2.7460 C.ar  127  TYR127      0.0417
     11  CZ       -39.5960   26.7410    2.3170 C.ar  127  TYR127      0.1957
     12  OH       -39.3420   26.4110    1.0060 O.3   127  TYR127     -0.2866
     13  N        -38.7590   27.2420    9.3440 N.am  128  PHE128     -0.1962
     14  CA       -38.4840   27.7930   10.6690 C.3   128  PHE128      0.1771
     15  C        -37.5750   29.0230   10.5750 C.2   128  PHE128      0.2620
     16  O        -36.4810   28.9780    9.9940 O.2   128  PHE128     -0.2715
     17  CB       -37.8690   26.7260   11.5930 C.3   128  PHE128      0.0574
     18  CG       -38.8660   25.7390   12.1340 C.ar  128  PHE128     -0.0200
     19  CD1      -39.2850   25.8110   13.4580 C.ar  128  PHE128     -0.0042
     20  CD2      -39.3930   24.7390   11.3190 C.ar  128  PHE128     -0.0042
     21  CE1      -40.2190   24.9040   13.9700 C.ar  128  PHE128     -0.0003
     22  CE2      -40.3370   23.8270   11.8110 C.ar  128  PHE128     -0.0003
     23  CZ       -40.7490   23.9090   13.1430 C.ar  128  PHE128     -0.0000
     24  N        -38.0620   30.1290   11.1290 N.am  129  GLY129     -0.1940
     25  CA       -37.2640   31.3370   11.3170 C.3   129  GLY129      0.2014
     26  C        -37.1270   31.5920   12.8050 C.2   129  GLY129      0.2639
     27  O        -38.1190   31.5970   13.5350 O.2   129  GLY129     -0.2714
     28  N        -35.9010   31.8040   13.2600 N.am  130  ALA130     -0.1963
     29  CA       -35.6380   31.9280   14.6940 C.3   130  ALA130      0.1728
     30  C        -34.9100   33.2200   15.0680 C.2   130  ALA130      0.2616
     31  O        -34.1190   33.7430   14.2830 O.2   130  ALA130     -0.2715
     32  CB       -34.8610   30.7220   15.1940 C.3   130  ALA130      0.0334
     33  N        -35.1940   33.7230   16.2680 N.am  131  GLU131     -0.1977
     34  CA       -34.5280   34.9070   16.7980 C.3   131  GLU131      0.1602
     35  C        -33.8670   34.5600   18.1220 C.2   131  GLU131      0.2287
     36  O        -34.4820   34.6680   19.1800 O.2   131  GLU131     -0.2864
     37  CB       -35.5250   36.0450   17.0180 C.3   131  GLU131      0.0415
     38  CG       -36.4790   36.2970   15.8720 C.3   131  GLU131      0.1163
     39  CD       -37.6750   37.1030   16.3160 C.2   131  GLU131      0.3649
     40  OE1      -38.8140   36.6180   16.1960 O.co2 131  GLU131     -0.2457
     41  OE2      -37.4900   38.2340   16.8140 O.co2 131  GLU131     -0.2457
     42  N        -30.3140   39.4510    7.7340 N.3   212  GLU212     -0.1231
     43  CA       -31.4380   40.3770    7.6650 C.3   212  GLU212      0.1699
     44  C        -31.2710   41.6050    8.5510 C.2   212  GLU212      0.2592
     45  O        -31.4450   42.7220    8.0720 O.2   212  GLU212     -0.2718
     46  CB       -32.7530   39.6570    7.9540 C.3   212  GLU212      0.0402
     47  CG       -33.1070   38.6550    6.8580 C.3   212  GLU212      0.1161
     48  CD       -34.4510   37.9980    7.0600 C.2   212  GLU212      0.3649
     49  OE1      -35.0390   38.1670    8.1550 O.co2 212  GLU212     -0.2457
     50  OE2      -34.9090   37.3020    6.1180 O.co2 212  GLU212     -0.2457
     51  N        -30.9510   41.4000    9.8330 N.am  213  LYS213     -0.1980
     52  CA       -30.6040   42.5100   10.7250 C.3   213  LYS213      0.1596
     53  C        -29.8170   42.1640   11.9980 C.2   213  LYS213      0.2287
     54  O        -29.7350   41.0050   12.4010 O.2   213  LYS213     -0.2864
     55  CB       -31.8180   43.4000   11.0630 C.3   213  LYS213      0.0298
     56  CG       -32.9370   42.7870   11.8640 C.3   213  LYS213      0.0038
     57  CD       -33.9000   43.9040   12.2560 C.3   213  LYS213      0.0206
     58  CE       -35.3700   43.5590   11.9840 C.3   213  LYS213      0.1093
     59  NZ       -36.0440   42.9920   13.1810 N.3   213  LYS213     -0.1314
     60  N        -30.6150   38.5330   13.1420 N.3   227  ASN227     -0.1225
     61  CA       -31.5370   37.7370   12.3560 C.3   227  ASN227      0.1785
     62  C        -30.9010   37.3200   11.0440 C.2   227  ASN227      0.2597
     63  O        -30.2850   38.1350   10.3570 O.2   227  ASN227     -0.2718
     64  CB       -32.8280   38.5140   12.0530 C.3   227  ASN227      0.1169
     65  CG       -33.5820   38.9520   13.3020 C.2   227  ASN227      0.2627
     66  OD1      -34.4090   39.8640   13.2300 O.2   227  ASN227     -0.2716
     67  ND2      -33.3190   38.3150   14.4400 N.am  227  ASN227     -0.0877
     68  N        -31.0600   36.0430   10.7080 N.am  228  TYR228     -0.1976
     69  CA       -30.6720   35.5050    9.4080 C.3   228  TYR228      0.1639
     70  C        -31.8920   34.8420    8.7510 C.2   228  TYR228      0.2290
     71  O        -32.8670   34.5120    9.4330 O.2   228  TYR228     -0.2864
     72  CB       -29.4970   34.5100    9.5490 C.3   228  TYR228      0.0560
     73  CG       -29.7490   33.4190   10.5650 C.ar  228  TYR228     -0.0198
     74  CD1      -30.3110   32.1990   10.1890 C.ar  228  TYR228     -0.0009
     75  CD2      -29.4420   33.6160   11.9140 C.ar  228  TYR228     -0.0009
     76  CE1      -30.5620   31.2040   11.1350 C.ar  228  TYR228      0.0417
     77  CE2      -29.6830   32.6280   12.8560 C.ar  228  TYR228      0.0417
     78  CZ       -30.2380   31.4300   12.4680 C.ar  228  TYR228      0.1957
     79  OH       -30.4750   30.4710   13.4200 O.3   228  TYR228     -0.2866
     80  N        -34.7050   32.4980    7.2610 N.3   230  PHE230     -0.1241
     81  CA       -35.3240   31.2170    7.6290 C.3   230  PHE230      0.1605
     82  C        -34.9110   30.1000    6.6640 C.2   230  PHE230      0.2264
     83  O        -34.3600   30.3610    5.5850 O.2   230  PHE230     -0.2867
     84  CB       -36.8590   31.3490    7.6270 C.3   230  PHE230      0.0534
     85  CG       -37.4280   31.6790    6.2760 C.ar  230  PHE230     -0.0203
     86  CD1      -37.7820   30.6650    5.3900 C.ar  230  PHE230     -0.0042
     87  CD2      -37.5720   33.0000    5.8700 C.ar  230  PHE230     -0.0042
     88  CE1      -38.2870   30.9670    4.1190 C.ar  230  PHE230     -0.0003
     89  CE2      -38.0740   33.3120    4.6020 C.ar  230  PHE230     -0.0003
     90  CZ       -38.4320   32.2950    3.7300 C.ar  230  PHE230     -0.0000
     91  N        -40.7560   31.6820   14.1900 N.3   276  HIS276     -0.1226
     92  CA       -41.7110   31.9050   13.1140 C.3   276  HIS276      0.1752
     93  C        -41.8360   30.6110   12.3290 C.2   276  HIS276      0.2596
     94  O        -40.8250   29.9650   12.0170 O.2   276  HIS276     -0.2718
     95  CB       -41.2450   33.0390   12.1930 C.3   276  HIS276      0.0759
     96  CG       -41.1360   34.3680   12.8730 C.ar  276  HIS276      0.0818
     97  ND1      -41.9390   35.4390   12.5450 N.ar  276  HIS276     -0.2268
     98  CD2      -40.3200   34.7980   13.8670 C.ar  276  HIS276      0.1154
     99  CE1      -41.6190   36.4720   13.3040 C.ar  276  HIS276      0.1986
    100  NE2      -40.6450   36.1090   14.1180 N.ar  276  HIS276     -0.2212
    101  N        -43.0720   30.2270   12.0230 N.am  277  GLN277     -0.1965
    102  CA       -43.3440   28.9320   11.3840 C.3   277  GLN277      0.1733
    103  C        -44.3880   29.0520   10.2830 C.2   277  GLN277      0.2617
    104  O        -45.3620   29.7750   10.4450 O.2   277  GLN277     -0.2715
    105  CB       -43.8100   27.9060   12.4260 C.3   277  GLN277      0.0408
    106  CG       -42.7310   27.4740   13.4150 C.3   277  GLN277      0.0908
    107  CD       -43.2990   26.8460   14.6810 C.2   277  GLN277      0.2608
    108  OE1      -43.7760   25.7050   14.6760 O.2   277  GLN277     -0.2717
    109  NE2      -43.2310   27.5840   15.7840 N.am  277  GLN277     -0.0878
    110  N        -44.1640   28.3480    9.1680 N.am  278  SER278     -0.1950
    111  CA       -45.1460   28.2190    8.0820 C.3   278  SER278      0.1924
    112  C        -45.0280   26.8580    7.3790 C.2   278  SER278      0.2314
    113  O        -43.9370   26.2660    7.3330 O.2   278  SER278     -0.2863
    114  CB       -44.9930   29.3550    7.0630 C.3   278  SER278      0.2116
    115  OG       -43.9040   29.1390    6.1770 O.3   278  SER278     -0.2180
    116  N        -45.6610   24.7630    3.6900 N.3   280  TRP280     -0.1241
    117  CA       -45.7910   24.9410    2.2440 C.3   280  TRP280      0.1605
    118  C        -45.9760   23.5940    1.5400 C.2   280  TRP280      0.2264
    119  O        -45.5280   22.5570    2.0380 O.2   280  TRP280     -0.2867
    120  CB       -44.5630   25.6660    1.6750 C.3   280  TRP280      0.0550
    121  CG       -44.5190   27.1520    1.9670 C.ar  280  TRP280      0.0003
    122  CD1      -44.5630   27.7530    3.1970 C.ar  280  TRP280      0.0946
    123  CD2      -44.4010   28.2130    1.0100 C.ar  280  TRP280      0.0152
    124  NE1      -44.5010   29.1160    3.0630 N.ar  280  TRP280     -0.2442
    125  CE2      -44.3960   29.4290    1.7330 C.ar  280  TRP280      0.0810
    126  CE3      -44.3070   28.2560   -0.3910 C.ar  280  TRP280      0.0012
    127  CZ2      -44.3020   30.6790    1.1030 C.ar  280  TRP280      0.0191
    128  CZ3      -44.2070   29.5010   -1.0160 C.ar  280  TRP280      0.0001
    129  CH2      -44.2060   30.6930   -0.2680 C.ar  280  TRP280      0.0015
    130  N        -47.5800   34.7410    0.8410 N.3   359  LYS359     -0.1231
    131  CA       -46.2880   34.1000    1.1100 C.3   359  LYS359      0.1693
    132  C        -45.6960   34.4680    2.4740 C.2   359  LYS359      0.2592
    133  O        -45.0080   33.6580    3.0900 O.2   359  LYS359     -0.2718
    134  CB       -45.2900   34.4500    0.0100 C.3   359  LYS359      0.0285
    135  CG       -45.6720   33.9110   -1.3560 C.3   359  LYS359      0.0035
    136  CD       -44.5800   34.1750   -2.3810 C.3   359  LYS359      0.0206
    137  CE       -44.9450   33.5610   -3.7270 C.3   359  LYS359      0.1093
    138  NZ       -43.8390   33.7000   -4.7120 N.3   359  LYS359     -0.1314
    139  N        -45.9680   35.6880    2.9360 N.am  360  ALA360     -0.1966
    140  CA       -45.4000   36.1960    4.1840 C.3   360  ALA360      0.1728
    141  C        -46.1630   35.7470    5.4360 C.2   360  ALA360      0.2616
    142  O        -45.6890   35.9600    6.5560 O.2   360  ALA360     -0.2715
    143  CB       -45.3010   37.7210    4.1360 C.3   360  ALA360      0.0334
    144  N        -47.3290   35.1220    5.2520 N.am  361  LYS361     -0.1963
    145  CA       -48.1870   34.7380    6.3720 C.3   361  LYS361      0.1728
    146  C        -47.5790   33.6430    7.2350 C.2   361  LYS361      0.2616
    147  O        -47.1650   32.5990    6.7210 O.2   361  LYS361     -0.2715
    148  CB       -49.5560   34.2730    5.8850 C.3   361  LYS361      0.0311
    149  CG       -50.6190   34.3630    6.9690 C.3   361  LYS361      0.0038
    150  CD       -51.1410   35.7850    7.0130 C.3   361  LYS361      0.0206
    151  CE       -51.1580   36.3270    8.3970 C.3   361  LYS361      0.1093
    152  NZ       -51.3210   37.8030    8.3380 N.3   361  LYS361     -0.1314
    153  N        -47.5500   33.8840    8.5470 N.am  362  ARG362     -0.1977
    154  CA       -46.9200   32.9700    9.5000 C.3   362  ARG362      0.1597
    155  C        -47.3420   33.2700   10.9430 C.2   362  ARG362      0.2287
    156  O        -47.9040   34.3210   11.2340 O.2   362  ARG362     -0.2864
    157  CB       -45.3790   33.0320    9.3750 C.3   362  ARG362      0.0334
    158  CG       -44.7810   34.4050    9.6980 C.3   362  ARG362      0.0492
    159  CD       -43.3540   34.5270    9.2360 C.3   362  ARG362      0.2205
    160  NE       -42.7720   35.7980    9.6600 N.pl3 362  ARG362     -0.0865
    161  CZ       -42.7100   36.9020    8.9120 C.cat 362  ARG362      0.5346
    162  NH1      -43.1860   36.9120    7.6730 N.pl3 362  ARG362      0.1354
    163  NH2      -42.1490   38.0060    9.4000 N.pl3 362  ARG362      0.1354
@<TRIPOS>BOND
     1   138   137    1
     2   137   136    1
     3   136   135    1
     4   135   134    1
     5   128   126   ar
     6   128   129   ar
     7   126   123   ar
     8   129   127   ar
     9   134   131    1
    10   130   131    1
    11    12    11    1
    12   123   125   ar
    13   123   121   ar
    14   127   125   ar
    15   131   132    1
    16   118   119    2
    17   118   117    1
    18   120   121    1
    19   120   117    1
    20   125   124   ar
    21   121   122   ar
    22   117   116    1
    23    11    10   ar
    24    11     9   ar
    25   132   139   am
    26   132   133    2
    27    10     8   ar
    28   139   140    1
    29   124   122   ar
    30     9     7   ar
    31    90    88   ar
    32    90    89   ar
    33     8     6   ar
    34    88    86   ar
    35   143   140    1
    36   140   141    1
    37     7     6   ar
    38    89    87   ar
    39     6     5    1
    40   144   141   am
    41   144   145    1
    42    86    85   ar
    43   141   142    2
    44    83    82    2
    45    87    85   ar
    46   148   145    1
    47   148   149    1
    48    50    48   ar
    49   115   114    1
    50    85    84    1
    51   145   146    1
    52     5     2    1
    53    82    81    1
    54   147   146    2
    55    47    48    1
    56    47    46    1
    57   149   150    1
    58   150   151    1
    59    48    49   ar
    60   114   111    1
    61   146   153   am
    62    80    81    1
    63     1     2    1
    64   113   112    2
    65   112   111    1
    66     2     3    1
    67    84    81    1
    68    43    42    1
    69    43    46    1
    70    43    44    1
    71   162   161    1
    72    45    44    2
    73   111   110    1
    74   152   151    1
    75   153   154    1
    76    44    51   am
    77    70    69    1
    78    70    71    2
    79     3    13   am
    80     3     4    2
    81   161   163    1
    82   161   160    2
    83   110   103   am
    84   159   160    1
    85   159   158    1
    86    13    14    1
    87   157   154    1
    88   157   158    1
    89    69    72    1
    90    69    68    1
    91   154   155    1
    92    72    73    1
    93    51    52    1
    94    16    15    2
    95    74    73   ar
    96    74    76   ar
    97   103   104    2
    98   103   102    1
    99    63    62    2
   100    73    75   ar
   101    15    14    1
   102    15    24   am
   103    14    17    1
   104    68    62   am
   105    52    55    1
   106    52    53    1
   107   155   156    2
   108    62    61    1
   109    55    56    1
   110    24    25    1
   111    76    78   ar
   112    25    26    1
   113    20    22   ar
   114    20    18   ar
   115   102   101    1
   116   102   105    1
   117    17    18    1
   118    22    23   ar
   119    56    57    1
   120    75    77   ar
   121    58    57    1
   122    58    59    1
   123    53    54    2
   124    94    93    2
   125   101    93   am
   126    64    61    1
   127    64    65    1
   128    18    19   ar
   129    95    96    1
   130    95    92    1
   131    93    92    1
   132    61    60    1
   133   105   106    1
   134    78    77   ar
   135    78    79    1
   136    97    96   ar
   137    97    99   ar
   138    26    28   am
   139    26    27    2
   140    96    98   ar
   141    92    91    1
   142    23    21   ar
   143    66    65    2
   144    28    29    1
   145    65    67   am
   146    99   100   ar
   147   106   107    1
   148    19    21   ar
   149    98   100   ar
   150    31    30    2
   151   108   107    2
   152   107   109   am
   153    29    30    1
   154    29    32    1
   155    30    33   am
   156    38    39    1
   157    38    37    1
   158    40    39   ar
   159    33    34    1
   160    39    41   ar
   161    34    37    1
   162    34    35    1
   163    35    36    2
