@<TRIPOS>MOLECULE
tmp/2whiB02.pdb
 188 175 0 0 0
SMALL
GASTEIGER

@<TRIPOS>ATOM
      1  N        -35.1940   33.7230   16.2680 N.3   131  GLU131     -0.1245
      2  CA       -34.5280   34.9070   16.7980 C.3   131  GLU131      0.1567
      3  C        -33.8670   34.5600   18.1220 C.2   131  GLU131      0.2260
      4  O        -34.4820   34.6680   19.1800 O.2   131  GLU131     -0.2867
      5  CB       -35.5250   36.0450   17.0180 C.3   131  GLU131      0.0388
      6  CG       -36.4790   36.2970   15.8720 C.3   131  GLU131      0.1160
      7  CD       -37.6750   37.1030   16.3160 C.2   131  GLU131      0.3649
      8  OE1      -38.8140   36.6180   16.1960 O.co2 131  GLU131     -0.2457
      9  OE2      -37.4900   38.2340   16.8140 O.co2 131  GLU131     -0.2457
     10  N        -31.7930   35.6130   20.8270 N.3   133  GLU133     -0.1245
     11  CA       -31.2470   36.7700   21.5220 C.3   133  GLU133      0.1567
     12  C        -30.1510   36.3120   22.4940 C.2   133  GLU133      0.2260
     13  O        -30.1070   35.1370   22.8870 O.2   133  GLU133     -0.2867
     14  CB       -32.3600   37.5180   22.2660 C.3   133  GLU133      0.0388
     15  CG       -33.5140   38.0010   21.3790 C.3   133  GLU133      0.1160
     16  CD       -34.7370   38.4160   22.1720 C.2   133  GLU133      0.3649
     17  OE1      -35.1000   37.7090   23.1240 O.co2 133  GLU133     -0.2457
     18  OE2      -35.3520   39.4480   21.8430 O.co2 133  GLU133     -0.2457
     19  N        -33.2420   48.9650   23.7640 N.3   184  TYR184     -0.1241
     20  CA       -33.8590   48.8420   22.4410 C.3   184  TYR184      0.1605
     21  C        -34.4190   50.1960   21.9830 C.2   184  TYR184      0.2264
     22  O        -35.4750   50.5970   22.4610 O.2   184  TYR184     -0.2867
     23  CB       -34.9820   47.7920   22.5060 C.3   184  TYR184      0.0534
     24  CG       -35.6710   47.4330   21.1980 C.ar  184  TYR184     -0.0201
     25  CD1      -35.5610   46.1480   20.6570 C.ar  184  TYR184     -0.0009
     26  CD2      -36.4560   48.3600   20.5200 C.ar  184  TYR184     -0.0009
     27  CE1      -36.2040   45.8020   19.4510 C.ar  184  TYR184      0.0417
     28  CE2      -37.1010   48.0270   19.3270 C.ar  184  TYR184      0.0417
     29  CZ       -36.9740   46.7510   18.8010 C.ar  184  TYR184      0.1957
     30  OH       -37.6120   46.4320   17.6210 O.3   184  TYR184     -0.2866
     31  N        -30.9510   41.4000    9.8330 N.3   213  LYS213     -0.1245
     32  CA       -30.6040   42.5100   10.7250 C.3   213  LYS213      0.1561
     33  C        -29.8170   42.1640   11.9980 C.2   213  LYS213      0.2260
     34  O        -29.7350   41.0050   12.4010 O.2   213  LYS213     -0.2867
     35  CB       -31.8180   43.4000   11.0630 C.3   213  LYS213      0.0271
     36  CG       -32.9370   42.7870   11.8640 C.3   213  LYS213      0.0035
     37  CD       -33.9000   43.9040   12.2560 C.3   213  LYS213      0.0206
     38  CE       -35.3700   43.5590   11.9840 C.3   213  LYS213      0.1093
     39  NZ       -36.0440   42.9920   13.1810 N.3   213  LYS213     -0.1314
     40  N        -29.1450   44.1880   15.9950 N.3   215  HIS215     -0.1241
     41  CA       -29.4190   45.3150   16.8960 C.3   215  HIS215      0.1621
     42  C        -29.1970   44.9720   18.3730 C.2   215  HIS215      0.2264
     43  O        -29.1280   43.7990   18.7530 O.2   215  HIS215     -0.2867
     44  CB       -30.8360   45.8850   16.6870 C.3   215  HIS215      0.0745
     45  CG       -31.9390   44.8880   16.8880 C.ar  215  HIS215      0.0817
     46  ND1      -32.5110   44.6450   18.1210 N.ar  215  HIS215     -0.2268
     47  CD2      -32.5860   44.0850   16.0080 C.ar  215  HIS215      0.1154
     48  CE1      -33.4540   43.7260   17.9930 C.ar  215  HIS215      0.1986
     49  NE2      -33.5240   43.3740   16.7200 N.ar  215  HIS215     -0.2212
     50  N        -30.6670   44.7600   22.0870 N.3   217  GLU217     -0.1231
     51  CA       -32.0010   44.4380   22.5990 C.3   217  GLU217      0.1699
     52  C        -32.3210   45.2010   23.8710 C.2   217  GLU217      0.2592
     53  O        -31.4890   45.9650   24.3570 O.2   217  GLU217     -0.2718
     54  CB       -32.1810   42.9270   22.8030 C.3   217  GLU217      0.0402
     55  CG       -32.9760   42.2480   21.6840 C.3   217  GLU217      0.1161
     56  CD       -34.4760   42.5440   21.7530 C.2   217  GLU217      0.3649
     57  OE1      -34.9780   42.9370   22.8300 O.co2 217  GLU217     -0.2457
     58  OE2      -35.1590   42.3660   20.7250 O.co2 217  GLU217     -0.2457
     59  N        -33.5210   44.9650   24.4010 N.am  218  VAL218     -0.1980
     60  CA       -34.0960   45.7040   25.5330 C.3   218  VAL218      0.1595
     61  C        -33.2290   45.7090   26.7930 C.2   218  VAL218      0.2287
     62  O        -33.1570   46.7210   27.4830 O.2   218  VAL218     -0.2864
     63  CB       -35.5410   45.1680   25.8710 C.3   218  VAL218      0.0276
     64  CG1      -36.1350   45.8170   27.1310 C.3   218  VAL218      0.0022
     65  CG2      -36.4990   45.3470   24.6780 C.3   218  VAL218      0.0022
     66  N        -27.4860   43.2710   25.8720 N.3   223  GLN223     -0.1245
     67  CA       -28.3540   42.3410   25.1570 C.3   223  GLN223      0.1566
     68  C        -28.3170   42.6590   23.6610 C.2   223  GLN223      0.2260
     69  O        -28.1880   43.8100   23.2630 O.2   223  GLN223     -0.2867
     70  CB       -29.7980   42.3230   25.6890 C.3   223  GLN223      0.0367
     71  CG       -30.5300   40.9930   25.3850 C.3   223  GLN223      0.0905
     72  CD       -31.9630   40.9110   25.9160 C.2   223  GLN223      0.2608
     73  OE1      -32.6630   41.9210   26.0520 O.2   223  GLN223     -0.2717
     74  NE2      -32.4090   39.6920   26.2030 N.am  223  GLN223     -0.0878
     75  N        -29.3980   40.9960   19.3880 N.3   225  GLU225     -0.1245
     76  CA       -30.1270   40.0770   18.5290 C.3   225  GLU225      0.1567
     77  C        -29.6090   40.2200   17.1130 C.2   225  GLU225      0.2260
     78  O        -29.3680   41.3340   16.6510 O.2   225  GLU225     -0.2867
     79  CB       -31.6320   40.3600   18.5710 C.3   225  GLU225      0.0388
     80  CG       -32.4580   39.4880   17.6430 C.3   225  GLU225      0.1160
     81  CD       -33.9590   39.7460   17.7630 C.2   225  GLU225      0.3649
     82  OE1      -34.6740   39.5280   16.7600 O.co2 225  GLU225     -0.2457
     83  OE2      -34.4310   40.1580   18.8560 O.co2 225  GLU225     -0.2457
     84  N        -35.1280   42.1720   30.8300 N.3   269  ASN269     -0.1225
     85  CA       -35.5810   41.1930   29.8310 C.3   269  ASN269      0.1785
     86  C        -34.7680   39.9040   29.7920 C.2   269  ASN269      0.2597
     87  O        -33.5490   39.9180   29.9540 O.2   269  ASN269     -0.2718
     88  CB       -35.6600   41.8110   28.4290 C.3   269  ASN269      0.1169
     89  CG       -37.0260   42.4230   28.1350 C.2   269  ASN269      0.2627
     90  OD1      -37.7380   42.8590   29.0500 O.2   269  ASN269     -0.2716
     91  ND2      -37.3930   42.4690   26.8530 N.am  269  ASN269     -0.0877
     92  N        -35.4610   38.7880   29.5930 N.am  270  GLY270     -0.1957
     93  CA       -34.8010   37.5130   29.3610 C.3   270  GLY270      0.1869
     94  C        -34.4530   37.4080   27.8880 C.2   270  GLY270      0.2309
     95  O        -34.7630   38.3170   27.1090 O.2   270  GLY270     -0.2863
     96  N        -35.0970   35.2490   24.5430 N.3   272  GLY272     -0.1225
     97  CA       -35.9870   34.2650   23.9430 C.3   272  GLY272      0.1811
     98  C        -35.4470   33.7230   22.6370 C.2   272  GLY272      0.2280
     99  O        -34.4450   34.2320   22.1100 O.2   272  GLY272     -0.2866
    100  N        -37.7880   33.1450   19.6490 N.3   274  HIS274     -0.1241
    101  CA       -39.0640   33.1270   18.9440 C.3   274  HIS274      0.1621
    102  C        -38.9040   32.3150   17.6680 C.2   274  HIS274      0.2264
    103  O        -37.8950   32.4340   16.9730 O.2   274  HIS274     -0.2867
    104  CB       -39.5500   34.5380   18.5880 C.3   274  HIS274      0.0745
    105  CG       -39.5610   35.5000   19.7350 C.ar  274  HIS274      0.0817
    106  ND1      -39.3260   36.8510   19.5690 N.ar  274  HIS274     -0.2268
    107  CD2      -39.7760   35.3150   21.0610 C.ar  274  HIS274      0.1154
    108  CE1      -39.4020   37.4550   20.7440 C.ar  274  HIS274      0.1986
    109  NE2      -39.6740   36.5450   21.6650 N.ar  274  HIS274     -0.2212
    110  N        -37.7640   33.3140   33.0860 N.3   327  ARG327     -0.1245
    111  CA       -38.1220   34.1880   31.9740 C.3   327  ARG327      0.1563
    112  C        -39.6440   34.3000   31.7700 C.2   327  ARG327      0.2260
    113  O        -40.1460   35.3720   31.3900 O.2   327  ARG327     -0.2867
    114  CB       -37.4520   33.7010   30.6770 C.3   327  ARG327      0.0307
    115  CG       -37.9190   34.4290   29.4160 C.3   327  ARG327      0.0489
    116  CD       -37.1590   33.9890   28.1740 C.3   327  ARG327      0.2205
    117  NE       -37.8760   34.4010   26.9670 N.pl3 327  ARG327     -0.0865
    118  CZ       -38.7370   33.6360   26.3000 C.cat 327  ARG327      0.5346
    119  NH1      -38.9810   32.3980   26.7080 N.pl3 327  ARG327      0.1354
    120  NH2      -39.3410   34.1010   25.2080 N.pl3 327  ARG327      0.1354
    121  N        -42.0000   41.4480   30.5490 N.3   332  TYR332     -0.1227
    122  CA       -40.7300   41.4160   29.8120 C.3   332  TYR332      0.1736
    123  C        -40.8430   40.9030   28.3690 C.2   332  TYR332      0.2595
    124  O        -39.8610   40.4180   27.7910 O.2   332  TYR332     -0.2718
    125  CB       -39.6740   40.6300   30.5970 C.3   332  TYR332      0.0548
    126  CG       -39.4720   41.1290   32.0120 C.ar  332  TYR332     -0.0200
    127  CD1      -38.6910   42.2550   32.2740 C.ar  332  TYR332     -0.0009
    128  CD2      -40.0680   40.4750   33.0900 C.ar  332  TYR332     -0.0009
    129  CE1      -38.5030   42.7090   33.5780 C.ar  332  TYR332      0.0417
    130  CE2      -39.8900   40.9260   34.3930 C.ar  332  TYR332      0.0417
    131  CZ       -39.1110   42.0470   34.6220 C.ar  332  TYR332      0.1957
    132  OH       -38.9270   42.4960   35.9070 O.3   332  TYR332     -0.2866
    133  N        -42.0360   41.0260   27.7970 N.am  333  GLU333     -0.1965
    134  CA       -42.3030   40.6280   26.4100 C.3   333  GLU333      0.1733
    135  C        -42.1530   39.1210   26.1610 C.2   333  GLU333      0.2616
    136  O        -41.9050   38.6830   25.0240 O.2   333  GLU333     -0.2715
    137  CB       -41.4680   41.4500   25.4250 C.3   333  GLU333      0.0429
    138  CG       -41.7490   42.9480   25.4900 C.3   333  GLU333      0.1163
    139  CD       -41.0280   43.7120   24.4120 C.2   333  GLU333      0.3649
    140  OE1      -41.7150   44.2580   23.5220 O.co2 333  GLU333     -0.2457
    141  OE2      -39.7740   43.7440   24.4350 O.co2 333  GLU333     -0.2457
    142  N        -42.3100   38.3430   27.2320 N.am  334  ALA334     -0.1977
    143  CA       -42.3420   36.8820   27.1650 C.3   334  ALA334      0.1597
    144  C        -43.7340   36.4080   27.6270 C.2   334  ALA334      0.2287
    145  O        -44.3980   37.1120   28.4070 O.2   334  ALA334     -0.2864
    146  CB       -41.2250   36.2760   28.0330 C.3   334  ALA334      0.0319
    147  N        -47.0100   41.3790   21.5720 N.3   345  ARG345     -0.1245
    148  CA       -45.7610   40.8780   22.1370 C.3   345  ARG345      0.1563
    149  C        -45.8860   40.3640   23.5900 C.2   345  ARG345      0.2260
    150  O        -44.9080   39.8650   24.1670 O.2   345  ARG345     -0.2867
    151  CB       -44.6430   41.9160   21.9830 C.3   345  ARG345      0.0307
    152  CG       -43.9480   41.8670   20.6230 C.3   345  ARG345      0.0489
    153  CD       -42.9820   43.0370   20.4320 C.3   345  ARG345      0.2205
    154  NE       -42.0960   42.8430   19.2750 N.pl3 345  ARG345     -0.0865
    155  CZ       -42.3980   43.1660   18.0180 C.cat 345  ARG345      0.5346
    156  NH1      -43.5670   43.7160   17.7230 N.pl3 345  ARG345      0.1354
    157  NH2      -41.5270   42.9360   17.0480 N.pl3 345  ARG345      0.1354
    158  N        -47.7520   35.2910   18.6550 N.3   350  ARG350     -0.1245
    159  CA       -48.0600   36.5430   17.9840 C.3   350  ARG350      0.1563
    160  C        -48.1780   36.2860   16.4810 C.2   350  ARG350      0.2260
    161  O        -47.4220   35.4770   15.9270 O.2   350  ARG350     -0.2867
    162  CB       -46.9790   37.5870   18.2880 C.3   350  ARG350      0.0307
    163  CG       -46.8210   38.7120   17.2660 C.3   350  ARG350      0.0489
    164  CD       -45.8130   39.7500   17.7440 C.3   350  ARG350      0.2205
    165  NE       -45.3610   40.6390   16.6730 N.pl3 350  ARG350     -0.0865
    166  CZ       -44.2140   40.5000   16.0170 C.cat 350  ARG350      0.5346
    167  NH1      -43.3870   39.5050   16.3150 N.pl3 350  ARG350      0.1354
    168  NH2      -43.8900   41.3590   15.0620 N.pl3 350  ARG350      0.1354
    169  N        -45.8020   33.4410   15.0060 N.3   364  GLU364     -0.1245
    170  CA       -44.6000   33.5370   15.8270 C.3   364  GLU364      0.1567
    171  C        -44.8470   32.8920   17.1850 C.2   364  GLU364      0.2260
    172  O        -45.6210   33.4190   18.0020 O.2   364  GLU364     -0.2867
    173  CB       -44.1660   34.9880   16.0070 C.3   364  GLU364      0.0388
    174  CG       -42.8640   35.1400   16.8090 C.3   364  GLU364      0.1160
    175  CD       -42.6660   36.5380   17.3670 C.2   364  GLU364      0.3649
    176  OE1      -43.6460   37.1600   17.8200 O.co2 364  GLU364     -0.2457
    177  OE2      -41.5200   37.0170   17.3540 O.co2 364  GLU364     -0.2457
    178  N        -43.7200   32.4620   20.5910 N.3   366  ARG366     -0.1245
    179  CA       -42.8300   33.2980   21.4120 C.3   366  ARG366      0.1563
    180  C        -42.3340   32.6150   22.6810 C.2   366  ARG366      0.2260
    181  O        -41.4610   33.1380   23.3780 O.2   366  ARG366     -0.2867
    182  CB       -43.5070   34.6260   21.7760 C.3   366  ARG366      0.0307
    183  CG       -43.7410   35.5580   20.5950 C.3   366  ARG366      0.0489
    184  CD       -44.4120   36.8570   21.0120 C.3   366  ARG366      0.2205
    185  NE       -43.5520   37.6710   21.8620 N.pl3 366  ARG366     -0.0865
    186  CZ       -42.6640   38.5550   21.4050 C.cat 366  ARG366      0.5346
    187  NH1      -42.5250   38.7560   20.0910 N.pl3 366  ARG366      0.1354
    188  NH2      -41.9200   39.2460   22.2600 N.pl3 366  ARG366      0.1354
@<TRIPOS>BOND
     1    31    32    1
     2    32    35    1
     3    32    33    1
     4    35    36    1
     5    36    37    1
     6    38    37    1
     7    38    39    1
     8    33    34    2
     9   169   170    1
    10   168   166    1
    11   170   173    1
    12   170   171    1
    13     6     7    1
    14     6     5    1
    15   161   160    2
    16    40    41    1
    17   173   174    1
    18    47    49   ar
    19    47    45   ar
    20   166   167    1
    21   166   165    2
    22     8     7   ar
    23     1     2    1
    24     7     9   ar
    25   160   159    1
    26    78    77    2
    27   165   164    1
    28    44    45    1
    29    44    41    1
    30    49    48   ar
    31    82    81   ar
    32     2     5    1
    33     2     3    1
    34   174   175    1
    35    45    46   ar
    36    41    42    1
    37   103   102    2
    38   157   155    1
    39    77    76    1
    40   171   172    2
    41   163   164    1
    42   163   162    1
    43   177   175   ar
    44   175   176   ar
    45    30    29    1
    46    80    81    1
    47    80    79    1
    48   102   101    1
    49   156   155    1
    50    81    83   ar
    51   159   162    1
    52   159   158    1
    53    48    46   ar
    54   155   154    2
    55     3     4    2
    56    42    43    2
    57    76    79    1
    58    76    75    1
    59   104   101    1
    60   104   105    1
    61    29    28   ar
    62    29    27   ar
    63   101   100    1
    64   154   153    1
    65    28    26   ar
    66    27    25   ar
    67   106   105   ar
    68   106   108   ar
    69   105   107   ar
    70   187   186    1
    71   153   152    1
    72    26    24   ar
    73   178   179    1
    74   183   184    1
    75   183   182    1
    76   152   151    1
    77    25    24   ar
    78    58    56   ar
    79   108   109   ar
    80    10    11    1
    81   184   185    1
    82   107   109   ar
    83    24    23    1
    84    15    16    1
    85    15    14    1
    86   186   185    2
    87   186   188    1
    88   179   182    1
    89   179   180    1
    90    11    14    1
    91    11    12    1
    92   147   148    1
    93    55    56    1
    94    55    54    1
    95    56    57   ar
    96    18    16   ar
    97   151   148    1
    98    21    20    1
    99    21    22    2
   100    50    51    1
   101    99    98    2
   102   148   149    1
   103    16    17   ar
   104    20    23    1
   105    20    19    1
   106    12    13    2
   107    51    54    1
   108    51    52    1
   109    98    97    1
   110   180   181    2
   111    69    68    2
   112   140   139   ar
   113   149   150    2
   114    68    67    1
   115    52    53    2
   116    52    59   am
   117    97    96    1
   118    59    60    1
   119   139   141   ar
   120   139   138    1
   121    65    63    1
   122   136   135    2
   123    67    70    1
   124    67    66    1
   125   120   118    1
   126    71    70    1
   127    71    72    1
   128   137   138    1
   129   137   134    1
   130    60    63    1
   131    60    61    1
   132    63    64    1
   133    72    73    2
   134    72    74   am
   135   135   134    1
   136   135   142   am
   137   118   119    1
   138   118   117    2
   139   134   133    1
   140    61    62    2
   141    91    89   am
   142   117   116    1
   143    95    94    2
   144   143   142    1
   145   143   144    1
   146   143   146    1
   147   144   145    2
   148   124   123    2
   149   133   123   am
   150    94    93    1
   151    89    88    1
   152    89    90    2
   153   116   115    1
   154   123   122    1
   155    88    85    1
   156    93    92    1
   157   115   114    1
   158    92    86   am
   159    86    85    1
   160    86    87    2
   161   122   121    1
   162   122   125    1
   163    85    84    1
   164   125   126    1
   165   114   111    1
   166   113   112    2
   167   112   111    1
   168   111   110    1
   169   126   127   ar
   170   126   128   ar
   171   127   129   ar
   172   128   130   ar
   173   129   131   ar
   174   130   131   ar
   175   131   132    1
