@<TRIPOS>MOLECULE
tmp/2whiB03.pdb
 96 91 0 0 0
SMALL
GASTEIGER

@<TRIPOS>ATOM
      1  N        -28.7080   17.0850   25.2390 N.3    27  PRO27      -0.2116
      2  CA       -29.1540   18.3890   25.7530 C.3    27  PRO27       0.1372
      3  C        -29.1140   19.5350   24.7340 C.2    27  PRO27       0.2244
      4  O        -29.9610   20.4230   24.8150 O.2    27  PRO27      -0.2868
      5  CB       -28.1940   18.6530   26.9150 C.3    27  PRO27       0.0268
      6  CG       -27.8020   17.2700   27.3700 C.3    27  PRO27       0.0207
      7  CD       -27.6350   16.5190   26.0820 C.3    27  PRO27       0.0892
      8  N        -25.6250   20.7230   22.9650 N.3    29  ILE29      -0.1245
      9  CA       -24.2700   21.2880   22.7680 C.3    29  ILE29       0.1561
     10  C        -23.5030   20.5140   21.6850 C.2    29  ILE29       0.2260
     11  O        -23.4400   19.2770   21.7140 O.2    29  ILE29      -0.2867
     12  CB       -23.4150   21.2350   24.0940 C.3    29  ILE29       0.0252
     13  CG1      -24.1040   21.9720   25.2560 C.3    29  ILE29       0.0019
     14  CG2      -21.9940   21.7250   23.8680 C.3    29  ILE29       0.0019
     15  CD1      -24.1840   23.4970   25.1370 C.3    29  ILE29       0.0001
     16  N        -20.2000    6.8620   25.4990 N.3    54  SER54      -0.1202
     17  CA       -20.4480    6.9190   26.9520 C.3    54  SER54       0.2020
     18  C        -20.0610    8.2520   27.5990 C.2    54  SER54       0.2619
     19  O        -20.4870    8.5470   28.7270 O.2    54  SER54      -0.2717
     20  CB       -19.7500    5.7640   27.6840 C.3    54  SER54       0.2103
     21  OG       -18.3570    5.9930   27.8520 O.3    54  SER54      -0.2182
     22  N        -19.2500    9.0470   26.8930 N.am   55  SER55      -0.1937
     23  CA       -18.8090   10.3460   27.3990 C.3    55  SER55       0.2055
     24  C        -19.7180   11.4720   26.9110 C.2    55  SER55       0.2643
     25  O        -19.5300   12.6370   27.2820 O.2    55  SER55      -0.2714
     26  CB       -17.3560   10.6200   27.0110 C.3    55  SER55       0.2130
     27  OG       -16.4680    9.8100   27.7640 O.3    55  SER55      -0.2179
     28  N        -20.7020   11.1170   26.0870 N.am   56  ILE56      -0.1963
     29  CA       -21.6460   12.0820   25.5310 C.3    56  ILE56       0.1727
     30  C        -22.9870   11.9640   26.2520 C.2    56  ILE56       0.2616
     31  O        -23.5040   10.8620   26.4210 O.2    56  ILE56      -0.2715
     32  CB       -21.8440   11.8760   24.0070 C.3    56  ILE56       0.0290
     33  CG1      -20.4990   11.9180   23.2600 C.3    56  ILE56       0.0022
     34  CG2      -22.8420   12.8860   23.4490 C.3    56  ILE56       0.0023
     35  CD1      -19.6710   13.1860   23.4670 C.3    56  ILE56       0.0001
     36  N        -23.5400   13.1020   26.6660 N.am   57  ARG57      -0.1977
     37  CA       -24.7520   13.1190   27.4830 C.3    57  ARG57       0.1597
     38  C        -25.9810   12.6480   26.7160 C.2    57  ARG57       0.2287
     39  O        -26.2350   13.0870   25.5850 O.2    57  ARG57      -0.2864
     40  CB       -24.9840   14.5080   28.0700 C.3    57  ARG57       0.0334
     41  CG       -23.9060   14.9320   29.0690 C.3    57  ARG57       0.0492
     42  CD       -24.0950   16.3660   29.5000 C.3    57  ARG57       0.2205
     43  NE       -24.0260   17.2510   28.3470 N.pl3  57  ARG57      -0.0865
     44  CZ       -24.4860   18.4930   28.3240 C.cat  57  ARG57       0.5346
     45  NH1      -25.0480   19.0020   29.4010 N.pl3  57  ARG57       0.1354
     46  NH2      -24.3890   19.2170   27.2140 N.pl3  57  ARG57       0.1354
     47  N        -34.9990   24.1170   30.5050 N.3   321  THR321     -0.1218
     48  CA       -34.1160   24.2850   31.6770 C.3   321  THR321      0.1862
     49  C        -34.8480   24.8750   32.8800 C.2   321  THR321      0.2287
     50  O        -35.9330   25.4130   32.7260 O.2   321  THR321     -0.2866
     51  CB       -32.8550   25.1250   31.3340 C.3   321  THR321      0.1770
     52  OG1      -33.2320   26.4540   30.9460 O.3   321  THR321     -0.2211
     53  CG2      -32.0580   24.4620   30.2140 C.3   321  THR321      0.0375
     54  N        -31.9740   27.6590   25.4760 N.3   371  SER371     -0.1217
     55  CA       -31.2620   26.8980   26.5070 C.3   371  SER371      0.1889
     56  C        -31.2350   25.3770   26.3020 C.2   371  SER371      0.2288
     57  O        -30.8020   24.6370   27.1970 O.2   371  SER371     -0.2866
     58  CB       -31.8130   27.2300   27.8910 C.3   371  SER371      0.2089
     59  OG       -33.1140   26.7030   28.0540 O.3   371  SER371     -0.2183
     60  N        -32.7080   12.5550   32.4950 N.3   452  PHE452     -0.1227
     61  CA       -31.6160   13.5410   32.5110 C.3   452  PHE452      0.1736
     62  C        -31.9830   14.8320   33.2410 C.2   452  PHE452      0.2595
     63  O        -31.2040   15.3300   34.0520 O.2   452  PHE452     -0.2718
     64  CB       -31.1210   13.8770   31.0880 C.3   452  PHE452      0.0547
     65  CG       -29.9230   14.7900   31.0710 C.ar  452  PHE452     -0.0202
     66  CD1      -28.6310   14.2640   31.1020 C.ar  452  PHE452     -0.0042
     67  CD2      -30.0850   16.1760   31.0600 C.ar  452  PHE452     -0.0042
     68  CE1      -27.5050   15.1070   31.1040 C.ar  452  PHE452     -0.0003
     69  CE2      -28.9830   17.0310   31.0710 C.ar  452  PHE452     -0.0003
     70  CZ       -27.6810   16.4950   31.0870 C.ar  452  PHE452     -0.0000
     71  N        -33.1600   15.3770   32.9410 N.am  453  LYS453     -0.1980
     72  CA       -33.5830   16.6540   33.5110 C.3   453  LYS453      0.1596
     73  C        -33.8060   16.5450   35.0130 C.2   453  LYS453      0.2287
     74  O        -33.4090   17.4460   35.7630 O.2   453  LYS453     -0.2864
     75  CB       -34.8350   17.1940   32.8060 C.3   453  LYS453      0.0298
     76  CG       -34.6230   17.5390   31.3110 C.3   453  LYS453      0.0038
     77  CD       -33.6910   18.7260   31.1390 C.3   453  LYS453      0.0206
     78  CE       -33.2730   18.9440   29.7010 C.3   453  LYS453      0.1093
     79  NZ       -32.4390   20.1860   29.6150 N.3   453  LYS453     -0.1314
     80  N        -30.0670   15.5550   36.7290 N.3   456  ASN456     -0.1225
     81  CA       -28.9800   16.5010   36.4900 C.3   456  ASN456      0.1785
     82  C        -29.3270   17.9860   36.6530 C.2   456  ASN456      0.2597
     83  O        -28.4260   18.8130   36.7250 O.2   456  ASN456     -0.2718
     84  CB       -28.3740   16.2580   35.1090 C.3   456  ASN456      0.1169
     85  CG       -27.7910   14.8690   34.9710 C.2   456  ASN456      0.2627
     86  OD1      -26.7340   14.5730   35.5290 O.2   456  ASN456     -0.2716
     87  ND2      -28.4700   14.0110   34.2280 N.am  456  ASN456     -0.0877
     88  N        -30.6170   18.3180   36.7160 N.am  457  GLU457     -0.1979
     89  CA       -31.0510   19.7210   36.7390 C.3   457  GLU457      0.1602
     90  C        -32.0540   20.0290   37.8450 C.2   457  GLU457      0.2287
     91  O        -31.7600   20.8220   38.7400 O.2   457  GLU457     -0.2864
     92  CB       -31.6080   20.1540   35.3810 C.3   457  GLU457      0.0415
     93  CG       -30.6040   20.0800   34.2470 C.3   457  GLU457      0.1163
     94  CD       -31.2010   20.4630   32.8990 C.2   457  GLU457      0.3649
     95  OE1      -30.8940   19.7820   31.9080 O.co2 457  GLU457     -0.2457
     96  OE2      -31.9650   21.4380   32.8230 O.co2 457  GLU457     -0.2457
@<TRIPOS>BOND
     1    10    11    2
     2    10     9    1
     3     9     8    1
     4     9    12    1
     5    33    35    1
     6    33    32    1
     7    34    32    1
     8    14    12    1
     9    32    29    1
    10    12    13    1
    11     3     4    2
    12     3     2    1
    13    15    13    1
    14     1     2    1
    15     1     7    1
    16    54    55    1
    17    16    17    1
    18    29    28    1
    19    29    30    1
    20    39    38    2
    21     2     5    1
    22     7     6    1
    23    28    24   am
    24    30    31    2
    25    30    36   am
    26    56    55    1
    27    56    57    2
    28    55    58    1
    29    36    37    1
    30    38    37    1
    31    22    23    1
    32    22    18   am
    33    24    25    2
    34    24    23    1
    35     5     6    1
    36    17    18    1
    37    17    20    1
    38    26    23    1
    39    26    27    1
    40    46    44    1
    41    37    40    1
    42    18    19    2
    43    20    21    1
    44    58    59    1
    45    40    41    1
    46    44    43    2
    47    44    45    1
    48    43    42    1
    49    41    42    1
    50    79    78    1
    51    78    77    1
    52    53    51    1
    53    47    48    1
    54    52    51    1
    55    67    69   ar
    56    67    65   ar
    57    69    70   ar
    58    65    64    1
    59    65    66   ar
    60    70    68   ar
    61    64    61    1
    62    66    68   ar
    63    77    76    1
    64    76    75    1
    65    51    48    1
    66    48    49    1
    67    95    94   ar
    68    60    61    1
    69    61    62    1
    70    50    49    2
    71    75    72    1
    72    96    94   ar
    73    94    93    1
    74    71    62   am
    75    71    72    1
    76    62    63    2
    77    72    73    1
    78    87    85   am
    79    93    92    1
    80    85    84    1
    81    85    86    2
    82    73    74    2
    83    84    81    1
    84    92    89    1
    85    81    82    1
    86    81    80    1
    87    82    88   am
    88    82    83    2
    89    88    89    1
    90    89    90    1
    91    90    91    2
