@<TRIPOS>MOLECULE
tmp/2whkA00.pdb
 135 138 0 0 0
SMALL
GASTEIGER

@<TRIPOS>ATOM
      1  N         -5.6150   19.6750   11.1420 N.3    40  TYR40      -0.1241
      2  CA        -7.0050   20.0870   10.8970 C.3    40  TYR40       0.1605
      3  C         -7.3030   21.4060   11.6070 C.2    40  TYR40       0.2264
      4  O         -6.9630   21.5730   12.7730 O.2    40  TYR40      -0.2867
      5  CB        -7.9760   18.9930   11.3680 C.3    40  TYR40       0.0534
      6  CG        -7.7530   17.6730   10.6800 C.ar   40  TYR40      -0.0201
      7  CD1       -6.8370   16.7540   11.1700 C.ar   40  TYR40      -0.0009
      8  CD2       -8.4350   17.3550    9.5150 C.ar   40  TYR40      -0.0009
      9  CE1       -6.6160   15.5470   10.5200 C.ar   40  TYR40       0.0417
     10  CE2       -8.2250   16.1660    8.8620 C.ar   40  TYR40       0.0417
     11  CZ        -7.3160   15.2620    9.3620 C.ar   40  TYR40       0.1957
     12  OH        -7.1170   14.0880    8.6960 O.3    40  TYR40      -0.2866
     13  N        -11.7920   16.8800    4.8460 N.3   105  HIS105     -0.1241
     14  CA       -12.3990   15.6530    5.3430 C.3   105  HIS105      0.1621
     15  C        -13.8790   15.9430    5.6180 C.2   105  HIS105      0.2264
     16  O        -14.3150   16.0030    6.7610 O.2   105  HIS105     -0.2867
     17  CB       -11.6580   15.1460    6.5800 C.3   105  HIS105      0.0745
     18  CG       -10.4140   14.3760    6.2580 C.ar  105  HIS105      0.0817
     19  ND1       -9.3000   14.9580    5.6930 N.ar  105  HIS105     -0.2268
     20  CD2      -10.1140   13.0650    6.4120 C.ar  105  HIS105      0.1154
     21  CE1       -8.3630   14.0430    5.5310 C.ar  105  HIS105      0.1986
     22  NE2       -8.8340   12.8830    5.9500 N.ar  105  HIS105     -0.2212
     23  N        -18.3480   11.3160    8.2280 N.3   116  PHE116     -0.1227
     24  CA       -17.4680   11.4000    7.0610 C.3   116  PHE116      0.1736
     25  C        -17.0340   10.0540    6.4840 C.2   116  PHE116      0.2595
     26  O        -16.6940    9.9760    5.3090 O.2   116  PHE116     -0.2718
     27  CB       -16.2420   12.2990    7.3490 C.3   116  PHE116      0.0547
     28  CG       -15.1650   11.6650    8.2140 C.ar  116  PHE116     -0.0202
     29  CD1      -15.4640   10.9680    9.3770 C.ar  116  PHE116     -0.0042
     30  CD2      -13.8270   11.8170    7.8700 C.ar  116  PHE116     -0.0042
     31  CE1      -14.4530   10.4030   10.1480 C.ar  116  PHE116     -0.0003
     32  CE2      -12.8100   11.2650    8.6440 C.ar  116  PHE116     -0.0003
     33  CZ       -13.1300   10.5540    9.7920 C.ar  116  PHE116     -0.0000
     34  N        -17.0350    9.0060    7.3110 N.am  117  LYS117     -0.1980
     35  CA       -16.6410    7.6650    6.8800 C.3   117  LYS117      0.1596
     36  C        -17.7850    6.6480    7.0290 C.2   117  LYS117      0.2287
     37  O        -17.5530    5.4370    7.1810 O.2   117  LYS117     -0.2864
     38  CB       -15.4010    7.2070    7.6650 C.3   117  LYS117      0.0298
     39  CG       -14.1260    7.9160    7.2220 C.3   117  LYS117      0.0038
     40  CD       -12.8950    7.3700    7.9280 C.3   117  LYS117      0.0206
     41  CE       -11.6220    7.8950    7.2770 C.3   117  LYS117      0.1093
     42  NZ       -10.3670    7.4210    7.9520 N.3   117  LYS117     -0.1314
     43  N        -10.6010   13.4690   -1.9980 N.3   166  HIS166     -0.1226
     44  CA        -9.4610   12.5870   -2.1850 C.3   166  HIS166      0.1752
     45  C         -9.7750   11.1280   -1.8450 C.2   166  HIS166      0.2595
     46  O        -10.7670   10.8450   -1.1780 O.2   166  HIS166     -0.2718
     47  CB        -8.2680   13.0810   -1.3540 C.3   166  HIS166      0.0759
     48  CG        -8.4780   13.0820    0.1320 C.ar  166  HIS166      0.0818
     49  ND1       -9.4650   13.8160    0.7590 N.ar  166  HIS166     -0.2268
     50  CD2       -7.7740   12.4790    1.1210 C.ar  166  HIS166      0.1154
     51  CE1       -9.3670   13.6520    2.0680 C.ar  166  HIS166      0.1986
     52  NE2       -8.3470   12.8460    2.3130 N.ar  166  HIS166     -0.2212
     53  N         -8.9190   10.2200   -2.3100 N.am  167  GLU167     -0.1979
     54  CA        -9.0070    8.7970   -1.9580 C.3   167  GLU167      0.1602
     55  C        -10.3890    8.2270   -2.2880 C.2   167  GLU167      0.2287
     56  O        -10.9600    7.4220   -1.5330 O.2   167  GLU167     -0.2864
     57  CB        -8.6290    8.6150   -0.4800 C.3   167  GLU167      0.0415
     58  CG        -7.1680    8.9770   -0.2390 C.3   167  GLU167      0.1163
     59  CD        -6.7080    8.9670    1.2080 C.2   167  GLU167      0.3649
     60  OE1       -7.4470    8.5120    2.1140 O.co2 167  GLU167     -0.2457
     61  OE2       -5.5600    9.4260    1.4380 O.co2 167  GLU167     -0.2457
     62  N        -13.5740    4.1370    2.3630 N.3   172  TRP172     -0.1227
     63  CA       -13.8040    4.7680    3.6650 C.3   172  TRP172      0.1737
     64  C        -14.6660    6.0330    3.6200 C.2   172  TRP172      0.2595
     65  O        -15.6660    6.1250    4.3330 O.2   172  TRP172     -0.2718
     66  CB       -12.4820    5.0110    4.4250 C.3   172  TRP172      0.0564
     67  CG       -11.3350    5.5110    3.6050 C.ar  172  TRP172      0.0003
     68  CD1      -10.9420    6.8070    3.4560 C.ar  172  TRP172      0.0946
     69  CD2      -10.4120    4.7210    2.8510 C.ar  172  TRP172      0.0152
     70  NE1       -9.8350    6.8720    2.6460 N.ar  172  TRP172     -0.2442
     71  CE2       -9.4940    5.6060    2.2550 C.ar  172  TRP172      0.0810
     72  CE3      -10.2780    3.3480    2.6140 C.ar  172  TRP172      0.0012
     73  CZ2       -8.4580    5.1670    1.4320 C.ar  172  TRP172      0.0191
     74  CZ3       -9.2470    2.9080    1.8030 C.ar  172  TRP172      0.0001
     75  CH2       -8.3500    3.8180    1.2140 C.ar  172  TRP172      0.0015
     76  N        -14.2940    7.0200    2.8030 N.am  173  PHE173     -0.1976
     77  CA       -15.0470    8.2770    2.7800 C.3   173  PHE173      0.1639
     78  C        -16.4050    8.1070    2.1000 C.2   173  PHE173      0.2290
     79  O        -16.5560    7.2960    1.1960 O.2   173  PHE173     -0.2864
     80  CB       -14.2720    9.3850    2.0500 C.3   173  PHE173      0.0560
     81  CG       -12.9860    9.7810    2.7190 C.ar  173  PHE173     -0.0200
     82  CD1      -12.9740   10.1790    4.0450 C.ar  173  PHE173     -0.0042
     83  CD2      -11.7940    9.7990    2.0060 C.ar  173  PHE173     -0.0042
     84  CE1      -11.7890   10.5560    4.6660 C.ar  173  PHE173     -0.0003
     85  CE2      -10.6030   10.1770    2.6180 C.ar  173  PHE173     -0.0003
     86  CZ       -10.6040   10.5620    3.9480 C.ar  173  PHE173     -0.0000
     87  N          0.8600    5.4550    1.0630 N.3   242  TYR242     -0.1241
     88  CA         1.3770    4.9720    2.3340 C.3   242  TYR242      0.1605
     89  C          1.9570    3.5860    2.0840 C.2   242  TYR242      0.2264
     90  O          1.2710    2.7030    1.5790 O.2   242  TYR242     -0.2867
     91  CB         0.2760    4.9700    3.3890 C.3   242  TYR242      0.0534
     92  CG        -0.1660    6.3670    3.7370 C.ar  242  TYR242     -0.0201
     93  CD1       -1.1630    7.0120    3.0050 C.ar  242  TYR242     -0.0009
     94  CD2        0.4270    7.0600    4.7810 C.ar  242  TYR242     -0.0009
     95  CE1       -1.5600    8.3100    3.3180 C.ar  242  TYR242      0.0417
     96  CE2        0.0390    8.3570    5.0960 C.ar  242  TYR242      0.0417
     97  CZ        -0.9560    8.9780    4.3570 C.ar  242  TYR242      0.1957
     98  OH        -1.3320   10.2570    4.6820 O.3   242  TYR242     -0.2866
     99  N         -0.1120   12.7130   -0.7670 N.3   266  GLU266     -0.1245
    100  CA         0.1450   12.3560    0.6310 C.3   266  GLU266      0.1567
    101  C          1.2180   11.2830    0.6480 C.2   266  GLU266      0.2260
    102  O          1.2650   10.4450   -0.2470 O.2   266  GLU266     -0.2867
    103  CB        -1.1030   11.8150    1.3310 C.3   266  GLU266      0.0388
    104  CG        -2.2130   12.8110    1.5410 C.3   266  GLU266      0.1160
    105  CD        -3.3560   12.2590    2.3890 C.2   266  GLU266      0.3649
    106  OE1       -3.1840   11.1980    3.0290 O.co2 266  GLU266     -0.2457
    107  OE2       -4.4290   12.8950    2.4160 O.co2 266  GLU266     -0.2457
    108  N          2.4340   13.3340    5.6370 N.3   294  TRP294     -0.1241
    109  CA         1.3350   13.5220    6.5820 C.3   294  TRP294      0.1605
    110  C          1.9240   13.8370    7.9650 C.2   294  TRP294      0.2264
    111  O          3.1430   13.8740    8.1250 O.2   294  TRP294     -0.2867
    112  CB         0.3880   12.3140    6.5830 C.3   294  TRP294      0.0550
    113  CG        -1.0350   12.6950    6.8770 C.ar  294  TRP294      0.0003
    114  CD1       -1.7830   12.3160    7.9550 C.ar  294  TRP294      0.0946
    115  CD2       -1.8650   13.5720    6.1050 C.ar  294  TRP294      0.0152
    116  NE1       -3.0290   12.8880    7.8950 N.ar  294  TRP294     -0.2442
    117  CE2       -3.1070   13.6640    6.7690 C.ar  294  TRP294      0.0810
    118  CE3       -1.6860   14.2780    4.9130 C.ar  294  TRP294      0.0012
    119  CZ2       -4.1620   14.4400    6.2830 C.ar  294  TRP294      0.0191
    120  CZ3       -2.7370   15.0420    4.4270 C.ar  294  TRP294      0.0001
    121  CH2       -3.9590   15.1150    5.1110 C.ar  294  TRP294      0.0015
    122  N          3.5460    9.8290   10.7680 N.3   298  TRP298     -0.1241
    123  CA         3.9870    9.7860    9.3790 C.3   298  TRP298      0.1605
    124  C          4.9630   10.8930    9.0150 C.2   298  TRP298      0.2264
    125  O          5.5300   10.8800    7.9220 O.2   298  TRP298     -0.2867
    126  CB         2.7690    9.8890    8.4530 C.3   298  TRP298      0.0550
    127  CG         1.8260    8.7600    8.6240 C.ar  298  TRP298      0.0003
    128  CD1        2.0160    7.4830    8.2150 C.ar  298  TRP298      0.0946
    129  CD2        0.5480    8.7940    9.2670 C.ar  298  TRP298      0.0152
    130  NE1        0.9350    6.7030    8.5610 N.ar  298  TRP298     -0.2442
    131  CE2        0.0180    7.4870    9.2090 C.ar  298  TRP298      0.0810
    132  CE3       -0.2000    9.7980    9.8910 C.ar  298  TRP298      0.0012
    133  CZ2       -1.2310    7.1590    9.7470 C.ar  298  TRP298      0.0191
    134  CZ3       -1.4470    9.4720   10.4230 C.ar  298  TRP298      0.0001
    135  CH2       -1.9470    8.1640   10.3460 C.ar  298  TRP298      0.0015
@<TRIPOS>BOND
     1    53    54    1
     2    53    45   am
     3    55    54    1
     4    55    56    2
     5    44    43    1
     6    44    45    1
     7    44    47    1
     8    54    57    1
     9    45    46    2
    10    47    48    1
    11    99   100    1
    12    57    58    1
    13   102   101    2
    14    58    59    1
    15    48    49   ar
    16    48    50   ar
    17   100   101    1
    18   100   103    1
    19    49    51   ar
    20    87    88    1
    21    50    52   ar
    22    79    78    2
    23    59    61   ar
    24    59    60   ar
    25    75    73   ar
    26    75    74   ar
    27   103   104    1
    28    73    71   ar
    29   104   105    1
    30    90    89    2
    31    74    72   ar
    32    83    85   ar
    33    83    81   ar
    34    80    81    1
    35    80    77    1
    36    51    52   ar
    37    89    88    1
    38    78    77    1
    39    71    70   ar
    40    71    69   ar
    41    88    91    1
    42    62    63    1
    43   105   107   ar
    44   105   106   ar
    45    72    69   ar
    46    85    86   ar
    47    70    68   ar
    48    81    82   ar
    49    77    76    1
    50    76    64   am
    51    69    67   ar
    52    93    95   ar
    53    93    92   ar
    54    95    97   ar
    55    91    92    1
    56    68    67   ar
    57    67    66    1
    58    64    63    1
    59    64    65    2
    60    63    66    1
    61    92    94   ar
    62    86    84   ar
    63    82    84   ar
    64    97    98    1
    65    97    96   ar
    66   120   118   ar
    67   120   121   ar
    68    94    96   ar
    69    13    14    1
    70   118   115   ar
    71   121   119   ar
    72    26    25    2
    73    14    15    1
    74    14    17    1
    75    21    19   ar
    76    21    22   ar
    77    15    16    2
    78   108   109    1
    79    19    18   ar
    80    22    20   ar
    81   115   117   ar
    82   115   113   ar
    83    18    20   ar
    84    18    17    1
    85   119   117   ar
    86    25    24    1
    87    25    34   am
    88   109   112    1
    89   109   110    1
    90   112   113    1
    91   117   116   ar
    92   113   114   ar
    93    35    36    1
    94    35    34    1
    95    35    38    1
    96    36    37    2
    97    24    27    1
    98    24    23    1
    99    39    38    1
   100    39    40    1
   101    41    40    1
   102    41    42    1
   103    27    28    1
   104    30    28   ar
   105    30    32   ar
   106   116   114   ar
   107   125   124    2
   108   110   111    2
   109    28    29   ar
   110   128   130   ar
   111   128   127   ar
   112   126   127    1
   113   126   123    1
   114   130   131   ar
   115   127   129   ar
   116    32    33   ar
   117    12    11    1
   118    10    11   ar
   119    10     8   ar
   120   124   123    1
   121   131   129   ar
   122   131   133   ar
   123   129   132   ar
   124    11     9   ar
   125    29    31   ar
   126   123   122    1
   127     8     6   ar
   128   133   135   ar
   129    33    31   ar
   130   132   134   ar
   131   135   134   ar
   132     9     7   ar
   133     6     7   ar
   134     6     5    1
   135     2     1    1
   136     2     5    1
   137     2     3    1
   138     3     4    2
