@<TRIPOS>MOLECULE
tmp/2whlA00.pdb
 111 113 0 0 0
SMALL
GASTEIGER

@<TRIPOS>ATOM
      1  N         25.8230   37.3020   15.8050 N.3    28  TRP28      -0.1227
      2  CA        26.6720   38.5060   15.5330 C.3    28  TRP28       0.1737
      3  C         26.8710   39.4140   16.7440 C.2    28  TRP28       0.2595
      4  O         27.6460   40.4280   16.6830 O.2    28  TRP28      -0.2718
      5  CB        26.0900   39.3220   14.3590 C.3    28  TRP28       0.0564
      6  CG        25.7860   38.4800   13.2060 C.ar   28  TRP28       0.0003
      7  CD1       26.6360   37.6830   12.5650 C.ar   28  TRP28       0.0946
      8  CD2       24.4660   38.2450   12.5990 C.ar   28  TRP28       0.0152
      9  NE1       26.0310   37.0210   11.5610 N.ar   28  TRP28      -0.2442
     10  CE2       24.6720   37.3280   11.5530 C.ar   28  TRP28       0.0810
     11  CE3       23.1560   38.7730   12.7710 C.ar   28  TRP28       0.0012
     12  CZ2       23.6330   36.8850   10.7240 C.ar   28  TRP28       0.0191
     13  CZ3       22.1070   38.3030   11.9220 C.ar   28  TRP28       0.0001
     14  CH2       22.3470   37.3730   10.9370 C.ar   28  TRP28       0.0015
     15  N         26.1530   39.0860   17.8270 N.am   29  TYR29      -0.1976
     16  CA        26.1410   39.8920   19.0480 C.3    29  TYR29       0.1639
     17  C         26.0370   38.9210   20.2480 C.2    29  TYR29       0.2290
     18  O         25.0880   38.9920   21.0650 O.2    29  TYR29      -0.2864
     19  CB        24.8760   40.7480   19.0120 C.3    29  TYR29       0.0560
     20  CG        24.8730   41.7730   17.8850 C.ar   29  TYR29      -0.0198
     21  CD1       25.6070   42.9660   17.9790 C.ar   29  TYR29      -0.0009
     22  CD2       24.1500   41.5480   16.7220 C.ar   29  TYR29      -0.0009
     23  CE1       25.5990   43.8880   16.9570 C.ar   29  TYR29       0.0417
     24  CE2       24.1540   42.4660   15.6860 C.ar   29  TYR29       0.0417
     25  CZ        24.8590   43.6420   15.8150 C.ar   29  TYR29       0.1957
     26  OH        24.8100   44.5570   14.7590 O.3    29  TYR29      -0.2866
     27  N         30.4240   33.3330    9.6840 N.3    58  TRP58      -0.1241
     28  CA        30.6070   34.1480   10.8980 C.3    58  TRP58       0.1605
     29  C         31.3250   33.2830   11.9650 C.2    58  TRP58       0.2264
     30  O         31.7940   32.1320   11.6870 O.2    58  TRP58      -0.2867
     31  CB        29.2600   34.7660   11.3290 C.3    58  TRP58       0.0550
     32  CG        28.6810   35.5390   10.2030 C.ar   58  TRP58       0.0003
     33  CD1       29.0750   36.7500    9.7630 C.ar   58  TRP58       0.0946
     34  CD2       27.6060   35.1480    9.3480 C.ar   58  TRP58       0.0152
     35  NE1       28.3740   37.1330    8.6720 N.ar   58  TRP58      -0.2442
     36  CE2       27.4490   36.1680    8.3950 C.ar   58  TRP58       0.0810
     37  CE3       26.7550   34.0380    9.2940 C.ar   58  TRP58       0.0012
     38  CZ2       26.4600   36.1250    7.4230 C.ar   58  TRP58       0.0191
     39  CZ3       25.8120   34.0030    8.3030 C.ar   58  TRP58       0.0001
     40  CH2       25.6620   35.0210    7.4080 C.ar   58  TRP58       0.0015
     41  N         22.6110   30.0790   10.0500 N.3    85  HIS85      -0.1241
     42  CA        22.3840   31.2020    9.0990 C.3    85  HIS85       0.1621
     43  C         23.3880   31.2600    7.9270 C.2    85  HIS85       0.2264
     44  O         23.1960   32.0140    6.9720 O.2    85  HIS85      -0.2867
     45  CB        22.4230   32.5500    9.8640 C.3    85  HIS85       0.0745
     46  CG        21.5240   33.6250    9.3180 C.ar   85  HIS85       0.0817
     47  ND1       20.2110   33.7580    9.7260 N.ar   85  HIS85      -0.2268
     48  CD2       21.7420   34.6250    8.4040 C.ar   85  HIS85       0.1154
     49  CE1       19.6740   34.7930    9.1090 C.ar   85  HIS85       0.1986
     50  NE2       20.5490   35.3120    8.2730 N.ar   85  HIS85      -0.2212
     51  N         22.5770   30.9780    4.0000 N.3    88  THR88      -0.1218
     52  CA        21.5280   31.9110    3.5140 C.3    88  THR88       0.1862
     53  C         21.6920   32.2000    2.0160 C.2    88  THR88       0.2287
     54  O         22.7060   32.7380    1.6170 O.2    88  THR88      -0.2866
     55  CB        21.5960   33.2110    4.3180 C.3    88  THR88       0.1770
     56  OG1       21.2350   32.8980    5.6670 O.3    88  THR88      -0.2211
     57  CG2       20.6750   34.3240    3.7530 C.3    88  THR88       0.0375
     58  N         11.1930   39.9850   12.1530 N.3   246  TRP246     -0.1241
     59  CA        12.6430   40.2300   12.0170 C.3   246  TRP246      0.1605
     60  C         12.9090   41.7210   12.2130 C.2   246  TRP246      0.2264
     61  O         12.2100   42.5410   11.5760 O.2   246  TRP246     -0.2867
     62  CB        13.1030   39.8630   10.5890 C.3   246  TRP246      0.0550
     63  CG        14.5440   40.0350   10.4350 C.ar  246  TRP246      0.0003
     64  CD1       15.2050   41.2310   10.1470 C.ar  246  TRP246      0.0946
     65  CD2       15.5710   39.0580   10.7020 C.ar  246  TRP246      0.0152
     66  NE1       16.5530   41.0230   10.1090 N.ar  246  TRP246     -0.2442
     67  CE2       16.8420   39.7120   10.4640 C.ar  246  TRP246      0.0810
     68  CE3       15.5860   37.7080   11.0670 C.ar  246  TRP246      0.0012
     69  CZ2       18.1100   39.0730   10.6130 C.ar  246  TRP246      0.0191
     70  CZ3       16.9150   37.0630   11.1730 C.ar  246  TRP246      0.0001
     71  CH2       18.1440   37.7320   10.9870 C.ar  246  TRP246      0.0015
     72  N         20.1470   45.2370   15.7750 N.3   250  GLY250     -0.1210
     73  CA        21.4980   45.0090   15.2900 C.3   250  GLY250      0.1956
     74  C         21.6010   44.8420   13.7780 C.2   250  GLY250      0.2612
     75  O         22.6070   44.4090   13.2660 O.2   250  GLY250     -0.2717
     76  N         20.5150   45.0850   13.0370 N.am  251  ASN251     -0.1960
     77  CA        20.6370   45.0170   11.5760 C.3   251  ASN251      0.1819
     78  C         21.6930   46.0220   11.0830 C.2   251  ASN251      0.2622
     79  O         21.8090   47.0910   11.6540 O.2   251  ASN251     -0.2715
     80  CB        19.3150   45.3430   10.9270 C.3   251  ASN251      0.1195
     81  CG        18.3130   44.1850   11.0480 C.2   251  ASN251      0.2630
     82  OD1       18.4480   43.1740   10.3280 O.2   251  ASN251     -0.2716
     83  ND2       17.4140   44.2610   12.0530 N.am  251  ASN251     -0.0877
     84  N         22.4190   45.6500   10.0470 N.am  252  SER252     -0.1950
     85  CA        23.3190   46.6160    9.4090 C.3   252  SER252      0.1924
     86  C         22.5610   47.8670    8.9200 C.2   252  SER252      0.2314
     87  O         21.3510   47.8610    8.7570 O.2   252  SER252     -0.2863
     88  CB        24.0940   45.9100    8.2880 C.3   252  SER252      0.2116
     89  OG        23.2360   45.5680    7.2190 O.3   252  SER252     -0.2180
     90  N         19.5870   47.7240    6.5340 N.3   255  TRP255     -0.1241
     91  CA        18.3910   47.0070    7.0260 C.3   255  TRP255      0.1605
     92  C         17.9610   47.4810    8.4020 C.2   255  TRP255      0.2264
     93  O         17.1320   46.8230    9.0060 O.2   255  TRP255     -0.2867
     94  CB        18.6990   45.5000    7.0760 C.3   255  TRP255      0.0550
     95  CG        19.1920   44.9470    5.7830 C.ar  255  TRP255      0.0003
     96  CD1       20.5010   44.6460    5.4530 C.ar  255  TRP255      0.0946
     97  CD2       18.4060   44.6240    4.6500 C.ar  255  TRP255      0.0152
     98  NE1       20.5550   44.1520    4.1650 N.ar  255  TRP255     -0.2442
     99  CE2       19.2840   44.1300    3.6520 C.ar  255  TRP255      0.0810
    100  CE3       17.0440   44.7410    4.3540 C.ar  255  TRP255      0.0012
    101  CZ2       18.8290   43.7380    2.3760 C.ar  255  TRP255      0.0191
    102  CZ3       16.5950   44.3390    3.1040 C.ar  255  TRP255      0.0001
    103  CH2       17.4780   43.8370    2.1320 C.ar  255  TRP255      0.0015
    104  N         14.4970   47.5160   10.1390 N.3   258  LEU258     -0.1245
    105  CA        13.9860   46.2880   10.6790 C.3   258  LEU258      0.1561
    106  C         14.2270   46.0830   12.1650 C.2   258  LEU258      0.2260
    107  O         13.7770   45.0840   12.7420 O.2   258  LEU258     -0.2867
    108  CB        14.3720   45.0900    9.8480 C.3   258  LEU258      0.0270
    109  CG        13.7950   45.0030    8.4300 C.3   258  LEU258      0.0019
    110  CD1       14.5570   43.8630    7.6280 C.3   258  LEU258      0.0001
    111  CD2       12.2450   44.8860    8.3800 C.3   258  LEU258      0.0001
@<TRIPOS>BOND
     1    54    53    2
     2    53    52    1
     3   103   101   ar
     4   103   102   ar
     5   101    99   ar
     6   102   100   ar
     7    52    51    1
     8    52    55    1
     9    99    98   ar
    10    99    97   ar
    11    57    55    1
    12    98    96   ar
    13    55    56    1
    14   100    97   ar
    15    97    95   ar
    16    96    95   ar
    17    95    94    1
    18    90    91    1
    19    44    43    2
    20    91    94    1
    21    91    92    1
    22    89    88    1
    23    40    38   ar
    24    40    39   ar
    25    38    36   ar
    26   110   109    1
    27    43    42    1
    28    50    48   ar
    29    50    49   ar
    30    88    85    1
    31    39    37   ar
    32   111   109    1
    33    36    35   ar
    34    36    34   ar
    35    92    93    2
    36    48    46   ar
    37   109   108    1
    38    35    33   ar
    39    87    86    2
    40    86    85    1
    41    42    45    1
    42    42    41    1
    43    49    47   ar
    44    37    34   ar
    45    46    47   ar
    46    46    45    1
    47    34    32   ar
    48    85    84    1
    49    27    28    1
    50    33    32   ar
    51   108   105    1
    52    84    78   am
    53    66    64   ar
    54    66    67   ar
    55   104   105    1
    56    64    63   ar
    57    32    31    1
    58    82    81    2
    59    63    62    1
    60    63    65   ar
    61    67    69   ar
    62    67    65   ar
    63    62    59    1
    64    69    71   ar
    65   105   106    1
    66    65    68   ar
    67    12    14   ar
    68    12    10   ar
    69    28    31    1
    70    28    29    1
    71    80    81    1
    72    80    77    1
    73    14    13   ar
    74    71    70   ar
    75    81    83   am
    76    68    70   ar
    77    78    77    1
    78    78    79    2
    79    10     9   ar
    80    10     8   ar
    81     9     7   ar
    82    61    60    2
    83    77    76    1
    84    30    29    2
    85    13    11   ar
    86    59    58    1
    87    59    60    1
    88   106   107    2
    89     7     6   ar
    90     8    11   ar
    91     8     6   ar
    92    76    74   am
    93     6     5    1
    94    75    74    2
    95    74    73    1
    96     5     2    1
    97    26    25    1
    98    73    72    1
    99     2     1    1
   100     2     3    1
   101    24    25   ar
   102    24    22   ar
   103    25    23   ar
   104     4     3    2
   105    22    20   ar
   106     3    15   am
   107    23    21   ar
   108    15    16    1
   109    20    21   ar
   110    20    19    1
   111    19    16    1
   112    16    17    1
   113    17    18    2
