@<TRIPOS>MOLECULE
tmp/2whoA00.pdb
 138 134 0 0 0
SMALL
GASTEIGER

@<TRIPOS>ATOM
      1  N         19.3640   36.4290   76.2920 N.3   419  LEU419     -0.1245
      2  CA        19.4660   37.3520   77.4060 C.3   419  LEU419      0.1561
      3  C         18.7720   36.8050   78.6500 C.2   419  LEU419      0.2260
      4  O         19.3410   36.8290   79.7200 O.2   419  LEU419     -0.2867
      5  CB        18.8100   38.6600   76.9780 C.3   419  LEU419      0.0270
      6  CG        18.8610   39.9410   77.8180 C.3   419  LEU419      0.0019
      7  CD1       18.2860   41.0700   76.9590 C.3   419  LEU419      0.0001
      8  CD2       18.0460   39.8740   79.0340 C.3   419  LEU419      0.0001
      9  N         20.1860   33.4140   80.2620 N.3   422  ARG422     -0.1231
     10  CA        21.4870   33.6580   80.8870 C.3   422  ARG422      0.1694
     11  C         21.3800   34.4490   82.1670 C.2   422  ARG422      0.2591
     12  O         21.8700   34.0080   83.1830 O.2   422  ARG422     -0.2718
     13  CB        22.4270   34.3600   79.9270 C.3   422  ARG422      0.0321
     14  CG        22.7450   33.5060   78.7270 C.3   422  ARG422      0.0489
     15  CD        24.1400   33.7020   78.2500 C.3   422  ARG422      0.2205
     16  NE        24.2670   34.8630   77.4400 N.pl3 422  ARG422     -0.0865
     17  CZ        25.3900   35.5600   77.2230 C.cat 422  ARG422      0.5346
     18  NH1       26.5550   35.2620   77.7630 N.pl3 422  ARG422      0.1354
     19  NH2       25.3280   36.6030   76.4210 N.pl3 422  ARG422      0.1354
     20  N         20.7150   35.5920   82.1300 N.am  423  MET423     -0.1979
     21  CA        20.6400   36.4530   83.3140 C.3   423  MET423      0.1605
     22  C         19.7090   35.9030   84.3850 C.2   423  MET423      0.2287
     23  O         20.0120   36.0080   85.5660 O.2   423  MET423     -0.2864
     24  CB        20.1950   37.8760   82.9460 C.3   423  MET423      0.0413
     25  CG        21.2820   38.6850   82.2910 C.3   423  MET423      0.0598
     26  SD        20.7970   40.3840   81.9910 S.3   423  MET423     -0.1393
     27  CE        20.7740   40.3310   80.4340 C.3   423  MET423      0.0692
     28  N         27.8050   36.5520   73.9380 N.3   474  LEU474     -0.1231
     29  CA        26.8770   37.4640   73.2610 C.3   474  LEU474      0.1693
     30  C         26.6040   38.7090   74.0880 C.2   474  LEU474      0.2592
     31  O         26.4790   38.6600   75.3100 O.2   474  LEU474     -0.2718
     32  CB        25.5590   36.7820   72.8500 C.3   474  LEU474      0.0284
     33  CG        25.6920   35.5900   71.8690 C.3   474  LEU474      0.0019
     34  CD1       24.3460   35.2340   71.2610 C.3   474  LEU474      0.0001
     35  CD2       26.6980   35.8200   70.7620 C.3   474  LEU474      0.0001
     36  N         26.5190   39.8340   73.3930 N.am  475  HIS475     -0.1962
     37  CA        26.2030   41.1110   74.0130 C.3   475  HIS475      0.1787
     38  C         25.4830   41.9850   72.9740 C.2   475  HIS475      0.2621
     39  O         25.3130   41.5710   71.8120 O.2   475  HIS475     -0.2715
     40  CB        27.4950   41.7680   74.5540 C.3   475  HIS475      0.0785
     41  CG        28.5080   42.0700   73.4970 C.ar  475  HIS475      0.0821
     42  ND1       29.0370   41.1080   72.6610 N.ar  475  HIS475     -0.2267
     43  CD2       29.0960   43.2330   73.1440 C.ar  475  HIS475      0.1154
     44  CE1       29.8870   41.6730   71.8250 C.ar  475  HIS475      0.1986
     45  NE2       29.9390   42.9610   72.0980 N.ar  475  HIS475     -0.2212
     46  N         25.0060   43.1510   73.3920 N.am  476  SER476     -0.1936
     47  CA        24.3670   44.0720   72.4670 C.3   476  SER476      0.2055
     48  C         23.1630   43.3940   71.7760 C.2   476  SER476      0.2643
     49  O         23.1110   43.2390   70.5400 O.2   476  SER476     -0.2714
     50  CB        25.3970   44.5720   71.4500 C.3   476  SER476      0.2130
     51  OG        26.4450   45.2630   72.1230 O.3   476  SER476     -0.2179
     52  N         22.2290   42.9680   72.6180 N.am  477  TYR477     -0.1973
     53  CA        20.9640   42.3950   72.1880 C.3   477  TYR477      0.1639
     54  C         20.0940   43.4710   71.5660 C.2   477  TYR477      0.2290
     55  O         20.3060   44.6680   71.7590 O.2   477  TYR477     -0.2864
     56  CB        20.2350   41.7360   73.3660 C.3   477  TYR477      0.0560
     57  CG        20.8780   40.4500   73.8430 C.ar  477  TYR477     -0.0198
     58  CD1       21.7920   40.4460   74.9120 C.ar  477  TYR477     -0.0009
     59  CD2       20.6010   39.2470   73.2160 C.ar  477  TYR477     -0.0009
     60  CE1       22.3890   39.2630   75.3520 C.ar  477  TYR477      0.0417
     61  CE2       21.1870   38.0550   73.6500 C.ar  477  TYR477      0.0417
     62  CZ        22.0810   38.0730   74.7160 C.ar  477  TYR477      0.1957
     63  OH        22.6520   36.9120   75.1340 O.3   477  TYR477     -0.2866
     64  N         15.4150   43.0310   74.2090 N.3   482  ILE482     -0.1245
     65  CA        15.6060   43.6090   75.5430 C.3   482  ILE482      0.1561
     66  C         14.2530   44.1140   76.0680 C.2   482  ILE482      0.2260
     67  O         13.8570   43.8690   77.2120 O.2   482  ILE482     -0.2867
     68  CB        16.5870   44.7890   75.4970 C.3   482  ILE482      0.0252
     69  CG1       18.0250   44.3250   75.2460 C.3   482  ILE482      0.0019
     70  CG2       16.5130   45.5900   76.8030 C.3   482  ILE482      0.0019
     71  CD1       18.8920   45.4140   74.6350 C.3   482  ILE482      0.0001
     72  N         12.2610   42.8150   79.5230 N.3   486  ALA486     -0.1245
     73  CA        12.0000   43.7500   80.6210 C.3   486  ALA486      0.1562
     74  C         10.5150   43.9020   80.9100 C.2   486  ALA486      0.2260
     75  O         10.1010   43.8880   82.0690 O.2   486  ALA486     -0.2867
     76  CB        12.6270   45.1040   80.3260 C.3   486  ALA486      0.0290
     77  N          8.2670   42.8570   84.3280 N.3   490  ARG490     -0.1245
     78  CA         7.3480   43.7350   85.0510 C.3   490  ARG490      0.1563
     79  C          5.9600   43.0970   85.1440 C.2   490  ARG490      0.2260
     80  O          5.3580   43.0860   86.2120 O.2   490  ARG490     -0.2867
     81  CB         7.2680   45.1370   84.4180 C.3   490  ARG490      0.0307
     82  CG         8.4550   46.0360   84.7340 C.3   490  ARG490      0.0489
     83  CD         8.3510   47.4460   84.1420 C.3   490  ARG490      0.2205
     84  NE         7.8750   47.4520   82.7530 N.pl3 490  ARG490     -0.0865
     85  CZ         8.6400   47.6000   81.6640 C.cat 490  ARG490      0.5346
     86  NH1        9.9690   47.7510   81.7500 N.pl3 490  ARG490      0.1354
     87  NH2        8.0690   47.6000   80.4630 N.pl3 490  ARG490      0.1354
     88  N         13.9170   43.0000   88.1460 N.3   496  PRO496     -0.2102
     89  CA        14.4740   43.4980   86.8830 C.3   496  PRO496      0.1504
     90  C         15.8650   42.9320   86.6570 C.2   496  PRO496      0.2576
     91  O         16.4380   42.3420   87.5720 O.2   496  PRO496     -0.2718
     92  CB        14.5470   45.0140   87.1190 C.3   496  PRO496      0.0282
     93  CG        14.7920   45.1020   88.5980 C.3   496  PRO496      0.0208
     94  CD        13.8110   44.0710   89.1490 C.3   496  PRO496      0.0893
     95  N         16.4010   43.1200   85.4560 N.am  497  LEU497     -0.1966
     96  CA        17.6380   42.4720   85.0640 C.3   497  LEU497      0.1728
     97  C         18.8520   42.9330   85.8840 C.2   497  LEU497      0.2616
     98  O         19.7740   42.1420   86.1220 O.2   497  LEU497     -0.2715
     99  CB        17.8800   42.6740   83.5700 C.3   497  LEU497      0.0311
    100  CG        16.8670   42.0150   82.6210 C.3   497  LEU497      0.0022
    101  CD1       17.0820   42.5240   81.2170 C.3   497  LEU497      0.0001
    102  CD2       16.9720   40.5010   82.6720 C.3   497  LEU497      0.0001
    103  N         18.8470   44.1890   86.3420 N.am  498  ARG498     -0.1977
    104  CA        19.9410   44.6930   87.2020 C.3   498  ARG498      0.1597
    105  C         20.0720   43.9030   88.5260 C.2   498  ARG498      0.2287
    106  O         21.1640   43.7200   89.0080 O.2   498  ARG498     -0.2864
    107  CB        19.8240   46.2020   87.4690 C.3   498  ARG498      0.0334
    108  CG        18.8730   46.5780   88.5810 C.3   498  ARG498      0.0492
    109  CD        18.2960   48.0000   88.4900 C.3   498  ARG498      0.2205
    110  NE        17.3540   48.2230   89.5820 N.pl3 498  ARG498     -0.0865
    111  CZ        16.0420   48.3810   89.4640 C.cat 498  ARG498      0.5346
    112  NH1       15.4270   48.3820   88.2770 N.pl3 498  ARG498      0.1354
    113  NH2       15.3210   48.5520   90.5580 N.pl3 498  ARG498      0.1354
    114  N         21.7850   40.3560   87.6140 N.3   501  ARG501     -0.1245
    115  CA        23.2050   40.5590   87.4230 C.3   501  ARG501      0.1563
    116  C         23.9800   40.6120   88.7520 C.2   501  ARG501      0.2260
    117  O         25.0430   39.9970   88.8690 O.2   501  ARG501     -0.2867
    118  CB        23.3760   41.8470   86.6500 C.3   501  ARG501      0.0307
    119  CG        24.7640   42.2240   86.2800 C.3   501  ARG501      0.0489
    120  CD        24.8340   43.7070   86.0050 C.3   501  ARG501      0.2205
    121  NE        25.6550   44.0350   84.8590 N.pl3 501  ARG501     -0.0865
    122  CZ        25.7240   45.2450   84.3100 C.cat 501  ARG501      0.5346
    123  NH1       24.9880   46.2630   84.7790 N.pl3 501  ARG501      0.1354
    124  NH2       26.5410   45.4410   83.2740 N.pl3 501  ARG501      0.1354
    125  N         29.4550   36.8910   81.3970 N.3   528  TRP528     -0.1241
    126  CA        28.6930   38.0920   81.0900 C.3   528  TRP528      0.1605
    127  C         28.5680   39.0560   82.2720 C.2   528  TRP528      0.2264
    128  O         28.5570   40.2670   82.0610 O.2   528  TRP528     -0.2867
    129  CB        27.2980   37.7370   80.5540 C.3   528  TRP528      0.0550
    130  CG        26.4260   36.9980   81.5050 C.ar  528  TRP528      0.0003
    131  CD1       26.2760   35.6470   81.5870 C.ar  528  TRP528      0.0946
    132  CD2       25.5710   37.5590   82.5000 C.ar  528  TRP528      0.0152
    133  NE1       25.3890   35.3290   82.5880 N.ar  528  TRP528     -0.2442
    134  CE2       24.9430   36.4870   83.1660 C.ar  528  TRP528      0.0810
    135  CE3       25.2920   38.8700   82.9250 C.ar  528  TRP528      0.0012
    136  CZ2       24.0470   36.6770   84.2100 C.ar  528  TRP528      0.0191
    137  CZ3       24.4110   39.0600   83.9650 C.ar  528  TRP528      0.0001
    138  CH2       23.7910   37.9670   84.5970 C.ar  528  TRP528      0.0015
@<TRIPOS>BOND
     1    49    48    2
     2    35    33    1
     3    34    33    1
     4    50    51    1
     5    50    47    1
     6    54    55    2
     7    54    53    1
     8    48    47    1
     9    48    52   am
    10    39    38    2
    11    44    45   ar
    12    44    42   ar
    13    33    32    1
    14    45    43   ar
    15    53    52    1
    16    53    56    1
    17    47    46    1
    18    42    41   ar
    19    32    29    1
    20    38    46   am
    21    38    37    1
    22    43    41   ar
    23    59    61   ar
    24    59    57   ar
    25    29    28    1
    26    29    30    1
    27    56    57    1
    28    36    37    1
    29    36    30   am
    30    41    40    1
    31    61    62   ar
    32    57    58   ar
    33    37    40    1
    34    30    31    2
    35    64    65    1
    36    71    69    1
    37    62    63    1
    38    62    60   ar
    39    58    60   ar
    40    69    68    1
    41    68    65    1
    42    68    70    1
    43    65    66    1
    44    66    67    2
    45     1     2    1
    46    19    17    1
    47     7     6    1
    48     5     2    1
    49     5     6    1
    50    17    16    2
    51    17    18    1
    52     2     3    1
    53    16    15    1
    54     6     8    1
    55    15    14    1
    56     3     4    2
    57    14    13    1
    58    72    73    1
    59    13    10    1
    60     9    10    1
    61    76    73    1
    62    27    26    1
    63    87    85    1
    64   129   126    1
    65   129   130    1
    66    73    74    1
    67    10    11    1
    68    74    75    2
    69   126   125    1
    70   126   127    1
    71   101   100    1
    72   130   131   ar
    73   130   132   ar
    74   131   133   ar
    75    85    86    1
    76    85    84    2
    77    26    25    1
    78   128   127    2
    79    20    11   am
    80    20    21    1
    81    11    12    2
    82    25    24    1
    83   132   135   ar
    84   132   134   ar
    85   133   134   ar
    86   100   102    1
    87   100    99    1
    88    84    83    1
    89   135   137   ar
    90    24    21    1
    91   134   136   ar
    92   124   122    1
    93    21    22    1
    94    99    96    1
    95   137   138   ar
    96    83    82    1
    97   136   138   ar
    98   122   123    1
    99   122   121    2
   100    77    78    1
   101    22    23    2
   102    81    82    1
   103    81    78    1
   104   121   120    1
   105    78    79    1
   106    96    95    1
   107    96    97    1
   108    79    80    2
   109    95    90   am
   110    97    98    2
   111    97   103   am
   112   120   119    1
   113   119   118    1
   114   103   104    1
   115   118   115    1
   116    90    89    1
   117    90    91    2
   118    89    92    1
   119    89    88    1
   120    92    93    1
   121   104   107    1
   122   104   105    1
   123   115   114    1
   124   115   116    1
   125   107   108    1
   126    88    94    1
   127   112   111    1
   128   109   108    1
   129   109   110    1
   130   105   106    2
   131    93    94    1
   132   116   117    2
   133   111   110    2
   134   111   113    1
