@<TRIPOS>MOLECULE
tmp/2whpA01.pdb
 154 154 0 0 0
SMALL
GASTEIGER

@<TRIPOS>ATOM
      1  N         39.1620   23.0370   17.5640 N.3    72  TYR72      -0.1241
      2  CA        38.7940   24.1770   16.7370 C.3    72  TYR72       0.1605
      3  C         37.4200   24.7580   17.1470 C.2    72  TYR72       0.2264
      4  O         36.4650   24.0240   17.4380 O.2    72  TYR72      -0.2867
      5  CB        38.7880   23.7120   15.2810 C.3    72  TYR72       0.0534
      6  CG        38.4080   24.7720   14.2990 C.ar   72  TYR72      -0.0201
      7  CD1       37.0820   24.9150   13.8660 C.ar   72  TYR72      -0.0009
      8  CD2       39.3730   25.6500   13.8010 C.ar   72  TYR72      -0.0009
      9  CE1       36.7350   25.9030   12.9710 C.ar   72  TYR72       0.0417
     10  CE2       39.0420   26.6330   12.8980 C.ar   72  TYR72       0.0417
     11  CZ        37.7250   26.7610   12.4770 C.ar   72  TYR72       0.1957
     12  OH        37.4150   27.7670   11.5680 O.3    72  TYR72      -0.2866
     13  N         34.2810   27.1330   16.0260 N.3    74  ASP74      -0.1239
     14  CA        33.6050   27.6990   14.8640 C.3    74  ASP74       0.1674
     15  C         33.4790   29.2090   14.9730 C.2    74  ASP74       0.2266
     16  O         33.1170   29.7340   16.0250 O.2    74  ASP74      -0.2867
     17  CB        32.2110   27.0910   14.7230 C.3    74  ASP74       0.1410
     18  CG        31.4840   27.5830   13.4920 C.2    74  ASP74       0.3668
     19  OD1       32.1300   28.1810   12.6070 O.co2  74  ASP74      -0.2456
     20  OD2       30.2630   27.3630   13.4120 O.co2  74  ASP74      -0.2456
     21  N         26.7400   25.0340   19.6070 N.3    86  TRP86      -0.1241
     22  CA        27.6420   23.9060   19.4110 C.3    86  TRP86       0.1605
     23  C         29.0560   24.1490   19.9480 C.2    86  TRP86       0.2264
     24  O         29.8550   23.2190   20.0510 O.2    86  TRP86      -0.2867
     25  CB        27.7010   23.5080   17.9250 C.3    86  TRP86       0.0550
     26  CG        26.3630   23.3290   17.3330 C.ar   86  TRP86       0.0003
     27  CD1       25.7260   24.1920   16.4850 C.ar   86  TRP86       0.0946
     28  CD2       25.4540   22.2360   17.5550 C.ar   86  TRP86       0.0152
     29  NE1       24.4880   23.6880   16.1450 N.ar   86  TRP86      -0.2442
     30  CE2       24.2970   22.4960   16.7950 C.ar   86  TRP86       0.0810
     31  CE3       25.5180   21.0530   18.3020 C.ar   86  TRP86       0.0012
     32  CZ2       23.2020   21.6240   16.7780 C.ar   86  TRP86       0.0191
     33  CZ3       24.4190   20.1920   18.2790 C.ar   86  TRP86       0.0001
     34  CH2       23.2880   20.4840   17.5330 C.ar   86  TRP86       0.0015
     35  N         30.1040   16.3550   15.9550 N.3   121  GLY121     -0.1225
     36  CA        30.9970   17.4640   15.6790 C.3   121  GLY121      0.1811
     37  C         32.1780   17.0870   14.7900 C.2   121  GLY121      0.2280
     38  O         33.2950   17.6380   14.9420 O.2   121  GLY121     -0.2866
     39  N         36.1040   16.4500   15.1460 N.3   124  TYR124     -0.1241
     40  CA        37.0210   17.5600   15.4260 C.3   124  TYR124      0.1605
     41  C         36.4640   18.5470   16.4680 C.2   124  TYR124      0.2264
     42  O         37.1020   19.5260   16.8040 O.2   124  TYR124     -0.2867
     43  CB        37.3960   18.3100   14.1360 C.3   124  TYR124      0.0534
     44  CG        36.2820   19.1760   13.6400 C.ar  124  TYR124     -0.0201
     45  CD1       36.0690   20.4450   14.1900 C.ar  124  TYR124     -0.0009
     46  CD2       35.4230   18.7320   12.6300 C.ar  124  TYR124     -0.0009
     47  CE1       35.0200   21.2480   13.7470 C.ar  124  TYR124      0.0417
     48  CE2       34.3530   19.5400   12.1810 C.ar  124  TYR124      0.0417
     49  CZ        34.1870   20.8000   12.7350 C.ar  124  TYR124      0.1957
     50  OH        33.1530   21.6090   12.3290 O.3   124  TYR124     -0.2866
     51  N         45.1210   21.7950   11.4170 N.3   277  GLU277     -0.1231
     52  CA        44.5170   20.4890   11.1450 C.3   277  GLU277      0.1699
     53  C         43.6690   20.4880    9.8690 C.2   277  GLU277      0.2592
     54  O         43.7030   19.5400    9.0890 O.2   277  GLU277     -0.2718
     55  CB        43.7460   19.9750   12.3520 C.3   277  GLU277      0.0402
     56  CG        42.4990   20.7810   12.6800 C.3   277  GLU277      0.1161
     57  CD        41.6150   20.0980   13.7440 C.2   277  GLU277      0.3649
     58  OE1       40.5670   20.6760   14.1200 O.co2 277  GLU277     -0.2457
     59  OE2       41.9880   18.9880   14.1980 O.co2 277  GLU277     -0.2457
     60  N         42.9780   21.5860    9.6170 N.am  278  TRP278     -0.1976
     61  CA        42.0440   21.6620    8.5050 C.3   278  TRP278      0.1640
     62  C         42.7600   21.7410    7.1420 C.2   278  TRP278      0.2290
     63  O         42.1780   21.4130    6.1140 O.2   278  TRP278     -0.2864
     64  CB        41.1170   22.8550    8.7260 C.3   278  TRP278      0.0576
     65  CG        39.7960   22.7910    8.0410 C.ar  278  TRP278      0.0006
     66  CD1       39.3750   21.8670    7.1130 C.ar  278  TRP278      0.0946
     67  CD2       38.7340   23.7560    8.1540 C.ar  278  TRP278      0.0152
     68  NE1       38.1140   22.1900    6.6650 N.ar  278  TRP278     -0.2442
     69  CE2       37.6970   23.3410    7.2860 C.ar  278  TRP278      0.0810
     70  CE3       38.5600   24.9310    8.9080 C.ar  278  TRP278      0.0012
     71  CZ2       36.4900   24.0640    7.1590 C.ar  278  TRP278      0.0191
     72  CZ3       37.3700   25.6330    8.7830 C.ar  278  TRP278      0.0001
     73  CH2       36.3540   25.2000    7.9060 C.ar  278  TRP278      0.0015
     74  N         43.2560   18.3440    4.2580 N.3   281  LEU281     -0.1245
     75  CA        42.2580   17.7110    3.3690 C.3   281  LEU281      0.1561
     76  C         42.7230   17.7020    1.9110 C.2   281  LEU281      0.2260
     77  O         43.2500   18.6790    1.4400 O.2   281  LEU281     -0.2867
     78  CB        40.8790   18.4000    3.4650 C.3   281  LEU281      0.0270
     79  CG        40.0510   18.1500    4.7290 C.3   281  LEU281      0.0019
     80  CD1       38.6900   18.8820    4.6870 C.3   281  LEU281      0.0001
     81  CD2       39.8700   16.6590    4.9660 C.3   281  LEU281      0.0001
     82  N         33.5970   16.8550    5.1150 N.3   288  ARG288     -0.1231
     83  CA        34.8140   16.0330    5.2230 C.3   288  ARG288      0.1694
     84  C         35.6890   16.5430    6.3560 C.2   288  ARG288      0.2592
     85  O         35.7990   17.7490    6.5850 O.2   288  ARG288     -0.2718
     86  CB        35.6220   15.9660    3.9120 C.3   288  ARG288      0.0321
     87  CG        34.9010   15.3150    2.6870 C.3   288  ARG288      0.0489
     88  CD        34.7200   13.7910    2.7590 C.3   288  ARG288      0.2205
     89  NE        34.1630   13.2900    1.5030 N.pl3 288  ARG288     -0.0865
     90  CZ        32.8550   13.2290    1.2430 C.cat 288  ARG288      0.5346
     91  NH1       31.9720   13.6000    2.1640 N.pl3 288  ARG288      0.1354
     92  NH2       32.4340   12.8020    0.0680 N.pl3 288  ARG288      0.1354
     93  N         36.3400   15.6360    7.0690 N.am  289  PHE289     -0.1962
     94  CA        37.0500   16.0420    8.2810 C.3   289  PHE289      0.1771
     95  C         38.4400   15.4060    8.3070 C.2   289  PHE289      0.2620
     96  O         38.6030   14.2350    7.9260 O.2   289  PHE289     -0.2715
     97  CB        36.2130   15.6740    9.4910 C.3   289  PHE289      0.0574
     98  CG        34.7220   15.9820    9.3030 C.ar  289  PHE289     -0.0200
     99  CD1       34.2690   17.2990    9.3080 C.ar  289  PHE289     -0.0042
    100  CD2       33.8070   14.9620    9.0750 C.ar  289  PHE289     -0.0042
    101  CE1       32.8920   17.6110    9.0890 C.ar  289  PHE289     -0.0003
    102  CE2       32.4360   15.2490    8.8760 C.ar  289  PHE289     -0.0003
    103  CZ        31.9770   16.5800    8.8870 C.ar  289  PHE289     -0.0000
    104  N         39.4270   16.1880    8.7410 N.am  290  SER290     -0.1950
    105  CA        40.8390   15.8260    8.6220 C.3   290  SER290      0.1924
    106  C         41.2220   14.5730    9.3910 C.2   290  SER290      0.2314
    107  O         41.7680   13.6350    8.8250 O.2   290  SER290     -0.2863
    108  CB        41.6870   16.9960    9.0870 C.3   290  SER290      0.2116
    109  OG        41.4130   18.0570    8.2110 O.3   290  SER290     -0.2180
    110  N         22.5750   22.7980    6.3430 N.3   329  TYR329     -0.1227
    111  CA        23.5600   23.2970    7.3100 C.3   329  TYR329      0.1736
    112  C         24.9760   23.4210    6.7380 C.2   329  TYR329      0.2595
    113  O         25.6850   24.3870    6.9870 O.2   329  TYR329     -0.2718
    114  CB        23.5900   22.3410    8.5200 C.3   329  TYR329      0.0548
    115  CG        24.4310   22.8010    9.6570 C.ar  329  TYR329     -0.0200
    116  CD1       23.9760   23.7780   10.4960 C.ar  329  TYR329     -0.0009
    117  CD2       25.6830   22.2560    9.8990 C.ar  329  TYR329     -0.0009
    118  CE1       24.7320   24.2290   11.5640 C.ar  329  TYR329      0.0417
    119  CE2       26.4650   22.7040   10.9740 C.ar  329  TYR329      0.0417
    120  CZ        25.9680   23.7060   11.8070 C.ar  329  TYR329      0.1957
    121  OH        26.6760   24.2090   12.8880 O.3   329  TYR329     -0.2866
    122  N         25.3820   22.4360    5.9630 N.am  330  PHE330     -0.1976
    123  CA        26.7590   22.3790    5.4570 C.3   330  PHE330      0.1639
    124  C         27.0410   23.2920    4.2870 C.2   330  PHE330      0.2290
    125  O         28.1940   23.6510    4.0600 O.2   330  PHE330     -0.2864
    126  CB        27.1050   20.9440    5.0910 C.3   330  PHE330      0.0560
    127  CG        27.1110   20.0400    6.2720 C.ar  330  PHE330     -0.0200
    128  CD1       25.9410   19.3950    6.6770 C.ar  330  PHE330     -0.0042
    129  CD2       28.2570   19.8920    7.0330 C.ar  330  PHE330     -0.0042
    130  CE1       25.9330   18.5630    7.8070 C.ar  330  PHE330     -0.0003
    131  CE2       28.2580   19.0510    8.1690 C.ar  330  PHE330     -0.0003
    132  CZ        27.1020   18.3950    8.5540 C.ar  330  PHE330     -0.0000
    133  N         28.5910   26.9340    4.9400 N.3   333  TYR333     -0.1241
    134  CA        29.9610   27.0600    5.3870 C.3   333  TYR333      0.1605
    135  C         30.9000   27.2010    4.2200 C.2   333  TYR333      0.2264
    136  O         31.7360   28.1060    4.2050 O.2   333  TYR333     -0.2867
    137  CB        30.3770   25.8750    6.2650 C.3   333  TYR333      0.0534
    138  CG        29.9880   26.0650    7.7110 C.ar  333  TYR333     -0.0201
    139  CD1       28.7030   25.7680    8.1490 C.ar  333  TYR333     -0.0009
    140  CD2       30.9010   26.5780    8.6320 C.ar  333  TYR333     -0.0009
    141  CE1       28.3430   25.9620    9.4520 C.ar  333  TYR333      0.0417
    142  CE2       30.5510   26.7690    9.9440 C.ar  333  TYR333      0.0417
    143  CZ        29.2680   26.4620   10.3490 C.ar  333  TYR333      0.1957
    144  OH        28.9150   26.6500   11.6590 O.3   333  TYR333     -0.2866
    145  N         20.3710   19.5030    9.9680 N.3   439  HIS439     -0.1241
    146  CA        21.1660   18.5140   10.6710 C.3   439  HIS439      0.1621
    147  C         21.4020   18.9550   12.1200 C.2   439  HIS439      0.2264
    148  O         21.8250   20.0980   12.3670 O.2   439  HIS439     -0.2867
    149  CB        22.5070   18.4410    9.9290 C.3   439  HIS439      0.0745
    150  CG        23.4710   17.4690   10.5000 C.ar  439  HIS439      0.0817
    151  ND1       23.4260   16.1220   10.2110 N.ar  439  HIS439     -0.2268
    152  CD2       24.5410   17.6490   11.3090 C.ar  439  HIS439      0.1154
    153  CE1       24.4360   15.5100   10.8120 C.ar  439  HIS439      0.1986
    154  NE2       25.1260   16.4160   11.4850 N.ar  439  HIS439     -0.2212
@<TRIPOS>BOND
     1    92    90    1
     2    90    89    2
     3    90    91    1
     4    77    76    2
     5    89    88    1
     6    76    75    1
     7    87    88    1
     8    87    86    1
     9    75    78    1
    10    75    74    1
    11    78    79    1
    12    86    83    1
    13   125   124    2
    14   136   135    2
    15   135   134    1
    16   124   123    1
    17    80    79    1
    18    79    81    1
    19   133   134    1
    20   126   123    1
    21   126   127    1
    22    82    83    1
    23    83    84    1
    24   134   137    1
    25   123   122    1
    26   122   112   am
    27    63    62    2
    28   137   138    1
    29   127   128   ar
    30   127   129   ar
    31   110   111    1
    32    84    85    2
    33    84    93   am
    34    68    66   ar
    35    68    69   ar
    36   128   130   ar
    37   112   113    2
    38   112   111    1
    39   129   131   ar
    40    93    94    1
    41    66    65   ar
    42    62    61    1
    43    71    69   ar
    44    71    73   ar
    45    69    67   ar
    46   111   114    1
    47   138   139   ar
    48   138   140   ar
    49   130   132   ar
    50    73    72   ar
    51    96    95    2
    52    65    67   ar
    53    65    64    1
    54   139   141   ar
    55    67    70   ar
    56   131   132   ar
    57   109   108    1
    58    94    95    1
    59    94    97    1
    60    95   104   am
    61    61    64    1
    62    61    60    1
    63   114   115    1
    64   105   104    1
    65   105   108    1
    66   105   106    1
    67   140   142   ar
    68    72    70   ar
    69   107   106    2
    70   102   103   ar
    71   102   100   ar
    72   103   101   ar
    73   100    98   ar
    74    54    53    2
    75   101    99   ar
    76    98    99   ar
    77    98    97    1
    78   141   143   ar
    79    60    53   am
    80   115   117   ar
    81   115   116   ar
    82    53    52    1
    83   117   119   ar
    84   149   150    1
    85   149   146    1
    86   142   143   ar
    87   145   146    1
    88   151   150   ar
    89   151   153   ar
    90   143   144    1
    91   116   118   ar
    92   150   152   ar
    93   146   147    1
    94   153   154   ar
    95   119   120   ar
    96    52    51    1
    97    52    55    1
    98   152   154   ar
    99   118   120   ar
   100    12    11    1
   101   120   121    1
   102   147   148    2
   103    48    46   ar
   104    48    49   ar
   105    50    49    1
   106    55    56    1
   107    11    10   ar
   108    11     9   ar
   109    19    18   ar
   110    46    44   ar
   111    56    57    1
   112    49    47   ar
   113    10     8   ar
   114     9     7   ar
   115    20    18   ar
   116    18    17    1
   117    44    43    1
   118    44    45   ar
   119    57    58   ar
   120    57    59   ar
   121    47    45   ar
   122     8     6   ar
   123     7     6   ar
   124    43    40    1
   125     6     5    1
   126    17    14    1
   127    37    38    2
   128    37    36    1
   129    14    15    1
   130    14    13    1
   131    15    16    2
   132    39    40    1
   133     5     2    1
   134    40    41    1
   135    36    35    1
   136    29    27   ar
   137    29    30   ar
   138    41    42    2
   139    27    26   ar
   140     2     3    1
   141     2     1    1
   142    32    30   ar
   143    32    34   ar
   144    30    28   ar
   145     3     4    2
   146    26    28   ar
   147    26    25    1
   148    34    33   ar
   149    28    31   ar
   150    25    22    1
   151    33    31   ar
   152    22    21    1
   153    22    23    1
   154    23    24    2
