@<TRIPOS>MOLECULE
tmp/2whqA01.pdb
 159 159 0 0 0
SMALL
GASTEIGER

@<TRIPOS>ATOM
      1  N         34.3170   27.3600   16.1280 N.3    74  ASP74      -0.1239
      2  CA        33.5990   27.8770   14.9600 C.3    74  ASP74       0.1674
      3  C         33.3910   29.3820   15.0720 C.2    74  ASP74       0.2266
      4  O         32.7660   29.8490   16.0160 O.2    74  ASP74      -0.2867
      5  CB        32.2420   27.1620   14.8510 C.3    74  ASP74       0.1410
      6  CG        31.4160   27.5920   13.6250 C.2    74  ASP74       0.3668
      7  OD1       31.7140   28.6330   12.9790 O.co2  74  ASP74      -0.2456
      8  OD2       30.4390   26.8620   13.3220 O.co2  74  ASP74      -0.2456
      9  N         22.9850   29.9830   16.4590 N.3    82  GLY82      -0.1210
     10  CA        22.9100   28.7870   15.6310 C.3    82  GLY82       0.1956
     11  C         24.2410   28.0740   15.5480 C.2    82  GLY82       0.2612
     12  O         24.2880   26.8520   15.4260 O.2    82  GLY82      -0.2717
     13  N         25.3210   28.8500   15.6030 N.am   83  THR83      -0.1952
     14  CA        26.6710   28.3120   15.6840 C.3    83  THR83       0.1897
     15  C         27.2030   28.2130   17.1340 C.2    83  THR83       0.2313
     16  O         27.9120   27.2660   17.4660 O.2    83  THR83      -0.2863
     17  CB        27.6500   29.1370   14.8280 C.3    83  THR83       0.1794
     18  OG1       27.5400   30.5180   15.1890 O.3    83  THR83      -0.2208
     19  CG2       27.3340   28.9900   13.3200 C.3    83  THR83       0.0378
     20  N         26.8490   25.1070   19.6480 N.3    86  TRP86      -0.1241
     21  CA        27.6880   23.9340   19.4400 C.3    86  TRP86       0.1605
     22  C         29.1220   24.1540   19.9360 C.2    86  TRP86       0.2264
     23  O         29.9010   23.1970   20.0320 O.2    86  TRP86      -0.2867
     24  CB        27.6890   23.5010   17.9670 C.3    86  TRP86       0.0550
     25  CG        26.3190   23.3520   17.4170 C.ar   86  TRP86       0.0003
     26  CD1       25.6500   24.2560   16.6470 C.ar   86  TRP86       0.0946
     27  CD2       25.4320   22.2350   17.5950 C.ar   86  TRP86       0.0152
     28  NE1       24.4100   23.7750   16.3380 N.ar   86  TRP86      -0.2442
     29  CE2       24.2450   22.5400   16.9100 C.ar   86  TRP86       0.0810
     30  CE3       25.5270   21.0100   18.2740 C.ar   86  TRP86       0.0012
     31  CZ2       23.1440   21.6620   16.8790 C.ar   86  TRP86       0.0191
     32  CZ3       24.4320   20.1420   18.2450 C.ar   86  TRP86       0.0001
     33  CH2       23.2600   20.4770   17.5610 C.ar   86  TRP86       0.0015
     34  N         28.3970   14.3160   18.5120 N.3   120  GLY120     -0.1210
     35  CA        29.0150   14.4800   17.2030 C.3   120  GLY120      0.1956
     36  C         29.8020   15.7870   17.1240 C.2   120  GLY120      0.2612
     37  O         30.0980   16.4420   18.1410 O.2   120  GLY120     -0.2717
     38  N         30.1130   16.2000   15.9020 N.am  121  GLY121     -0.1956
     39  CA        30.9800   17.3460   15.6870 C.3   121  GLY121      0.1869
     40  C         32.1550   16.9780   14.7910 C.2   121  GLY121      0.2309
     41  O         33.2490   17.5320   14.9220 O.2   121  GLY121     -0.2863
     42  N         36.1240   16.3370   15.1230 N.3   124  TYR124     -0.1227
     43  CA        37.0920   17.4120   15.3780 C.3   124  TYR124      0.1736
     44  C         36.5980   18.4100   16.4470 C.2   124  TYR124      0.2596
     45  O         37.3010   19.3460   16.7990 O.2   124  TYR124     -0.2718
     46  CB        37.4290   18.1590   14.0720 C.3   124  TYR124      0.0548
     47  CG        36.3140   19.0920   13.6060 C.ar  124  TYR124     -0.0200
     48  CD1       36.1650   20.3740   14.1500 C.ar  124  TYR124     -0.0009
     49  CD2       35.3940   18.6760   12.6530 C.ar  124  TYR124     -0.0009
     50  CE1       35.1270   21.2250   13.7240 C.ar  124  TYR124      0.0417
     51  CE2       34.3510   19.5170   12.2200 C.ar  124  TYR124      0.0417
     52  CZ        34.2340   20.7810   12.7480 C.ar  124  TYR124      0.1957
     53  OH        33.2070   21.5900   12.3010 O.3   124  TYR124     -0.2866
     54  N         35.3830   18.2140   16.9480 N.am  125  SER125     -0.1938
     55  CA        34.8120   19.1180   17.9390 C.3   125  SER125      0.2055
     56  C         33.7050   18.4280   18.7290 C.2   125  SER125      0.2643
     57  O         33.3510   17.2760   18.4490 O.2   125  SER125     -0.2714
     58  CB        34.2000   20.3350   17.2430 C.3   125  SER125      0.2130
     59  OG        33.1830   19.9230   16.3300 O.3   125  SER125     -0.2179
     60  N         33.1210   19.1650   19.6730 N.am  126  GLY126     -0.1954
     61  CA        32.0300   18.6530   20.4860 C.3   126  GLY126      0.1869
     62  C         32.4040   18.5050   21.9610 C.2   126  GLY126      0.2309
     63  O         33.5810   18.5920   22.3540 O.2   126  GLY126     -0.2863
     64  N         22.6620   18.5760   25.3910 N.3   133  TYR133     -0.1241
     65  CA        22.9050   17.1880   25.8240 C.3   133  TYR133      0.1605
     66  C         22.5970   16.9990   27.3070 C.2   133  TYR133      0.2264
     67  O         22.9970   16.0140   27.8980 O.2   133  TYR133     -0.2867
     68  CB        24.3540   16.7420   25.5370 C.3   133  TYR133      0.0534
     69  CG        24.8530   16.9760   24.1160 C.ar  133  TYR133     -0.0201
     70  CD1       23.9980   16.8620   23.0270 C.ar  133  TYR133     -0.0009
     71  CD2       26.1930   17.3060   23.8690 C.ar  133  TYR133     -0.0009
     72  CE1       24.4460   17.0660   21.7370 C.ar  133  TYR133      0.0417
     73  CE2       26.6510   17.5230   22.5730 C.ar  133  TYR133      0.0417
     74  CZ        25.7710   17.3910   21.5160 C.ar  133  TYR133      0.1957
     75  OH        26.1830   17.5950   20.2310 O.3   133  TYR133     -0.2866
     76  N         24.6580   11.2680   17.7310 N.3   202  GLU202     -0.1245
     77  CA        24.2700   11.9230   16.5100 C.3   202  GLU202      0.1567
     78  C         25.5000   12.2730   15.6570 C.2   202  GLU202      0.2260
     79  O         26.5430   12.6490   16.1820 O.2   202  GLU202     -0.2867
     80  CB        23.4340   13.1670   16.8480 C.3   202  GLU202      0.0388
     81  CG        22.8270   13.8400   15.6410 C.3   202  GLU202      0.1160
     82  CD        23.7160   14.9550   15.1210 C.2   202  GLU202      0.3649
     83  OE1       24.7290   15.2430   15.7730 O.co2 202  GLU202     -0.2457
     84  OE2       23.3770   15.5660   14.0920 O.co2 202  GLU202     -0.2457
     85  N         22.7090   23.0510    6.3300 N.3   329  TYR329     -0.1227
     86  CA        23.6280   23.9360    7.0340 C.3   329  TYR329      0.1736
     87  C         25.0790   23.7370    6.6250 C.2   329  TYR329      0.2595
     88  O         25.8840   24.6320    6.8270 O.2   329  TYR329     -0.2718
     89  CB        23.4450   23.9490    8.5600 C.3   329  TYR329      0.0548
     90  CG        24.2770   22.9690    9.3510 C.ar  329  TYR329     -0.0200
     91  CD1       25.6440   23.1130    9.4550 C.ar  329  TYR329     -0.0009
     92  CD2       23.6770   21.9300   10.0330 C.ar  329  TYR329     -0.0009
     93  CE1       26.4090   22.2220   10.1920 C.ar  329  TYR329      0.0417
     94  CE2       24.4190   21.0360   10.7710 C.ar  329  TYR329      0.0417
     95  CZ        25.7870   21.1850   10.8510 C.ar  329  TYR329      0.1957
     96  OH        26.5180   20.2820   11.5940 O.3   329  TYR329     -0.2866
     97  N         25.4180   22.5980    6.0230 N.am  330  PHE330     -0.1976
     98  CA        26.8020   22.4360    5.5390 C.3   330  PHE330      0.1639
     99  C         27.1760   23.3560    4.3790 C.2   330  PHE330      0.2290
    100  O         28.3550   23.6870    4.1930 O.2   330  PHE330     -0.2864
    101  CB        27.0650   20.9720    5.1880 C.3   330  PHE330      0.0560
    102  CG        27.0430   20.0860    6.3870 C.ar  330  PHE330     -0.0200
    103  CD1       25.8560   19.4800    6.8000 C.ar  330  PHE330     -0.0042
    104  CD2       28.1970   19.9060    7.1520 C.ar  330  PHE330     -0.0042
    105  CE1       25.8250   18.6650    7.9590 C.ar  330  PHE330     -0.0003
    106  CE2       28.1710   19.0900    8.3060 C.ar  330  PHE330     -0.0003
    107  CZ        26.9810   18.4820    8.7080 C.ar  330  PHE330     -0.0000
    108  N         29.2440   26.6920    4.9810 N.3   333  TYR333     -0.1241
    109  CA        30.6360   26.6120    5.4070 C.3   333  TYR333      0.1605
    110  C         31.5650   26.2870    4.2490 C.2   333  TYR333      0.2264
    111  O         32.6320   25.6910    4.4570 O.2   333  TYR333     -0.2867
    112  CB        30.8240   25.5480    6.4920 C.3   333  TYR333      0.0534
    113  CG        30.2170   25.9150    7.8190 C.ar  333  TYR333     -0.0201
    114  CD1       28.9030   25.5690    8.1230 C.ar  333  TYR333     -0.0009
    115  CD2       30.9640   26.5960    8.7770 C.ar  333  TYR333     -0.0009
    116  CE1       28.3540   25.8980    9.3240 C.ar  333  TYR333      0.0417
    117  CE2       30.4180   26.9330    9.9910 C.ar  333  TYR333      0.0417
    118  CZ        29.1120   26.5820   10.2610 C.ar  333  TYR333      0.1957
    119  OH        28.5590   26.9080   11.4710 O.3   333  TYR333     -0.2866
    120  N         18.3960   29.5840   12.3700 N.3   431  TRP431     -0.1241
    121  CA        18.7810   29.4380   10.9590 C.3   431  TRP431      0.1605
    122  C         17.5790   29.8110   10.0940 C.2   431  TRP431      0.2264
    123  O         16.4550   29.7220   10.5540 O.2   431  TRP431     -0.2867
    124  CB        19.2470   28.0050   10.6430 C.3   431  TRP431      0.0550
    125  CG        20.4870   27.5890   11.3550 C.ar  431  TRP431      0.0003
    126  CD1       20.5670   26.8210   12.4840 C.ar  431  TRP431      0.0946
    127  CD2       21.8420   27.9020   10.9880 C.ar  431  TRP431      0.0152
    128  NE1       21.8890   26.6430   12.8470 N.ar  431  TRP431     -0.2442
    129  CE2       22.6880   27.3000   11.9470 C.ar  431  TRP431      0.0810
    130  CE3       22.4200   28.6430    9.9530 C.ar  431  TRP431      0.0012
    131  CZ2       24.0820   27.4090   11.8930 C.ar  431  TRP431      0.0191
    132  CZ3       23.8030   28.7480    9.8980 C.ar  431  TRP431      0.0001
    133  CH2       24.6210   28.1280   10.8590 C.ar  431  TRP431      0.0015
    134  N         20.3430   19.4970   10.0170 N.3   439  HIS439     -0.1226
    135  CA        21.1530   18.5260   10.7310 C.3   439  HIS439      0.1752
    136  C         21.3600   18.9770   12.1920 C.2   439  HIS439      0.2597
    137  O         21.6710   20.1430   12.4490 O.2   439  HIS439     -0.2718
    138  CB        22.5040   18.4490    9.9930 C.3   439  HIS439      0.0759
    139  CG        23.4820   17.4870   10.5760 C.ar  439  HIS439      0.0818
    140  ND1       23.4190   16.1280   10.3400 N.ar  439  HIS439     -0.2268
    141  CD2       24.5920   17.6900   11.3270 C.ar  439  HIS439      0.1154
    142  CE1       24.4530   15.5350   10.9160 C.ar  439  HIS439      0.1986
    143  NE2       25.1760   16.4600   11.5300 N.ar  439  HIS439     -0.2212
    144  N         21.1640   18.0690   13.1430 N.am  440  GLY440     -0.1942
    145  CA        21.4400   18.3760   14.5410 C.3   440  GLY440      0.2014
    146  C         20.2580   18.8740   15.3560 C.2   440  GLY440      0.2638
    147  O         20.3320   18.9280   16.5900 O.2   440  GLY440     -0.2714
    148  N         19.1630   19.2290   14.6820 N.am  441  TYR441     -0.1973
    149  CA        18.0560   19.9000   15.3790 C.3   441  TYR441      0.1639
    150  C         16.9180   18.9720   15.8100 C.2   441  TYR441      0.2290
    151  O         15.8600   19.4320   16.2000 O.2   441  TYR441     -0.2864
    152  CB        17.5820   21.1670   14.6260 C.3   441  TYR441      0.0560
    153  CG        18.6340   22.2440   14.7550 C.ar  441  TYR441     -0.0198
    154  CD1       19.6720   22.3340   13.8370 C.ar  441  TYR441     -0.0009
    155  CD2       18.6550   23.1020   15.8510 C.ar  441  TYR441     -0.0009
    156  CE1       20.6740   23.2880   13.9740 C.ar  441  TYR441      0.0417
    157  CE2       19.6630   24.0650   15.9970 C.ar  441  TYR441      0.0417
    158  CZ        20.6660   24.1410   15.0580 C.ar  441  TYR441      0.1957
    159  OH        21.6670   25.0640   15.1810 O.3   441  TYR441     -0.2866
@<TRIPOS>BOND
     1   100    99    2
     2   110   111    2
     3   110   109    1
     4    99    98    1
     5   108   109    1
     6   101    98    1
     7   101   102    1
     8   109   112    1
     9    98    97    1
    10    97    87   am
    11    85    86    1
    12   102   103   ar
    13   102   104   ar
    14   112   113    1
    15    87    88    2
    16    87    86    1
    17   103   105   ar
    18    86    89    1
    19   104   106   ar
    20   113   114   ar
    21   113   115   ar
    22   105   107   ar
    23   114   116   ar
    24   106   107   ar
    25    89    90    1
    26   115   117   ar
    27   116   118   ar
    28    90    91   ar
    29    90    92   ar
    30    91    93   ar
    31   132   130   ar
    32   132   133   ar
    33   130   127   ar
    34   117   118   ar
    35   138   139    1
    36   138   135    1
    37   134   135    1
    38    92    94   ar
    39   122   123    2
    40   122   121    1
    41    93    95   ar
    42   118   119    1
    43   140   139   ar
    44   140   142   ar
    45   139   141   ar
    46   124   121    1
    47   124   125    1
    48   135   136    1
    49    94    95   ar
    50    95    96    1
    51   133   131   ar
    52   142   143   ar
    53   121   120    1
    54   127   125   ar
    55   127   129   ar
    56   141   143   ar
    57   125   126   ar
    58   131   129   ar
    59   129   128   ar
    60   136   137    2
    61   136   144   am
    62    51    49   ar
    63    51    52   ar
    64    53    52    1
    65   126   128   ar
    66    49    47   ar
    67    52    50   ar
    68     7     6   ar
    69   144   145    1
    70    19    17    1
    71     8     6   ar
    72    47    46    1
    73    47    48   ar
    74     6     5    1
    75    50    48   ar
    76   154   156   ar
    77   154   153   ar
    78   156   158   ar
    79    46    43    1
    80    84    82   ar
    81   145   146    1
    82   152   153    1
    83   152   149    1
    84   148   146   am
    85   148   149    1
    86   153   155   ar
    87    40    41    2
    88    40    39    1
    89    17    18    1
    90    17    14    1
    91     5     2    1
    92     2     3    1
    93     2     1    1
    94   158   159    1
    95   158   157   ar
    96     3     4    2
    97    82    81    1
    98    82    83   ar
    99    42    43    1
   100   146   147    2
   101    43    44    1
   102   149   150    1
   103    12    11    2
   104    11    13   am
   105    11    10    1
   106    13    14    1
   107    10     9    1
   108    81    80    1
   109    78    79    2
   110    78    77    1
   111    14    15    1
   112    39    38    1
   113   150   151    2
   114   155   157   ar
   115    38    36   am
   116    59    58    1
   117    28    26   ar
   118    28    29   ar
   119    44    45    2
   120    44    54   am
   121    77    80    1
   122    77    76    1
   123    26    25   ar
   124    31    29   ar
   125    31    33   ar
   126    29    27   ar
   127    54    55    1
   128    36    35    1
   129    36    37    2
   130    15    16    2
   131    35    34    1
   132    58    55    1
   133    25    27   ar
   134    25    24    1
   135    33    32   ar
   136    27    30   ar
   137    55    56    1
   138    24    21    1
   139    32    30   ar
   140    57    56    2
   141    56    60   am
   142    21    20    1
   143    21    22    1
   144    60    61    1
   145    22    23    2
   146    75    74    1
   147    61    62    1
   148    74    72   ar
   149    74    73   ar
   150    72    70   ar
   151    62    63    2
   152    73    71   ar
   153    70    69   ar
   154    71    69   ar
   155    69    68    1
   156    64    65    1
   157    68    65    1
   158    65    66    1
   159    66    67    2
