@<TRIPOS>MOLECULE
tmp/2whrA02.pdb
 89 86 0 0 0
SMALL
GASTEIGER

@<TRIPOS>ATOM
      1  N         22.5970   -4.1920   32.6100 N.3   195  MET195     -0.1245
      2  CA        22.1200   -5.1950   31.6670 C.3   195  MET195      0.1570
      3  C         21.1030   -4.6090   30.7050 C.2   195  MET195      0.2261
      4  O         20.5490   -5.3180   29.8640 O.2   195  MET195     -0.2867
      5  CB        21.5290   -6.3950   32.4040 C.3   195  MET195      0.0387
      6  CG        22.4240   -6.9350   33.4960 C.3   195  MET195      0.0595
      7  SD        22.2940   -8.7190   33.6450 S.3   195  MET195     -0.1393
      8  CE        23.0260   -9.2140   32.0860 C.3   195  MET195      0.0692
      9  N         29.0000   -1.0960   17.4700 N.3   213  ILE213     -0.1245
     10  CA        28.2760   -2.2160   16.8990 C.3   213  ILE213      0.1561
     11  C         29.2130   -3.1040   16.0810 C.2   213  ILE213      0.2260
     12  O         29.1220   -4.3260   16.1280 O.2   213  ILE213     -0.2867
     13  CB        27.1220   -1.7260   16.0030 C.3   213  ILE213      0.0252
     14  CG1       26.0510   -1.0440   16.8560 C.3   213  ILE213      0.0019
     15  CG2       26.5270   -2.8790   15.2090 C.3   213  ILE213      0.0019
     16  CD1       24.8340   -0.6200   16.0780 C.3   213  ILE213      0.0001
     17  N         30.8400   -5.2580   22.0340 N.3   219  ARG219     -0.1231
     18  CA        29.6110   -6.0500   22.0600 C.3   219  ARG219      0.1694
     19  C         29.0280   -6.2110   23.4590 C.2   219  ARG219      0.2592
     20  O         27.8320   -6.0180   23.6640 O.2   219  ARG219     -0.2718
     21  CB        29.8320   -7.4350   21.4400 C.3   219  ARG219      0.0321
     22  CG        28.7390   -8.4470   21.8140 C.3   219  ARG219      0.0489
     23  CD        28.8620   -9.7560   21.0460 C.3   219  ARG219      0.2205
     24  NE        28.4820   -9.6030   19.6430 N.pl3 219  ARG219     -0.0865
     25  CZ        27.3210  -10.0050   19.1330 C.cat 219  ARG219      0.5346
     26  NH1       26.4250  -10.5980   19.9090 N.pl3 219  ARG219      0.1354
     27  NH2       27.0580   -9.8200   17.8440 N.pl3 219  ARG219      0.1354
     28  N         29.8720   -6.5680   24.4170 N.am  220  SER220     -0.1952
     29  CA        29.4030   -6.8400   25.7720 C.3   220  SER220      0.1924
     30  C         29.0640   -5.5830   26.5640 C.2   220  SER220      0.2314
     31  O         28.6690   -5.6720   27.7240 O.2   220  SER220     -0.2863
     32  CB        30.4460   -7.6510   26.5420 C.3   220  SER220      0.2116
     33  OG        31.6430   -6.9120   26.7050 O.3   220  SER220     -0.2180
     34  N         26.9480   -2.9690   25.5590 N.3   222  PHE222     -0.1227
     35  CA        25.6510   -2.3570   25.2790 C.3   222  PHE222      0.1736
     36  C         24.6850   -3.3700   24.6690 C.2   222  PHE222      0.2595
     37  O         25.0950   -4.4370   24.2210 O.2   222  PHE222     -0.2718
     38  CB        25.8130   -1.1410   24.3540 C.3   222  PHE222      0.0547
     39  CG        26.2230   -1.4970   22.9540 C.ar  222  PHE222     -0.0202
     40  CD1       27.5500   -1.7470   22.6500 C.ar  222  PHE222     -0.0042
     41  CD2       25.2770   -1.5890   21.9430 C.ar  222  PHE222     -0.0042
     42  CE1       27.9330   -2.0810   21.3610 C.ar  222  PHE222     -0.0003
     43  CE2       25.6510   -1.9240   20.6540 C.ar  222  PHE222     -0.0003
     44  CZ        26.9830   -2.1700   20.3620 C.ar  222  PHE222     -0.0000
     45  N         23.4030   -3.0250   24.6320 N.am  223  HIS223     -0.1975
     46  CA        22.3830   -3.9690   24.1890 C.3   223  HIS223      0.1656
     47  C         21.5740   -3.4510   23.0010 C.2   223  HIS223      0.2291
     48  O         21.0810   -4.2320   22.1890 O.2   223  HIS223     -0.2864
     49  CB        21.4630   -4.3150   25.3630 C.3   223  HIS223      0.0771
     50  CG        22.2020   -4.5820   26.6360 C.ar  223  HIS223      0.0820
     51  ND1       22.6390   -5.8410   26.9940 N.ar  223  HIS223     -0.2267
     52  CD2       22.6150   -3.7480   27.6190 C.ar  223  HIS223      0.1154
     53  CE1       23.2700   -5.7730   28.1520 C.ar  223  HIS223      0.1986
     54  NE2       23.2720   -4.5140   28.5520 N.ar  223  HIS223     -0.2212
     55  N         26.5950  -10.5870   11.3670 N.3   313  ASP313     -0.1225
     56  CA        25.3820  -11.1550   11.9330 C.3   313  ASP313      0.1805
     57  C         24.8740  -10.2090   13.0200 C.2   313  ASP313      0.2597
     58  O         25.6250   -9.8240   13.9160 O.2   313  ASP313     -0.2718
     59  CB        25.6670  -12.5450   12.5060 C.3   313  ASP313      0.1424
     60  CG        24.4970  -13.1070   13.2830 C.2   313  ASP313      0.3668
     61  OD1       23.8000  -13.9990   12.7530 O.co2 313  ASP313     -0.2456
     62  OD2       24.2640  -12.6470   14.4190 O.co2 313  ASP313     -0.2456
     63  N         23.6040   -9.8310   12.9450 N.am  314  PHE314     -0.1976
     64  CA        23.0930   -8.7840   13.8240 C.3   314  PHE314      0.1639
     65  C         21.8270   -9.1730   14.5830 C.2   314  PHE314      0.2290
     66  O         20.9900   -8.3220   14.8810 O.2   314  PHE314     -0.2864
     67  CB        22.8730   -7.4980   13.0210 C.3   314  PHE314      0.0560
     68  CG        24.1220   -6.9880   12.3530 C.ar  314  PHE314     -0.0200
     69  CD1       25.1890   -6.5290   13.1140 C.ar  314  PHE314     -0.0042
     70  CD2       24.2350   -6.9770   10.9700 C.ar  314  PHE314     -0.0042
     71  CE1       26.3410   -6.0640   12.5100 C.ar  314  PHE314     -0.0003
     72  CE2       25.3900   -6.5130   10.3580 C.ar  314  PHE314     -0.0003
     73  CZ        26.4430   -6.0570   11.1290 C.ar  314  PHE314     -0.0000
     74  N         20.9790  -10.5000   17.8590 N.3   316  ASP316     -0.1225
     75  CA        20.6750  -10.0700   19.2200 C.3   316  ASP316      0.1805
     76  C         20.7850   -8.5520   19.3410 C.2   316  ASP316      0.2597
     77  O         21.4540   -8.0370   20.2390 O.2   316  ASP316     -0.2718
     78  CB        21.6380  -10.7540   20.1990 C.3   316  ASP316      0.1424
     79  CG        21.2370  -10.5680   21.6530 C.2   316  ASP316      0.3668
     80  OD1       22.1450  -10.5270   22.5170 O.co2 316  ASP316     -0.2456
     81  OD2       20.0210  -10.4670   21.9310 O.co2 316  ASP316     -0.2456
     82  N         20.1230   -7.8370   18.4390 N.am  317  LEU317     -0.1979
     83  CA        20.3490   -6.4040   18.3150 C.3   317  LEU317      0.1596
     84  C         19.1420   -5.6420   17.7970 C.2   317  LEU317      0.2287
     85  O         18.5780   -5.9820   16.7570 O.2   317  LEU317     -0.2864
     86  CB        21.5370   -6.1400   17.3870 C.3   317  LEU317      0.0297
     87  CG        21.9280   -4.6670   17.2560 C.3   317  LEU317      0.0022
     88  CD1       22.4370   -4.1490   18.5860 C.3   317  LEU317      0.0001
     89  CD2       22.9740   -4.4810   16.1800 C.3   317  LEU317      0.0001
@<TRIPOS>BOND
     1    72    70   ar
     2    72    73   ar
     3    70    68   ar
     4    73    71   ar
     5    55    56    1
     6    56    59    1
     7    56    57    1
     8    68    67    1
     9    68    69   ar
    10    59    60    1
    11    71    69   ar
    12    61    60   ar
    13    63    57   am
    14    63    64    1
    15    57    58    2
    16    67    64    1
    17    60    62   ar
    18    64    65    1
    19    65    66    2
    20    15    13    1
    21    13    14    1
    22    13    10    1
    23    16    14    1
    24    11    12    2
    25    11    10    1
    26    89    87    1
    27    85    84    2
    28    10     9    1
    29    87    86    1
    30    87    88    1
    31    86    83    1
    32    84    83    1
    33    27    25    1
    34    74    75    1
    35    83    82    1
    36    82    76   am
    37    25    24    2
    38    25    26    1
    39    75    76    1
    40    75    78    1
    41    76    77    2
    42    24    23    1
    43    78    79    1
    44    44    43   ar
    45    44    42   ar
    46    43    41   ar
    47    23    22    1
    48    42    40   ar
    49    21    22    1
    50    21    18    1
    51    79    81   ar
    52    79    80   ar
    53    41    39   ar
    54    17    18    1
    55    18    19    1
    56    48    47    2
    57    40    39   ar
    58    39    38    1
    59    47    46    1
    60    19    20    2
    61    19    28   am
    62    46    45    1
    63    46    49    1
    64    37    36    2
    65    38    35    1
    66    28    29    1
    67    45    36   am
    68    36    35    1
    69    35    34    1
    70    49    50    1
    71    29    32    1
    72    29    30    1
    73    32    33    1
    74    30    31    2
    75    50    51   ar
    76    50    52   ar
    77    51    53   ar
    78    52    54   ar
    79    53    54   ar
    80     4     3    2
    81     3     2    1
    82     2     5    1
    83     2     1    1
    84     8     7    1
    85     5     6    1
    86     6     7    1
