@<TRIPOS>MOLECULE
tmp/2whrA00.pdb
 189 191 0 0 0
SMALL
GASTEIGER

@<TRIPOS>ATOM
      1  N         39.0470   22.7610   17.8380 N.3    72  TYR72      -0.1241
      2  CA        38.8050   23.9340   17.0200 C.3    72  TYR72       0.1605
      3  C         37.4650   24.5530   17.3840 C.2    72  TYR72       0.2264
      4  O         36.5160   23.8450   17.7250 O.2    72  TYR72      -0.2867
      5  CB        38.8030   23.5100   15.5510 C.3    72  TYR72       0.0534
      6  CG        38.4000   24.5890   14.5830 C.ar   72  TYR72      -0.0201
      7  CD1       37.1220   24.6140   14.0340 C.ar   72  TYR72      -0.0009
      8  CD2       39.3020   25.5740   14.2020 C.ar   72  TYR72      -0.0009
      9  CE1       36.7510   25.5970   13.1360 C.ar   72  TYR72       0.0417
     10  CE2       38.9420   26.5620   13.3080 C.ar   72  TYR72       0.0417
     11  CZ        37.6670   26.5690   12.7770 C.ar   72  TYR72       0.1957
     12  OH        37.3130   27.5560   11.8900 O.3    72  TYR72      -0.2866
     13  N         34.3860   26.9770   16.0000 N.3    74  ASP74      -0.1239
     14  CA        33.7970   27.5530   14.7960 C.3    74  ASP74       0.1674
     15  C         33.7730   29.0780   14.8460 C.2    74  ASP74       0.2266
     16  O         33.4510   29.6680   15.8760 O.2    74  ASP74      -0.2867
     17  CB        32.3790   27.0320   14.5790 C.3    74  ASP74       0.1410
     18  CG        31.8590   27.3420   13.1930 C.2    74  ASP74       0.3668
     19  OD1       32.2300   26.6100   12.2500 O.co2  74  ASP74      -0.2456
     20  OD2       31.0880   28.3180   13.0460 O.co2  74  ASP74      -0.2456
     21  N         26.7990   24.9790   19.5830 N.3    86  TRP86      -0.1241
     22  CA        27.6600   23.8180   19.4080 C.3    86  TRP86       0.1605
     23  C         29.0800   24.0570   19.9330 C.2    86  TRP86       0.2264
     24  O         29.8520   23.1190   20.1290 O.2    86  TRP86      -0.2867
     25  CB        27.7160   23.4130   17.9320 C.3    86  TRP86       0.0550
     26  CG        26.3710   23.2220   17.2880 C.ar   86  TRP86       0.0003
     27  CD1       25.8000   24.0110   16.3320 C.ar   86  TRP86       0.0946
     28  CD2       25.4360   22.1660   17.5460 C.ar   86  TRP86       0.0152
     29  NE1       24.5660   23.5150   15.9820 N.ar   86  TRP86      -0.2442
     30  CE2       24.3180   22.3860   16.7130 C.ar   86  TRP86       0.0810
     31  CE3       25.4360   21.0570   18.4000 C.ar   86  TRP86       0.0012
     32  CZ2       23.2110   21.5350   16.7080 C.ar   86  TRP86       0.0191
     33  CZ3       24.3340   20.2160   18.3960 C.ar   86  TRP86       0.0001
     34  CH2       23.2370   20.4610   17.5550 C.ar   86  TRP86       0.0015
     35  N         30.0600   16.1330   15.9560 N.3   121  GLY121     -0.1225
     36  CA        30.9630   17.2520   15.7630 C.3   121  GLY121      0.1811
     37  C         32.1170   16.8990   14.8450 C.2   121  GLY121      0.2280
     38  O         33.2460   17.3700   15.0320 O.2   121  GLY121     -0.2866
     39  N         36.0220   16.3240   15.2780 N.3   124  TYR124     -0.1241
     40  CA        36.9630   17.4020   15.5870 C.3   124  TYR124      0.1605
     41  C         36.4150   18.3210   16.6820 C.2   124  TYR124      0.2264
     42  O         37.1100   19.2110   17.1650 O.2   124  TYR124     -0.2867
     43  CB        37.2740   18.2330   14.3360 C.3   124  TYR124      0.0534
     44  CG        36.1090   19.0810   13.8800 C.ar  124  TYR124     -0.0201
     45  CD1       35.8830   20.3350   14.4310 C.ar  124  TYR124     -0.0009
     46  CD2       35.2260   18.6210   12.9100 C.ar  124  TYR124     -0.0009
     47  CE1       34.8130   21.1100   14.0330 C.ar  124  TYR124      0.0417
     48  CE2       34.1510   19.3890   12.4990 C.ar  124  TYR124      0.0417
     49  CZ        33.9490   20.6330   13.0670 C.ar  124  TYR124      0.1957
     50  OH        32.8830   21.4020   12.6710 O.3   124  TYR124     -0.2866
     51  N         24.4080   11.4010   17.6130 N.3   202  GLU202     -0.1245
     52  CA        24.0240   12.0520   16.3760 C.3   202  GLU202      0.1567
     53  C         25.2640   12.4270   15.5780 C.2   202  GLU202      0.2260
     54  O         26.3140   12.7190   16.1470 O.2   202  GLU202     -0.2867
     55  CB        23.1510   13.2760   16.6730 C.3   202  GLU202      0.0388
     56  CG        22.6250   13.9960   15.4440 C.3   202  GLU202      0.1160
     57  CD        23.5430   15.1090   14.9850 C.2   202  GLU202      0.3649
     58  OE1       24.5230   15.4080   15.7050 O.co2 202  GLU202     -0.2457
     59  OE2       23.2790   15.6870   13.9100 O.co2 202  GLU202     -0.2457
     60  N         45.0270   21.3130   11.7610 N.3   278  GLU278     -0.1231
     61  CA        44.3230   20.0730   11.4330 C.3   278  GLU278      0.1699
     62  C         43.4680   20.1810   10.1690 C.2   278  GLU278      0.2592
     63  O         43.4550   19.2700    9.3470 O.2   278  GLU278     -0.2718
     64  CB        43.4740   19.5930   12.6110 C.3   278  GLU278      0.0402
     65  CG        42.3810   20.5610   13.0200 C.3   278  GLU278      0.1161
     66  CD        41.4430   19.9670   14.0530 C.2   278  GLU278      0.3649
     67  OE1       40.4970   20.6670   14.4690 O.co2 278  GLU278     -0.2457
     68  OE2       41.6500   18.7980   14.4440 O.co2 278  GLU278     -0.2457
     69  N         42.7700   21.2970   10.0070 N.am  279  TRP279     -0.1976
     70  CA        41.8690   21.4640    8.8690 C.3   279  TRP279      0.1640
     71  C         42.6130   21.5550    7.5260 C.2   279  TRP279      0.2290
     72  O         42.0040   21.4460    6.4640 O.2   279  TRP279     -0.2864
     73  CB        40.9830   22.6970    9.0750 C.3   279  TRP279      0.0576
     74  CG        39.6980   22.6620    8.3170 C.ar  279  TRP279      0.0006
     75  CD1       39.3430   21.7720    7.3470 C.ar  279  TRP279      0.0946
     76  CD2       38.6000   23.5730    8.4460 C.ar  279  TRP279      0.0152
     77  NE1       38.0890   22.0630    6.8730 N.ar  279  TRP279     -0.2442
     78  CE2       37.6120   23.1690    7.5260 C.ar  279  TRP279      0.0810
     79  CE3       38.3540   24.6920    9.2510 C.ar  279  TRP279      0.0012
     80  CZ2       36.3990   23.8460    7.3860 C.ar  279  TRP279      0.0191
     81  CZ3       37.1480   25.3610    9.1110 C.ar  279  TRP279      0.0001
     82  CH2       36.1860   24.9360    8.1870 C.ar  279  TRP279      0.0015
     83  N         33.1820   19.8410    1.6230 N.3   287  ILE287     -0.1231
     84  CA        32.3690   19.9960    2.8190 C.3   287  ILE287      0.1692
     85  C         32.0110   18.5970    3.3030 C.2   287  ILE287      0.2592
     86  O         32.1530   17.6260    2.5590 O.2   287  ILE287     -0.2718
     87  CB        31.0870   20.8200    2.5630 C.3   287  ILE287      0.0266
     88  CG1       30.3370   20.2880    1.3430 C.3   287  ILE287      0.0019
     89  CG2       31.4240   22.2950    2.3740 C.3   287  ILE287      0.0020
     90  CD1       29.0240   20.9910    1.1010 C.3   287  ILE287      0.0001
     91  N         31.5600   18.4950    4.5490 N.am  288  PHE288     -0.1962
     92  CA        31.2280   17.2050    5.1450 C.3   288  PHE288      0.1771
     93  C         32.3970   16.2290    5.0290 C.2   288  PHE288      0.2619
     94  O         32.2190   15.0500    4.7270 O.2   288  PHE288     -0.2715
     95  CB        29.9750   16.6090    4.4960 C.3   288  PHE288      0.0574
     96  CG        29.0210   16.0040    5.4810 C.ar  288  PHE288     -0.0200
     97  CD1       29.4780   15.1200    6.4520 C.ar  288  PHE288     -0.0042
     98  CD2       27.6700   16.3280    5.4490 C.ar  288  PHE288     -0.0042
     99  CE1       28.6020   14.5630    7.3720 C.ar  288  PHE288     -0.0003
    100  CE2       26.7870   15.7750    6.3640 C.ar  288  PHE288     -0.0003
    101  CZ        27.2510   14.8890    7.3270 C.ar  288  PHE288     -0.0000
    102  N         33.6000   16.7410    5.2450 N.am  289  ARG289     -0.1963
    103  CA        34.7840   15.9030    5.3240 C.3   289  ARG289      0.1729
    104  C         35.6050   16.4000    6.4930 C.2   289  ARG289      0.2616
    105  O         35.7300   17.6040    6.7070 O.2   289  ARG289     -0.2715
    106  CB        35.6020   15.9730    4.0360 C.3   289  ARG289      0.0348
    107  CG        34.9350   15.3420    2.8310 C.3   289  ARG289      0.0492
    108  CD        34.8800   13.8170    2.9160 C.3   289  ARG289      0.2205
    109  NE        34.2910   13.2530    1.7050 N.pl3 289  ARG289     -0.0865
    110  CZ        32.9820   13.1390    1.5030 C.cat 289  ARG289      0.5346
    111  NH1       32.1340   13.5330    2.4420 N.pl3 289  ARG289      0.1354
    112  NH2       32.5200   12.6340    0.3660 N.pl3 289  ARG289      0.1354
    113  N         36.1600   15.4740    7.2600 N.am  290  PHE290     -0.1960
    114  CA        36.8800   15.8540    8.4600 C.3   290  PHE290      0.1771
    115  C         38.2510   15.2050    8.4920 C.2   290  PHE290      0.2620
    116  O         38.4100   14.0470    8.1050 O.2   290  PHE290     -0.2715
    117  CB        36.0420   15.5160    9.6850 C.3   290  PHE290      0.0574
    118  CG        34.5880   15.7840    9.4850 C.ar  290  PHE290     -0.0200
    119  CD1       34.1000   17.0820    9.5220 C.ar  290  PHE290     -0.0042
    120  CD2       33.7100   14.7490    9.2170 C.ar  290  PHE290     -0.0042
    121  CE1       32.7570   17.3420    9.3220 C.ar  290  PHE290     -0.0003
    122  CE2       32.3610   15.0030    9.0160 C.ar  290  PHE290     -0.0003
    123  CZ        31.8850   16.3000    9.0700 C.ar  290  PHE290     -0.0000
    124  N         39.2380   15.9750    8.9340 N.am  291  SER291     -0.1936
    125  CA        40.6360   15.5900    8.8100 C.3   291  SER291      0.2055
    126  C         41.0150   14.3610    9.6180 C.2   291  SER291      0.2643
    127  O         41.7370   13.4900    9.1370 O.2   291  SER291     -0.2714
    128  CB        41.5320   16.7570    9.2010 C.3   291  SER291      0.2130
    129  OG        41.3010   17.8440    8.3340 O.3   291  SER291     -0.2179
    130  N         40.5270   14.2980   10.8470 N.am  292  PHE292     -0.1973
    131  CA        40.9360   13.2400   11.7550 C.3   292  PHE292      0.1639
    132  C         39.7450   12.4970   12.3220 C.2   292  PHE292      0.2290
    133  O         39.0280   12.9950   13.1900 O.2   292  PHE292     -0.2864
    134  CB        41.8780   13.7910   12.8320 C.3   292  PHE292      0.0560
    135  CG        43.1940   14.2470   12.2710 C.ar  292  PHE292     -0.0200
    136  CD1       44.2020   13.3340   12.0180 C.ar  292  PHE292     -0.0042
    137  CD2       43.3980   15.5720   11.9350 C.ar  292  PHE292     -0.0042
    138  CE1       45.4060   13.7420   11.4690 C.ar  292  PHE292     -0.0003
    139  CE2       44.6000   15.9870   11.3890 C.ar  292  PHE292     -0.0003
    140  CZ        45.6030   15.0690   11.1570 C.ar  292  PHE292     -0.0000
    141  N         22.9920   22.7830    6.1730 N.3   330  TYR330     -0.1227
    142  CA        23.9420   23.3570    7.1220 C.3   330  TYR330      0.1736
    143  C         25.3600   23.4300    6.5490 C.2   330  TYR330      0.2595
    144  O         26.0940   24.3870    6.7870 O.2   330  TYR330     -0.2718
    145  CB        23.9420   22.5190    8.4030 C.3   330  TYR330      0.0548
    146  CG        24.5450   23.1760    9.6280 C.ar  330  TYR330     -0.0200
    147  CD1       23.8350   23.2330   10.8210 C.ar  330  TYR330     -0.0009
    148  CD2       25.8250   23.7140    9.6040 C.ar  330  TYR330     -0.0009
    149  CE1       24.3790   23.8150   11.9560 C.ar  330  TYR330      0.0417
    150  CE2       26.3800   24.3030   10.7320 C.ar  330  TYR330      0.0417
    151  CZ        25.6500   24.3500   11.9070 C.ar  330  TYR330      0.1957
    152  OH        26.1850   24.9300   13.0350 O.3   330  TYR330     -0.2866
    153  N         25.7360   22.4150    5.7840 N.am  331  PHE331     -0.1976
    154  CA        27.1030   22.2820    5.3060 C.3   331  PHE331      0.1639
    155  C         27.4260   23.1940    4.1280 C.2   331  PHE331      0.2290
    156  O         28.5890   23.5440    3.9040 O.2   331  PHE331     -0.2864
    157  CB        27.3930   20.8150    4.9670 C.3   331  PHE331      0.0560
    158  CG        27.3760   19.9150    6.1670 C.ar  331  PHE331     -0.0200
    159  CD1       26.1850   19.3730    6.6260 C.ar  331  PHE331     -0.0042
    160  CD2       28.5450   19.6470    6.8630 C.ar  331  PHE331     -0.0042
    161  CE1       26.1670   18.5590    7.7420 C.ar  331  PHE331     -0.0003
    162  CE2       28.5350   18.8350    7.9790 C.ar  331  PHE331     -0.0003
    163  CZ        27.3450   18.2890    8.4180 C.ar  331  PHE331     -0.0000
    164  N         29.4420   26.4430    4.5850 N.3   334  TYR334     -0.1241
    165  CA        30.8190   26.3300    5.0370 C.3   334  TYR334      0.1605
    166  C         31.7890   26.0710    3.8960 C.2   334  TYR334      0.2264
    167  O         32.9360   25.6920    4.1320 O.2   334  TYR334     -0.2867
    168  CB        30.9650   25.2560    6.1220 C.3   334  TYR334      0.0534
    169  CG        30.5750   25.7500    7.4870 C.ar  334  TYR334     -0.0201
    170  CD1       29.2590   25.6630    7.9260 C.ar  334  TYR334     -0.0009
    171  CD2       31.5190   26.3160    8.3370 C.ar  334  TYR334     -0.0009
    172  CE1       28.8980   26.1220    9.1730 C.ar  334  TYR334      0.0417
    173  CE2       31.1660   26.7760    9.5870 C.ar  334  TYR334      0.0417
    174  CZ        29.8510   26.6780   10.0010 C.ar  334  TYR334      0.1957
    175  OH        29.4780   27.1390   11.2470 O.3   334  TYR334     -0.2866
    176  N         20.6720   19.4830    9.8220 N.3   440  HIS440     -0.1226
    177  CA        21.4870   18.5390   10.5690 C.3   440  HIS440      0.1752
    178  C         21.6500   18.9870   12.0200 C.2   440  HIS440      0.2596
    179  O         22.1020   20.0990   12.2900 O.2   440  HIS440     -0.2718
    180  CB        22.8510   18.4520    9.8770 C.3   440  HIS440      0.0759
    181  CG        23.7100   17.3100   10.3240 C.ar  440  HIS440      0.0818
    182  ND1       23.3980   15.9930   10.0620 N.ar  440  HIS440     -0.2268
    183  CD2       24.9030   17.2940   10.9630 C.ar  440  HIS440      0.1154
    184  CE1       24.3500   15.2140   10.5440 C.ar  440  HIS440      0.1986
    185  NE2       25.2780   15.9790   11.0930 N.ar  440  HIS440     -0.2212
    186  N         21.2580   18.1240   12.9500 N.am  441  GLY441     -0.1957
    187  CA        21.4700   18.3760   14.3630 C.3   441  GLY441      0.1869
    188  C         20.2810   18.9480   15.1130 C.2   441  GLY441      0.2309
    189  O         20.2990   19.0140   16.3370 O.2   441  GLY441     -0.2863
@<TRIPOS>BOND
     1   112   110    1
     2    90    88    1
     3    88    87    1
     4   110   109    2
     5   110   111    1
     6    83    84    1
     7   109   108    1
     8    89    87    1
     9    86    85    2
    10    87    84    1
    11    84    85    1
    12   107   108    1
    13   107   106    1
    14    85    91   am
    15   166   167    2
    16   166   165    1
    17   156   155    2
    18   106   103    1
    19   155   154    1
    20    95    92    1
    21    95    96    1
    22    91    92    1
    23   164   165    1
    24    94    93    2
    25   157   154    1
    26   157   158    1
    27    93    92    1
    28    93   102   am
    29   165   168    1
    30   102   103    1
    31   154   153    1
    32   103   104    1
    33    98    96   ar
    34    98   100   ar
    35    96    97   ar
    36   153   143   am
    37   168   169    1
    38   158   159   ar
    39   158   160   ar
    40   141   142    1
    41   100   101   ar
    42    97    99   ar
    43    72    71    2
    44   104   105    2
    45   104   113   am
    46   143   144    2
    47   143   142    1
    48   159   161   ar
    49   160   162   ar
    50    77    75   ar
    51    77    78   ar
    52   142   145    1
    53   113   114    1
    54   101    99   ar
    55    75    74   ar
    56    80    78   ar
    57    80    82   ar
    58   169   170   ar
    59   169   171   ar
    60    71    70    1
    61    78    76   ar
    62   161   163   ar
    63   170   172   ar
    64   162   163   ar
    65   116   115    2
    66    82    81   ar
    67    74    76   ar
    68    74    73    1
    69   129   128    1
    70   171   173   ar
    71   145   146    1
    72    76    79   ar
    73   114   115    1
    74   114   117    1
    75   115   124   am
    76   125   124    1
    77   125   128    1
    78   125   126    1
    79    70    73    1
    80    70    69    1
    81   122   123   ar
    82   122   120   ar
    83   123   121   ar
    84    81    79   ar
    85   127   126    2
    86   172   174   ar
    87   120   118   ar
    88   121   119   ar
    89    63    62    2
    90   118   119   ar
    91   118   117    1
    92   173   174   ar
    93   148   146   ar
    94   148   150   ar
    95   126   130   am
    96   146   147   ar
    97   176   177    1
    98   180   181    1
    99   180   177    1
   100   174   175    1
   101    69    62   am
   102   182   181   ar
   103   182   184   ar
   104    62    61    1
   105   181   183   ar
   106   184   185   ar
   107   177   178    1
   108   150   151   ar
   109   147   149   ar
   110   130   131    1
   111   183   185   ar
   112   140   139   ar
   113   140   138   ar
   114   139   137   ar
   115    61    60    1
   116    61    64    1
   117   138   136   ar
   118   131   132    1
   119   131   134    1
   120    12    11    1
   121   151   149   ar
   122   151   152    1
   123   137   135   ar
   124   136   135   ar
   125   178   179    2
   126   178   186   am
   127    19    18   ar
   128   135   134    1
   129   132   133    2
   130    48    46   ar
   131    48    49   ar
   132    64    65    1
   133    50    49    1
   134    11     9   ar
   135    11    10   ar
   136    46    44   ar
   137   186   187    1
   138    65    66    1
   139    20    18   ar
   140    49    47   ar
   141     9     7   ar
   142    18    17    1
   143    10     8   ar
   144    44    43    1
   145    44    45   ar
   146    59    57   ar
   147    47    45   ar
   148     7     6   ar
   149    66    68   ar
   150    66    67   ar
   151     8     6   ar
   152    43    40    1
   153   187   188    1
   154    17    14    1
   155     6     5    1
   156    14    15    1
   157    14    13    1
   158    37    38    2
   159    37    36    1
   160    15    16    2
   161    57    56    1
   162    57    58   ar
   163   188   189    2
   164    39    40    1
   165    56    55    1
   166     5     2    1
   167    53    54    2
   168    53    52    1
   169    40    41    1
   170    36    35    1
   171    29    27   ar
   172    29    30   ar
   173    27    26   ar
   174    52    55    1
   175    52    51    1
   176    41    42    2
   177    32    30   ar
   178    32    34   ar
   179    30    28   ar
   180     2     3    1
   181     2     1    1
   182    26    28   ar
   183    26    25    1
   184     3     4    2
   185    28    31   ar
   186    34    33   ar
   187    25    22    1
   188    33    31   ar
   189    22    21    1
   190    22    23    1
   191    23    24    2
