@<TRIPOS>MOLECULE
tmp/2whwB01.pdb
 178 170 0 0 0
SMALL
GASTEIGER

@<TRIPOS>ATOM
      1  N         21.7080    7.8500    0.6820 N.3    61  TRP61      -0.1241
      2  CA        21.6380    6.4680    1.1640 C.3    61  TRP61       0.1605
      3  C         21.5810    5.4480    0.0110 C.2    61  TRP61       0.2264
      4  O         21.9370    4.2600    0.1770 O.2    61  TRP61      -0.2867
      5  CB        20.4640    6.2910    2.1220 C.3    61  TRP61       0.0550
      6  CG        20.7570    6.7230    3.5160 C.ar   61  TRP61       0.0003
      7  CD1       20.5570    7.9280    4.0120 C.ar   61  TRP61       0.0946
      8  CD2       21.2650    5.9190    4.5950 C.ar   61  TRP61       0.0152
      9  NE1       20.9110    7.9820    5.3490 N.ar   61  TRP61      -0.2442
     10  CE2       21.3580    6.7500    5.7290 C.ar   61  TRP61       0.0810
     11  CE3       21.6440    4.5740    4.7120 C.ar   61  TRP61       0.0012
     12  CZ2       21.8140    6.3020    6.9610 C.ar   61  TRP61       0.0191
     13  CZ3       22.1140    4.1310    5.9270 C.ar   61  TRP61       0.0001
     14  CH2       22.1960    4.9920    7.0430 C.ar   61  TRP61       0.0015
     15  N         15.9170   14.7270    2.5880 N.3    78  ASN78      -0.1240
     16  CA        16.2270   16.0090    3.2170 C.3    78  ASN78       0.1653
     17  C         17.6420   16.3300    2.7690 C.2    78  ASN78       0.2266
     18  O         18.3630   15.4400    2.2460 O.2    78  ASN78      -0.2867
     19  CB        16.1110   15.9340    4.7150 C.3    78  ASN78       0.1155
     20  CG        17.2240   15.0450    5.3550 C.2    78  ASN78       0.2627
     21  OD1       18.3690   15.4510    5.3970 O.2    78  ASN78      -0.2716
     22  ND2       16.8460   13.8840    5.9300 N.am   78  ASN78      -0.0877
     23  N         20.4770   17.0580    4.0390 N.3    80  LEU80      -0.1231
     24  CA        21.6310   16.4750    4.7120 C.3    80  LEU80       0.1693
     25  C         21.8840   15.0570    4.2630 C.2    80  LEU80       0.2591
     26  O         22.9760   14.5560    4.3590 O.2    80  LEU80      -0.2718
     27  CB        21.4780   16.5020    6.2460 C.3    80  LEU80       0.0284
     28  CG        22.8060   16.1630    7.0240 C.3    80  LEU80       0.0019
     29  CD1       24.0900   16.7440    6.4530 C.3    80  LEU80       0.0001
     30  CD2       22.6760   16.6700    8.4220 C.3    80  LEU80       0.0001
     31  N         20.8570   14.4130    3.7700 N.am   81  GLU81      -0.1979
     32  CA        20.9920   13.0830    3.2240 C.3    81  GLU81       0.1602
     33  C         20.9020   13.0610    1.6770 C.2    81  GLU81       0.2287
     34  O         20.3720   12.1380    1.0630 O.2    81  GLU81      -0.2864
     35  CB        20.0400   12.0940    3.9920 C.3    81  GLU81       0.0415
     36  CG        20.4880   12.0060    5.4390 C.3    81  GLU81       0.1163
     37  CD        19.5940   11.1740    6.3860 C.2    81  GLU81       0.3649
     38  OE1       18.4080   11.5220    6.5920 O.co2  81  GLU81      -0.2457
     39  OE2       20.1070   10.2050    7.0130 O.co2  81  GLU81      -0.2457
     40  N         14.5740    9.0060   19.4530 N.3   165  PHE165     -0.1227
     41  CA        15.0370    8.8590   18.0760 C.3   165  PHE165      0.1736
     42  C         16.5460    9.1250   18.0360 C.2   165  PHE165      0.2595
     43  O         17.3170    8.3810   17.3930 O.2   165  PHE165     -0.2718
     44  CB        14.1540    9.7480   17.1320 C.3   165  PHE165      0.0547
     45  CG        14.8680   10.3240   15.9300 C.ar  165  PHE165     -0.0202
     46  CD1       15.1290    9.5450   14.7890 C.ar  165  PHE165     -0.0042
     47  CD2       15.2370   11.6630   15.9040 C.ar  165  PHE165     -0.0042
     48  CE1       15.7890   10.1000   13.6330 C.ar  165  PHE165     -0.0003
     49  CE2       15.9010   12.2110   14.7770 C.ar  165  PHE165     -0.0003
     50  CZ        16.1760   11.4230   13.6410 C.ar  165  PHE165     -0.0000
     51  N         16.9530   10.1460   18.7910 N.am  166  VAL166     -0.1980
     52  CA        18.3480   10.5660   18.8770 C.3   166  VAL166      0.1595
     53  C         19.1530    9.7760   19.9350 C.2   166  VAL166      0.2287
     54  O         20.2130    9.2460   19.6110 O.2   166  VAL166     -0.2864
     55  CB        18.4530   12.1020   19.0550 C.3   166  VAL166      0.0276
     56  CG1       19.8830   12.5630   19.4050 C.3   166  VAL166      0.0022
     57  CG2       17.9390   12.8160   17.7850 C.3   166  VAL166      0.0022
     58  N         10.1540    7.3590   15.4780 N.3   178  MET178     -0.1245
     59  CA        10.3290    7.9150   14.1700 C.3   178  MET178      0.1570
     60  C          9.0070    7.9170   13.4430 C.2   178  MET178      0.2261
     61  O          8.6500    8.9380   12.8390 O.2   178  MET178     -0.2867
     62  CB        11.3310    7.1100   13.3410 C.3   178  MET178      0.0387
     63  CG        12.6320    7.7820   13.1910 C.3   178  MET178      0.0595
     64  SD        13.7470    6.8390   12.1440 S.3   178  MET178     -0.1393
     65  CE        14.7040    5.9270   13.3550 C.3   178  MET178      0.0692
     66  N         11.1460   17.8630    9.3000 N.3   225  HIS225     -0.1226
     67  CA        11.8370   17.0460   10.2750 C.3   225  HIS225      0.1752
     68  C         13.2920   17.4930   10.5130 C.2   225  HIS225      0.2595
     69  O         13.7380   17.6150   11.6720 O.2   225  HIS225     -0.2718
     70  CB        11.7650   15.5980    9.8370 C.3   225  HIS225      0.0759
     71  CG        12.7490   14.7120   10.5250 C.ar  225  HIS225      0.0818
     72  ND1       13.9320   14.3090    9.9280 N.ar  225  HIS225     -0.2268
     73  CD2       12.7170   14.1240   11.7440 C.ar  225  HIS225      0.1154
     74  CE1       14.5790   13.5160   10.7640 C.ar  225  HIS225      0.1986
     75  NE2       13.8580   13.3730   11.8610 N.ar  225  HIS225     -0.2212
     76  N         14.0420   17.7530    9.4360 N.am  226  ILE226     -0.1980
     77  CA        15.4610   18.0510    9.6450 C.3   226  ILE226      0.1595
     78  C         15.5740   19.4000   10.3740 C.2   226  ILE226      0.2287
     79  O         16.3600   19.5470   11.2780 O.2   226  ILE226     -0.2864
     80  CB        16.3160   17.9570    8.3070 C.3   226  ILE226      0.0276
     81  CG1       17.8310   17.8540    8.6040 C.3   226  ILE226      0.0022
     82  CG2       16.0610   19.1390    7.3690 C.3   226  ILE226      0.0022
     83  CD1       18.1940   16.4880    9.3300 C.3   226  ILE226      0.0001
     84  N         14.4280   18.8550   14.1110 N.3   229  VAL229     -0.1231
     85  CA        15.2830   17.9580   14.9260 C.3   229  VAL229      0.1692
     86  C         16.6780   18.6240   15.1320 C.2   229  VAL229      0.2591
     87  O         17.2770   18.4990   16.1960 O.2   229  VAL229     -0.2718
     88  CB        15.4260   16.5790   14.3210 C.3   229  VAL229      0.0266
     89  CG1       16.4890   15.8290   15.0130 C.3   229  VAL229      0.0020
     90  CG2       14.1210   15.7740   14.5090 C.3   229  VAL229      0.0020
     91  N         17.2200   19.2960   14.1250 N.am  230  ALA230     -0.1980
     92  CA        18.4060   20.0840   14.4510 C.3   230  ALA230      0.1597
     93  C         18.0950   21.1720   15.5210 C.2   230  ALA230      0.2287
     94  O         18.8830   21.3440   16.4720 O.2   230  ALA230     -0.2864
     95  CB        19.0790   20.6420   13.1740 C.3   230  ALA230      0.0319
     96  N         18.3750   19.4870   19.0020 N.3   233  GLU233     -0.1231
     97  CA        19.4430   18.6420   19.5820 C.3   233  GLU233      0.1699
     98  C         20.9390   19.0650   19.4840 C.2   233  GLU233      0.2592
     99  O         21.8070   18.3450   19.9280 O.2   233  GLU233     -0.2718
    100  CB        19.2780   17.2220   19.0620 C.3   233  GLU233      0.0402
    101  CG        17.8800   16.5340   19.3460 C.3   233  GLU233      0.1161
    102  CD        17.7200   15.9490   20.7760 C.2   233  GLU233      0.3649
    103  OE1       18.7590   15.7740   21.5180 O.co2 233  GLU233     -0.2457
    104  OE2       16.5260   15.6690   21.1530 O.co2 233  GLU233     -0.2457
    105  N         21.2480   20.2270   18.9580 N.am  234  THR234     -0.1953
    106  CA        22.6290   20.6570   18.9280 C.3   234  THR234      0.1897
    107  C         22.9080   21.8830   19.8040 C.2   234  THR234      0.2313
    108  O         23.8310   21.8910   20.6160 O.2   234  THR234     -0.2863
    109  CB        22.9470   21.1070   17.5130 C.3   234  THR234      0.1794
    110  OG1       21.8120   21.8530   17.0070 O.3   234  THR234     -0.2208
    111  CG2       23.2600   19.9410   16.6650 C.3   234  THR234      0.0378
    112  N         28.7570   18.4020   18.3180 N.3   277  VAL277     -0.1245
    113  CA        28.8710   17.3530   17.3030 C.3   277  VAL277      0.1561
    114  C         30.2420   16.6700   17.4050 C.2   277  VAL277      0.2260
    115  O         31.2190   17.2110   16.9190 O.2   277  VAL277     -0.2867
    116  CB        28.6120   17.8560   15.8500 C.3   277  VAL277      0.0252
    117  CG1       28.7170   16.6790   14.9040 C.3   277  VAL277      0.0019
    118  CG2       27.1600   18.5140   15.6920 C.3   277  VAL277      0.0019
    119  N         31.1090   13.5250   16.0550 N.3   279  SER279     -0.1202
    120  CA        31.3490   12.9690   14.7250 C.3   279  SER279      0.2020
    121  C         30.2300   13.4070   13.7730 C.2   279  SER279      0.2619
    122  O         29.0640   13.3960   14.1490 O.2   279  SER279     -0.2717
    123  CB        31.2520   11.4280   14.8080 C.3   279  SER279      0.2103
    124  OG        32.4560   10.9410   15.3270 O.3   279  SER279     -0.2182
    125  N         30.5870   13.7370   12.5470 N.am  280  ALA280     -0.1965
    126  CA        29.6630   14.2600   11.5370 C.3   280  ALA280      0.1728
    127  C         28.7170   13.1570   11.0420 C.2   280  ALA280      0.2617
    128  O         28.9050   12.0000   11.4180 O.2   280  ALA280     -0.2715
    129  CB        30.4750   14.7980   10.3910 C.3   280  ALA280      0.0334
    130  N         27.6460   13.4900   10.3090 N.am  281  THR281     -0.1937
    131  CA        26.6280   12.4860    9.9790 C.3   281  THR281      0.2028
    132  C         27.1790   11.5360    8.9040 C.2   281  THR281      0.2642
    133  O         28.2660   11.8010    8.3150 O.2   281  THR281     -0.2714
    134  CB        25.3000   13.1340    9.4600 C.3   281  THR281      0.1808
    135  OG1       25.5850   14.0110    8.3410 O.3   281  THR281     -0.2208
    136  CG2       24.6740   13.9170   10.5730 C.3   281  THR281      0.0379
    137  N         26.4810   10.4390    8.6410 N.am  282  TYR282     -0.1973
    138  CA        27.0560    9.3680    7.7460 C.3   282  TYR282      0.1639
    139  C         27.4730    9.8270    6.3050 C.2   282  TYR282      0.2290
    140  O         26.6990   10.5320    5.5740 O.2   282  TYR282     -0.2864
    141  CB        26.0190    8.2690    7.5600 C.3   282  TYR282      0.0560
    142  CG        25.7860    7.3900    8.7920 C.ar  282  TYR282     -0.0198
    143  CD1       26.3660    7.6990   10.0070 C.ar  282  TYR282     -0.0009
    144  CD2       25.0240    6.2240    8.7020 C.ar  282  TYR282     -0.0009
    145  CE1       26.1610    6.9440   11.1290 C.ar  282  TYR282      0.0417
    146  CE2       24.8450    5.4100    9.8250 C.ar  282  TYR282      0.0417
    147  CZ        25.4010    5.8080   11.0430 C.ar  282  TYR282      0.1957
    148  OH        25.2180    5.0370   12.1820 O.3   282  TYR282     -0.2866
    149  N         26.7130   23.7190    8.1180 N.3   341  CYS341     -0.1235
    150  CA        25.5600   24.0690    8.9000 C.3   341  CYS341      0.1677
    151  C         24.7710   25.2940    8.3860 C.2   341  CYS341      0.2270
    152  O         25.2230   26.4280    8.4480 O.2   341  CYS341     -0.2867
    153  CB        25.8760   24.2650   10.3950 C.3   341  CYS341      0.0956
    154  SG        24.2960   24.4350   11.3480 S.3   341  CYS341     -0.0801
    155  N         26.2290    8.2990   22.7640 N.3   379  ASN379     -0.1240
    156  CA        26.2900    8.5720   21.3050 C.3   379  ASN379      0.1653
    157  C         27.6790    8.9900   20.7080 C.2   379  ASN379      0.2266
    158  O         28.2960    9.9890   21.1300 O.2   379  ASN379     -0.2867
    159  CB        25.2110    9.6060   20.9500 C.3   379  ASN379      0.1155
    160  CG        24.7770    9.5150   19.5160 C.2   379  ASN379      0.2627
    161  OD1       25.3560    8.7480   18.7170 O.2   379  ASN379     -0.2716
    162  ND2       23.7470   10.2700   19.1690 N.am  379  ASN379     -0.0877
    163  N         28.2120   10.1580   17.8140 N.3   381  MET381     -0.1230
    164  CA        27.8730   11.3960   17.1190 C.3   381  MET381      0.1702
    165  C         27.7260   12.6690   17.9940 C.2   381  MET381      0.2592
    166  O         28.2070   13.7110   17.6420 O.2   381  MET381     -0.2718
    167  CB        26.5820   11.1210   16.3630 C.3   381  MET381      0.0401
    168  CG        26.3650   11.9210   15.1200 C.3   381  MET381      0.0596
    169  SD        25.2390   11.1830   13.8620 S.3   381  MET381     -0.1393
    170  CE        26.2770    9.8660   13.2680 C.3   381  MET381      0.0692
    171  N         27.0060   12.5850   19.1100 N.am  382  ILE382     -0.1980
    172  CA        26.7450   13.7390   19.9480 C.3   382  ILE382      0.1595
    173  C         27.6020   13.7520   21.2290 C.2   382  ILE382      0.2287
    174  O         27.7520   12.7560   21.8770 O.2   382  ILE382     -0.2864
    175  CB        25.2230   13.8780   20.2710 C.3   382  ILE382      0.0276
    176  CG1       24.4760   14.3920   19.0340 C.3   382  ILE382      0.0022
    177  CG2       24.9390   14.8720   21.4880 C.3   382  ILE382      0.0022
    178  CD1       24.5420   16.0140   18.7500 C.3   382  ILE382      0.0001
@<TRIPOS>BOND
     1     3     4    2
     2     3     2    1
     3     1     2    1
     4    34    33    2
     5     2     5    1
     6    33    32    1
     7     5     6    1
     8    18    17    2
     9    15    16    1
    10    17    16    1
    11    16    19    1
    12    32    31    1
    13    32    35    1
    14     6     7   ar
    15     6     8   ar
    16    31    25   am
    17    35    36    1
    18     7     9   ar
    19    23    24    1
    20    25    26    2
    21    25    24    1
    22     8    11   ar
    23     8    10   ar
    24    11    13   ar
    25    24    27    1
    26    19    20    1
    27     9    10   ar
    28    20    21    2
    29    20    22   am
    30    36    37    1
    31   140   139    2
    32    10    12   ar
    33    13    14   ar
    34    27    28    1
    35   139   138    1
    36    37    38   ar
    37    37    39   ar
    38    29    28    1
    39    12    14   ar
    40    28    30    1
    41    82    80    1
    42   141   138    1
    43   141   142    1
    44   138   137    1
    45   149   150    1
    46    80    81    1
    47    80    77    1
    48   133   132    2
    49   135   134    1
    50   151   152    2
    51   151   150    1
    52    81    83    1
    53   137   132   am
    54   144   142   ar
    55   144   146   ar
    56   142   143   ar
    57   150   153    1
    58   132   131    1
    59    66    67    1
    60    76    77    1
    61    76    68   am
    62   134   131    1
    63   134   136    1
    64    77    78    1
    65   146   147   ar
    66    70    67    1
    67    70    71    1
    68    72    71   ar
    69    72    74   ar
    70   131   130    1
    71   143   145   ar
    72    67    68    1
    73   130   127   am
    74    78    79    2
    75   129   126    1
    76   153   154    1
    77    68    69    2
    78    71    73   ar
    79    74    75   ar
    80   127   128    2
    81   127   126    1
    82   147   145   ar
    83   147   148    1
    84   126   125    1
    85    73    75   ar
    86    64    63    1
    87    64    65    1
    88   125   121   am
    89    61    60    2
    90    95    92    1
    91    63    62    1
    92   170   169    1
    93    62    59    1
    94    60    59    1
    95    48    50   ar
    96    48    46   ar
    97    50    49   ar
    98   121   122    2
    99   121   120    1
   100   169   168    1
   101    84    85    1
   102    91    92    1
   103    91    86   am
   104    59    58    1
   105    88    90    1
   106    88    85    1
   107    88    89    1
   108    92    93    1
   109   120   123    1
   110   120   119    1
   111    49    47   ar
   112    46    45   ar
   113   123   124    1
   114   117   116    1
   115    85    86    1
   116   168   167    1
   117    86    87    2
   118    93    94    2
   119   118   116    1
   120   116   113    1
   121    47    45   ar
   122    45    44    1
   123   167   164    1
   124   111   109    1
   125   115   114    2
   126   110   109    1
   127   164   163    1
   128   164   165    1
   129    44    41    1
   130   113   114    1
   131   113   112    1
   132    43    42    2
   133   109   106    1
   134   166   165    2
   135    57    55    1
   136   165   171   am
   137    42    41    1
   138    42    51   am
   139    41    40    1
   140   161   160    2
   141   178   176    1
   142    51    52    1
   143    52    55    1
   144    52    53    1
   145   106   105    1
   146   106   107    1
   147   105    98   am
   148    96    97    1
   149   176   175    1
   150    55    56    1
   151   100   101    1
   152   100    97    1
   153   171   172    1
   154   162   160   am
   155   101   102    1
   156    98    97    1
   157    98    99    2
   158   160   159    1
   159    54    53    2
   160   107   108    2
   161   172   175    1
   162   172   173    1
   163   175   177    1
   164   157   158    2
   165   157   156    1
   166   102   104   ar
   167   102   103   ar
   168   159   156    1
   169   173   174    2
   170   156   155    1
