@<TRIPOS>MOLECULE
tmp/2whxA00.pdb
 127 122 0 0 0
SMALL
GASTEIGER

@<TRIPOS>ATOM
      1  N         15.1150    3.2840   17.9230 N.3   159  PRO159     -0.2102
      2  CA        15.6170    1.9040   17.8240 C.3   159  PRO159      0.1504
      3  C         15.3720    1.3310   16.4290 C.2   159  PRO159      0.2576
      4  O         14.2830    1.5000   15.8780 O.2   159  PRO159     -0.2718
      5  CB        14.7790    1.1540   18.8660 C.3   159  PRO159      0.0282
      6  CG        14.3500    2.2130   19.8370 C.3   159  PRO159      0.0208
      7  CD        14.0910    3.4100   18.9780 C.3   159  PRO159      0.0893
      8  N         16.3880    0.6890   15.8550 N.am  160  GLY160     -0.1943
      9  CA        16.2810    0.1080   14.5110 C.3   160  GLY160      0.2014
     10  C         16.6090    1.0480   13.3620 C.2   160  GLY160      0.2639
     11  O         16.5730    0.6370   12.2040 O.2   160  GLY160     -0.2714
     12  N         16.8530    2.2980   13.6550 N.am  161  ALA161     -0.1963
     13  CA        17.0900    3.2900   12.6590 C.3   161  ALA161      0.1728
     14  C         18.3240    2.9600   11.8730 C.2   161  ALA161      0.2617
     15  O         18.3540    3.1690   10.7180 O.2   161  ALA161     -0.2715
     16  CB        17.1900    4.5930   13.2700 C.3   161  ALA161      0.0334
     17  N         19.3210    2.3970   12.5210 N.am  162  GLY162     -0.1940
     18  CA        20.4650    1.8480   11.8570 C.3   162  GLY162      0.2014
     19  C         21.7580    2.3510   12.4000 C.2   162  GLY162      0.2639
     20  O         22.7320    2.3540   11.7170 O.2   162  GLY162     -0.2714
     21  N         21.7540    2.7760   13.6410 N.am  163  LYS163     -0.1963
     22  CA        22.8840    3.4410   14.2430 C.3   163  LYS163      0.1728
     23  C         24.1450    2.6250   14.2480 C.2   163  LYS163      0.2617
     24  O         25.1610    3.0700   13.9020 O.2   163  LYS163     -0.2715
     25  CB        22.5370    3.9310   15.6410 C.3   163  LYS163      0.0311
     26  CG        21.3630    4.8460   15.6880 C.3   163  LYS163      0.0038
     27  CD        21.1010    5.3920   17.0470 C.3   163  LYS163      0.0206
     28  CE        20.5400    4.4210   18.0330 C.3   163  LYS163      0.1093
     29  NZ        19.4430    3.6470   17.5680 N.3   163  LYS163     -0.1314
     30  N         24.0200    1.4250   14.7160 N.am  164  THR164     -0.1937
     31  CA        25.0700    0.4210   14.8160 C.3   164  THR164      0.2028
     32  C         25.4990   -0.1250   13.4520 C.2   164  THR164      0.2642
     33  O         26.6840   -0.1400   13.1330 O.2   164  THR164     -0.2714
     34  CB        24.5870   -0.7520   15.7040 C.3   164  THR164      0.1808
     35  OG1       24.3500   -0.2740   17.0310 O.3   164  THR164     -0.2208
     36  CG2       25.6130   -1.8900   15.7530 C.3   164  THR164      0.0379
     37  N         24.5300   -0.5670   12.6600 N.am  165  LYS165     -0.1963
     38  CA        24.8050   -1.3280   11.4460 C.3   165  LYS165      0.1728
     39  C         25.1030   -0.4660   10.2200 C.2   165  LYS165      0.2616
     40  O         25.7460   -0.9240    9.2730 O.2   165  LYS165     -0.2715
     41  CB        23.6320   -2.2680   11.1460 C.3   165  LYS165      0.0311
     42  CG        24.0290   -3.7320   11.0290 C.3   165  LYS165      0.0038
     43  CD        24.1470   -4.3810   12.4120 C.3   165  LYS165      0.0206
     44  CE        25.0710   -5.6060   12.4160 C.3   165  LYS165      0.1093
     45  NZ        24.4630   -6.7960   11.7480 N.3   165  LYS165     -0.1314
     46  N         24.6380    0.7780   10.2340 N.am  166  ARG166     -0.1977
     47  CA        24.6750    1.6040    9.0340 C.3   166  ARG166      0.1597
     48  C         25.4350    2.9180    9.2410 C.2   166  ARG166      0.2287
     49  O         26.2770    3.2890    8.4200 O.2   166  ARG166     -0.2864
     50  CB        23.2470    1.8470    8.5240 C.3   166  ARG166      0.0334
     51  CG        23.1540    2.3670    7.0960 C.3   166  ARG166      0.0492
     52  CD        21.7000    2.4920    6.6240 C.3   166  ARG166      0.2205
     53  NE        20.8950    3.3080    7.5330 N.pl3 166  ARG166     -0.0865
     54  CZ        20.8820    4.6390    7.5490 C.cat 166  ARG166      0.5346
     55  NH1       21.6240    5.3350    6.6940 N.pl3 166  ARG166      0.1354
     56  NH2       20.1210    5.2770    8.4260 N.pl3 166  ARG166      0.1354
     57  N         31.9630   -8.0140   12.2120 N.3   197  GLU197     -0.1245
     58  CA        31.5600   -8.5290   10.9070 C.3   197  GLU197      0.1567
     59  C         30.9910   -7.4180   10.0190 C.2   197  GLU197      0.2260
     60  O         31.2560   -7.3850    8.8170 O.2   197  GLU197     -0.2867
     61  CB        30.5730   -9.7030   11.0590 C.3   197  GLU197      0.0388
     62  CG        29.0880   -9.3220   11.1570 C.3   197  GLU197      0.1160
     63  CD        28.2460  -10.3300   11.9350 C.2   197  GLU197      0.3649
     64  OE1       27.2140   -9.9140   12.5080 O.co2 197  GLU197     -0.2457
     65  OE2       28.6080  -11.5280   11.9780 O.co2 197  GLU197     -0.2457
     66  N         25.2650    1.7890   22.0560 N.3   249  GLU249     -0.1245
     67  CA        24.3570    1.4210   23.1520 C.3   249  GLU249      0.1567
     68  C         24.7520    2.1670   24.4300 C.2   249  GLU249      0.2260
     69  O         24.9980    1.5640   25.4770 O.2   249  GLU249     -0.2867
     70  CB        24.3060   -0.1090   23.3790 C.3   249  GLU249      0.0388
     71  CG        24.2530   -0.9980   22.1010 C.3   249  GLU249      0.1160
     72  CD        23.2060   -0.5730   21.0620 C.2   249  GLU249      0.3649
     73  OE1       22.1660    0.0050   21.4400 O.co2 249  GLU249     -0.2457
     74  OE2       23.4230   -0.8250   19.8520 O.co2 249  GLU249     -0.2457
     75  N         10.6240    0.7330   13.0690 N.3   293  ASN293     -0.1240
     76  CA        10.6460    0.5160   11.6120 C.3   293  ASN293      0.1653
     77  C          9.3190   -0.0280   11.0840 C.2   293  ASN293      0.2266
     78  O          8.9020    0.2920    9.9680 O.2   293  ASN293     -0.2867
     79  CB        11.7720   -0.4410   11.2140 C.3   293  ASN293      0.1155
     80  CG        13.1370    0.0290   11.6700 C.2   293  ASN293      0.2627
     81  OD1       13.9290   -0.7610   12.1730 O.2   293  ASN293     -0.2716
     82  ND2       13.4180    1.3160   11.5020 N.am  293  ASN293     -0.0877
     83  N         19.9880   -8.4600   19.3990 N.3   380  ASN380     -0.1240
     84  CA        19.0590   -8.6220   18.2850 C.3   380  ASN380      0.1653
     85  C         18.3820   -9.9870   18.2890 C.2   380  ASN380      0.2266
     86  O         19.0630  -11.0060   18.3620 O.2   380  ASN380     -0.2867
     87  CB        19.7980   -8.4400   16.9560 C.3   380  ASN380      0.1155
     88  CG        20.2620   -7.0180   16.7380 C.2   380  ASN380      0.2627
     89  OD1       19.4530   -6.0930   16.6920 O.2   380  ASN380     -0.2716
     90  ND2       21.5750   -6.8370   16.5880 N.am  380  ASN380     -0.0877
     91  N         15.3120  -12.4020   16.2270 N.3   382  ARG382     -0.1245
     92  CA        14.3590  -12.5910   15.1520 C.3   382  ARG382      0.1563
     93  C         13.0560  -13.1080   15.7620 C.2   382  ARG382      0.2260
     94  O         12.7050  -14.2790   15.6170 O.2   382  ARG382     -0.2867
     95  CB        14.9280  -13.5500   14.1000 C.3   382  ARG382      0.0307
     96  CG        14.3210  -13.3780   12.7190 C.3   382  ARG382      0.0489
     97  CD        15.1390  -14.0920   11.6460 C.3   382  ARG382      0.2205
     98  NE        16.4790  -13.5180   11.4810 N.pl3 382  ARG382     -0.0865
     99  CZ        17.2660  -13.7350   10.4280 C.cat 382  ARG382      0.5346
    100  NH1       16.8560  -14.5130    9.4320 N.pl3 382  ARG382      0.1354
    101  NH2       18.4670  -13.1700   10.3660 N.pl3 382  ARG382      0.1354
    102  N         11.4180   -4.1160   14.4290 N.3   427  ARG427     -0.1231
    103  CA        12.6450   -3.6630   13.7600 C.3   427  ARG427      0.1694
    104  C         12.7260   -4.1080   12.3030 C.2   427  ARG427      0.2592
    105  O         13.5630   -3.6160   11.5360 O.2   427  ARG427     -0.2718
    106  CB        13.8820   -4.1730   14.5020 C.3   427  ARG427      0.0321
    107  CG        13.9170   -3.8420   15.9810 C.3   427  ARG427      0.0489
    108  CD        15.1820   -4.3810   16.6390 C.3   427  ARG427      0.2205
    109  NE        16.3810   -3.7260   16.1300 N.pl3 427  ARG427     -0.0865
    110  CZ        17.0550   -2.7670   16.7650 C.cat 427  ARG427      0.5346
    111  NH1       16.6620   -2.3230   17.9560 N.pl3 427  ARG427      0.1354
    112  NH2       18.1340   -2.2510   16.2010 N.pl3 427  ARG427      0.1354
    113  N         11.8610   -5.0470   11.9400 N.am  428  ASN428     -0.1961
    114  CA        11.8750   -5.6760   10.6280 C.3   428  ASN428      0.1804
    115  C         10.7210   -5.1560    9.7680 C.2   428  ASN428      0.2463
    116  O          9.5640   -5.4650   10.0410 O.2   428  ASN428     -0.2730
    117  CB        11.7890   -7.2000   10.7940 C.3   428  ASN428      0.1195
    118  CG        12.0490   -7.9670    9.4970 C.2   428  ASN428      0.2630
    119  OD1       12.4700   -9.1200    9.5400 O.2   428  ASN428     -0.2716
    120  ND2       11.7940   -7.3440    8.3540 N.am  428  ASN428     -0.0877
    121  N         11.0390   -4.3600    8.7270 N.am  429  PRO429     -0.2727
    122  CA        10.0530   -3.7480    7.8240 C.3   429  PRO429      0.1402
    123  C          9.1320   -4.7570    7.1350 C.2   429  PRO429      0.2269
    124  O          7.9880   -4.4280    6.8120 O.2   429  PRO429     -0.2865
    125  CB        10.9260   -3.0280    6.7880 C.3   429  PRO429      0.0296
    126  CG        12.1990   -2.7530    7.5000 C.3   429  PRO429      0.0237
    127  CD        12.4130   -3.9380    8.3960 C.3   429  PRO429      0.0939
@<TRIPOS>BOND
     1    52    51    1
     2    52    53    1
     3    55    54    1
     4   125   126    1
     5   125   122    1
     6   124   123    2
     7    51    50    1
     8   123   122    1
     9   126   127    1
    10    53    54    2
    11    54    56    1
    12   122   121    1
    13   120   118   am
    14   127   121    1
    15    49    48    2
    16    50    47    1
    17   121   115   am
    18    60    59    2
    19    47    48    1
    20    47    46    1
    21    40    39    2
    22   100    99    1
    23   118   119    2
    24   118   117    1
    25   115   116    2
    26   115   114    1
    27    78    77    2
    28    59    58    1
    29    39    46   am
    30    39    38    1
    31   101    99    1
    32    99    98    2
    33   114   117    1
    34   114   113    1
    35    15    14    2
    36    58    61    1
    37    58    57    1
    38    42    41    1
    39    42    43    1
    40    61    62    1
    41    77    76    1
    42    41    38    1
    43    62    63    1
    44    79    76    1
    45    79    80    1
    46    38    37    1
    47    98    97    1
    48    82    80   am
    49   105   104    2
    50    76    75    1
    51    97    96    1
    52    80    81    2
    53    20    19    2
    54    45    44    1
    55    18    19    1
    56    18    17    1
    57    14    17   am
    58    14    13    1
    59    63    65   ar
    60    63    64   ar
    61   113   104   am
    62    11    10    2
    63   104   103    1
    64    19    21   am
    65    43    44    1
    66    13    16    1
    67    13    12    1
    68    37    32   am
    69    96    95    1
    70    33    32    2
    71    10    12   am
    72    10     9    1
    73    32    31    1
    74    21    22    1
    75   103   102    1
    76   103   106    1
    77    24    23    2
    78    95    92    1
    79    22    23    1
    80    22    25    1
    81    23    30   am
    82   106   107    1
    83     9     8    1
    84    30    31    1
    85    31    34    1
    86    92    93    1
    87    92    91    1
    88    94    93    2
    89    25    26    1
    90    26    27    1
    91    34    36    1
    92    34    35    1
    93     8     3   am
    94     4     3    2
    95   107   108    1
    96   109   108    1
    97   109   110    2
    98   112   110    1
    99     3     2    1
   100    90    88   am
   101    89    88    2
   102    88    87    1
   103   110   111    1
   104    87    84    1
   105    27    28    1
   106    29    28    1
   107     2     1    1
   108     2     5    1
   109     1     7    1
   110    84    85    1
   111    84    83    1
   112    85    86    2
   113     5     6    1
   114     7     6    1
   115    74    72   ar
   116    72    73   ar
   117    72    71    1
   118    66    67    1
   119    71    70    1
   120    67    70    1
   121    67    68    1
   122    68    69    2
