@<TRIPOS>MOLECULE
tmp/2whyA00.pdb
 117 114 0 0 0
SMALL
GASTEIGER

@<TRIPOS>ATOM
      1  N         -5.3050  -10.7510  -22.5300 N.3    24  GLY24      -0.1225
      2  CA        -4.7020  -11.8000  -21.7000 C.3    24  GLY24       0.1811
      3  C         -3.4590  -11.4350  -20.8940 C.2    24  GLY24       0.2280
      4  O         -3.2950  -11.9050  -19.7730 O.2    24  GLY24      -0.2866
      5  N         -9.8230  -10.5830  -19.2650 N.3    66  LYS66      -0.1231
      6  CA        -8.4850  -11.1320  -19.4500 C.3    66  LYS66       0.1693
      7  C         -8.4480  -12.3510  -20.3790 C.2    66  LYS66       0.2591
      8  O         -7.6770  -12.3920  -21.3390 O.2    66  LYS66      -0.2718
      9  CB        -7.8850  -11.5100  -18.0920 C.3    66  LYS66       0.0285
     10  CG        -6.4970  -12.0960  -18.1840 C.3    66  LYS66       0.0035
     11  CD        -5.9490  -12.4560  -16.8140 C.3    66  LYS66       0.0206
     12  CE        -6.4930  -13.7480  -16.3560 C.3    66  LYS66       0.1093
     13  NZ        -5.9490  -14.1390  -15.0440 N.3    66  LYS66      -0.1314
     14  N         -9.3120  -13.3170  -20.0920 N.am   67  MET67      -0.1979
     15  CA        -9.3330  -14.6100  -20.7700 C.3    67  MET67       0.1605
     16  C        -10.2270  -14.6700  -21.9840 C.2    67  MET67       0.2287
     17  O        -10.2410  -15.6760  -22.6950 O.2    67  MET67      -0.2864
     18  CB        -9.9060  -15.6490  -19.8210 C.3    67  MET67       0.0413
     19  CG        -8.9010  -16.3610  -19.0540 C.3    67  MET67       0.0598
     20  SD        -9.8200  -17.5510  -18.1190 S.3    67  MET67      -0.1393
     21  CE        -9.4430  -16.9720  -16.4670 C.3    67  MET67       0.0692
     22  N         -1.0340  -13.5050  -24.4330 N.3    85  SER85      -0.1202
     23  CA        -0.4170  -14.1930  -23.3030 C.3    85  SER85       0.2020
     24  C         -0.0860  -15.6300  -23.6730 C.2    85  SER85       0.2619
     25  O         -0.8190  -16.2750  -24.4330 O.2    85  SER85      -0.2717
     26  CB        -1.3450  -14.1940  -22.0950 C.3    85  SER85       0.2103
     27  OG        -0.8090  -14.9980  -21.0500 O.3    85  SER85      -0.2182
     28  N          1.0030  -16.1330  -23.0960 N.am   86  THR86      -0.1938
     29  CA         1.3620  -17.5330  -23.2270 C.3    86  THR86       0.2028
     30  C          0.3880  -18.4570  -22.4990 C.2    86  THR86       0.2642
     31  O          0.4480  -19.6710  -22.6720 O.2    86  THR86      -0.2714
     32  CB         2.7810  -17.7970  -22.6890 C.3    86  THR86       0.1808
     33  OG1        2.9270  -17.1650  -21.4180 O.3    86  THR86      -0.2208
     34  CG2        3.8210  -17.2410  -23.6570 C.3    86  THR86       0.0379
     35  N         -0.5130  -17.8910  -21.7110 N.am   87  LYS87      -0.1963
     36  CA        -1.4550  -18.6840  -20.9240 C.3    87  LYS87       0.1728
     37  C         -2.7400  -19.0290  -21.6790 C.2    87  LYS87       0.2616
     38  O         -3.5580  -19.8140  -21.1900 O.2    87  LYS87      -0.2715
     39  CB        -1.7870  -17.9520  -19.6280 C.3    87  LYS87       0.0311
     40  CG        -0.5770  -17.7590  -18.7110 C.3    87  LYS87       0.0038
     41  CD        -0.9350  -17.0790  -17.4110 C.3    87  LYS87       0.0206
     42  CE        -1.1990  -15.5930  -17.5970 C.3    87  LYS87       0.1093
     43  NZ        -1.7760  -14.9640  -16.3860 N.3    87  LYS87      -0.1314
     44  N         -2.9310  -18.4380  -22.8500 N.am   88  PHE88      -0.1960
     45  CA        -4.0750  -18.7690  -23.6920 C.3    88  PHE88       0.1756
     46  C         -3.9310  -20.1670  -24.2640 C.2    88  PHE88       0.2461
     47  O         -2.8160  -20.6090  -24.5670 O.2    88  PHE88      -0.2730
     48  CB        -4.1720  -17.8140  -24.8870 C.3    88  PHE88       0.0574
     49  CG        -4.8410  -16.5020  -24.5920 C.ar   88  PHE88      -0.0200
     50  CD1       -6.1570  -16.4530  -24.1640 C.ar   88  PHE88      -0.0042
     51  CD2       -4.1720  -15.3100  -24.8280 C.ar   88  PHE88      -0.0042
     52  CE1       -6.7800  -15.2480  -23.9350 C.ar   88  PHE88      -0.0003
     53  CE2       -4.7920  -14.0940  -24.6170 C.ar   88  PHE88      -0.0003
     54  CZ        -6.0960  -14.0550  -24.1700 C.ar   88  PHE88      -0.0000
     55  N         -5.0570  -20.8710  -24.4400 N.am   89  PRO89      -0.2727
     56  CA        -5.0740  -22.0380  -25.3090 C.3    89  PRO89       0.1402
     57  C         -4.5350  -21.6780  -26.6870 C.2    89  PRO89       0.2269
     58  O         -4.8000  -20.5810  -27.1800 O.2    89  PRO89      -0.2865
     59  CB        -6.5640  -22.3770  -25.4020 C.3    89  PRO89       0.0296
     60  CG        -7.1280  -21.8800  -24.1340 C.3    89  PRO89       0.0237
     61  CD        -6.3720  -20.6310  -23.8220 C.3    89  PRO89       0.0939
     62  N          4.3020  -15.6050  -19.1410 N.3   107  HIS107     -0.1241
     63  CA         3.8800  -15.5830  -17.7360 C.3   107  HIS107      0.1621
     64  C          4.9500  -16.1790  -16.8240 C.2   107  HIS107      0.2264
     65  O          4.7560  -16.3310  -15.6190 O.2   107  HIS107     -0.2867
     66  CB         2.5520  -16.3330  -17.5750 C.3   107  HIS107      0.0745
     67  CG         2.6620  -17.8070  -17.7940 C.ar  107  HIS107      0.0817
     68  ND1        2.7760  -18.3740  -19.0480 N.ar  107  HIS107     -0.2268
     69  CD2        2.6730  -18.8350  -16.9130 C.ar  107  HIS107      0.1154
     70  CE1        2.8650  -19.6870  -18.9250 C.ar  107  HIS107      0.1986
     71  NE2        2.8070  -19.9920  -17.6400 N.ar  107  HIS107     -0.2212
     72  N         -8.9100  -18.6850   -6.0490 N.3   162  ARG162     -0.1231
     73  CA        -9.6850  -18.4880   -7.2690 C.3   162  ARG162      0.1694
     74  C        -10.8390  -19.4740   -7.2670 C.2   162  ARG162      0.2591
     75  O        -10.6400  -20.6610   -7.0250 O.2   162  ARG162     -0.2718
     76  CB        -8.8260  -18.6530   -8.5230 C.3   162  ARG162      0.0321
     77  CG        -7.8310  -17.5350   -8.6610 C.3   162  ARG162      0.0489
     78  CD        -6.7980  -17.7290   -9.7640 C.3   162  ARG162      0.2205
     79  NE        -6.3740  -16.4280  -10.2610 N.pl3 162  ARG162     -0.0865
     80  CZ        -5.4510  -16.2210  -11.1880 C.cat 162  ARG162      0.5346
     81  NH1       -4.7580  -17.2310  -11.6900 N.pl3 162  ARG162      0.1354
     82  NH2       -5.2170  -14.9790  -11.6030 N.pl3 162  ARG162      0.1354
     83  N        -12.0370  -18.9550   -7.5280 N.am  163  GLN163     -0.1979
     84  CA       -13.2990  -19.6890   -7.3990 C.3   163  GLN163      0.1601
     85  C        -13.3920  -20.4740   -6.0860 C.2   163  GLN163      0.2287
     86  O        -13.9530  -21.5650   -6.0110 O.2   163  GLN163     -0.2864
     87  CB       -13.5800  -20.5180   -8.6630 C.3   163  GLN163      0.0394
     88  CG       -12.8630  -21.8450   -8.8070 C.3   163  GLN163      0.0908
     89  CD       -11.5050  -21.7820   -9.5020 C.2   163  GLN163      0.2608
     90  OE1      -10.6940  -22.7980   -9.2260 O.2   163  GLN163     -0.2717
     91  NE2      -11.1900  -20.8590  -10.2760 N.am  163  GLN163     -0.0878
     92  N         -4.5710  -22.0160   -4.8490 N.3   167  TYR167     -0.1241
     93  CA        -3.5840  -22.3100   -5.8680 C.3   167  TYR167      0.1605
     94  C         -2.1860  -21.9190   -5.4390 C.2   167  TYR167      0.2264
     95  O         -1.9820  -20.8770   -4.8400 O.2   167  TYR167     -0.2867
     96  CB        -3.9510  -21.5870   -7.1750 C.3   167  TYR167      0.0534
     97  CG        -5.1680  -22.1720   -7.8350 C.ar  167  TYR167     -0.0201
     98  CD1       -5.0600  -23.2360   -8.7250 C.ar  167  TYR167     -0.0009
     99  CD2       -6.4260  -21.6700   -7.5730 C.ar  167  TYR167     -0.0009
    100  CE1       -6.1650  -23.7790   -9.3300 C.ar  167  TYR167      0.0417
    101  CE2       -7.5460  -22.2050   -8.1760 C.ar  167  TYR167      0.0417
    102  CZ        -7.4120  -23.2630   -9.0490 C.ar  167  TYR167      0.1957
    103  OH        -8.5140  -23.7920   -9.6450 O.3   167  TYR167     -0.2866
    104  N          2.7440  -26.0500  -13.1880 N.3   196  ALA196     -0.1231
    105  CA         2.0390  -24.8370  -13.5670 C.3   196  ALA196      0.1694
    106  C          1.1920  -24.4210  -12.3770 C.2   196  ALA196      0.2591
    107  O          1.3110  -25.0030  -11.3010 O.2   196  ALA196     -0.2718
    108  CB         1.1670  -25.0880  -14.7790 C.3   196  ALA196      0.0304
    109  N          0.3470  -23.4140  -12.5610 N.am  197  GLN197     -0.1979
    110  CA        -0.6530  -23.0810  -11.5570 C.3   197  GLN197      0.1601
    111  C         -1.3190  -24.3930  -11.1260 C.2   197  GLN197      0.2287
    112  O         -1.7870  -25.1740  -11.9740 O.2   197  GLN197     -0.2864
    113  CB        -1.6840  -22.1160  -12.1300 C.3   197  GLN197      0.0394
    114  CG        -2.7940  -21.7920  -11.1480 C.3   197  GLN197      0.0908
    115  CD        -3.6610  -20.6310  -11.5680 C.2   197  GLN197      0.2608
    116  OE1       -4.0430  -19.8210  -10.7390 O.2   197  GLN197     -0.2717
    117  NE2       -4.0060  -20.5610  -12.8540 N.am  197  GLN197     -0.0878
@<TRIPOS>BOND
     1    58    57    2
     2    57    56    1
     3    59    56    1
     4    59    60    1
     5    56    55    1
     6    48    49    1
     7    48    45    1
     8    51    53   ar
     9    51    49   ar
    10    53    54   ar
    11    49    50   ar
    12    47    46    2
    13    55    46   am
    14    55    61    1
    15    22    23    1
    16    25    24    2
    17    46    45    1
    18    54    52   ar
    19    50    52   ar
    20    60    61    1
    21    45    44    1
    22    24    23    1
    23    24    28   am
    24    34    32    1
    25    23    26    1
    26    29    28    1
    27    29    32    1
    28    29    30    1
    29    44    37   am
    30    17    16    2
    31    32    33    1
    32    31    30    2
    33     1     2    1
    34    30    35   am
    35    26    27    1
    36    16    15    1
    37    35    36    1
    38     2     3    1
    39    37    38    2
    40    37    36    1
    41     8     7    2
    42    36    39    1
    43     3     4    2
    44    15    14    1
    45    15    18    1
    46     7    14   am
    47     7     6    1
    48    18    19    1
    49    39    40    1
    50     6     5    1
    51     6     9    1
    52    62    63    1
    53    19    20    1
    54    68    70   ar
    55    68    67   ar
    56    70    71   ar
    57    40    41    1
    58    10     9    1
    59    10    11    1
    60    20    21    1
    61    67    66    1
    62    67    69   ar
    63    63    66    1
    64    63    64    1
    65    71    69   ar
    66    42    41    1
    67    42    43    1
    68    64    65    2
    69    11    12    1
    70    12    13    1
    71   108   105    1
    72   105   104    1
    73   105   106    1
    74   117   115   am
    75   109   106   am
    76   109   110    1
    77   106   107    2
    78   113   110    1
    79   113   114    1
    80   112   111    2
    81    81    80    1
    82    82    80    1
    83   115   114    1
    84   115   116    2
    85   110   111    1
    86    80    79    2
    87    91    89   am
    88    79    78    1
    89    78    77    1
    90   103   102    1
    91    89    90    2
    92    89    88    1
    93   100   102   ar
    94   100    98   ar
    95   102   101   ar
    96    88    87    1
    97    98    97   ar
    98    87    84    1
    99    77    76    1
   100    76    73    1
   101   101    99   ar
   102    97    99   ar
   103    97    96    1
   104    83    84    1
   105    83    74   am
   106    84    85    1
   107    73    74    1
   108    73    72    1
   109    74    75    2
   110    96    93    1
   111    85    86    2
   112    93    94    1
   113    93    92    1
   114    94    95    2
