@<TRIPOS>MOLECULE
tmp/2whzA01.pdb
 103 99 0 0 0
SMALL
GASTEIGER

@<TRIPOS>ATOM
      1  N         32.5420   33.5690    1.6270 N.3   111  ASN111     -0.1225
      2  CA        33.7760   34.3610    1.8700 C.3   111  ASN111      0.1785
      3  C         34.0630   35.3600    0.7480 C.2   111  ASN111      0.2597
      4  O         35.1730   35.4160    0.1980 O.2   111  ASN111     -0.2718
      5  CB        34.9880   33.4070    2.0530 C.3   111  ASN111      0.1169
      6  CG        34.9450   32.6470    3.3600 C.2   111  ASN111      0.2627
      7  OD1       34.5310   33.1770    4.3900 O.2   111  ASN111     -0.2716
      8  ND2       35.3630   31.3660    3.3180 N.am  111  ASN111     -0.0877
      9  N         33.0660   36.1550    0.3700 N.am  112  ASN112     -0.1960
     10  CA        33.3170   37.1820   -0.6060 C.3   112  ASN112      0.1819
     11  C         32.1640   38.1930   -0.6490 C.2   112  ASN112      0.2621
     12  O         31.1840   38.1180    0.1450 O.2   112  ASN112     -0.2715
     13  CB        33.4870   36.5390   -1.9820 C.3   112  ASN112      0.1195
     14  CG        34.5920   37.1790   -2.8120 C.2   112  ASN112      0.2630
     15  OD1       34.9020   38.3810   -2.7090 O.2   112  ASN112     -0.2716
     16  ND2       35.1760   36.3670   -3.6850 N.am  112  ASN112     -0.0877
     17  N         32.3350   39.1760   -1.5260 N.am  113  ALA113     -0.1977
     18  CA        31.3350   40.2020   -1.7790 C.3   113  ALA113      0.1597
     19  C         31.5330   40.5810   -3.2370 C.2   113  ALA113      0.2287
     20  O         32.5600   40.1840   -3.8420 O.2   113  ALA113     -0.2864
     21  CB        31.5600   41.4140   -0.8630 C.3   113  ALA113      0.0319
     22  N         37.9040   32.5950    7.8430 N.3   129  THR129     -0.1203
     23  CA        38.5340   33.3720    6.7740 C.3   129  THR129      0.1994
     24  C         38.0050   34.8030    6.7870 C.2   129  THR129      0.2617
     25  O         38.7730   35.7490    6.5730 O.2   129  THR129     -0.2717
     26  CB        38.2770   32.7370    5.4060 C.3   129  THR129      0.1784
     27  OG1       38.5330   31.3260    5.4910 O.3   129  THR129     -0.2211
     28  CG2       39.1390   33.3880    4.3130 C.3   129  THR129      0.0376
     29  N         36.6990   34.9600    7.0610 N.am  130  PHE130     -0.1975
     30  CA        36.0620   36.2900    7.0520 C.3   130  PHE130      0.1639
     31  C         34.9650   36.3620    8.0810 C.2   130  PHE130      0.2290
     32  O         34.3010   35.3840    8.3440 O.2   130  PHE130     -0.2864
     33  CB        35.3560   36.5550    5.7070 C.3   130  PHE130      0.0560
     34  CG        36.2670   36.9930    4.5850 C.ar  130  PHE130     -0.0200
     35  CD1       36.7360   38.2980    4.5230 C.ar  130  PHE130     -0.0042
     36  CD2       36.5840   36.1140    3.5600 C.ar  130  PHE130     -0.0042
     37  CE1       37.5420   38.7280    3.4750 C.ar  130  PHE130     -0.0003
     38  CE2       37.4200   36.5120    2.5200 C.ar  130  PHE130     -0.0003
     39  CZ        37.8760   37.8400    2.4610 C.ar  130  PHE130     -0.0000
     40  N         31.2600   40.7100    5.3100 N.3   133  LEU133     -0.1245
     41  CA        32.2140   41.5070    4.5400 C.3   133  LEU133      0.1561
     42  C         31.8510   42.9860    4.4180 C.2   133  LEU133      0.2260
     43  O         32.7000   43.8040    4.1290 O.2   133  LEU133     -0.2867
     44  CB        32.4250   40.8870    3.1400 C.3   133  LEU133      0.0270
     45  CG        33.3900   39.6790    3.2140 C.3   133  LEU133      0.0019
     46  CD1       32.6920   38.3480    3.5160 C.3   133  LEU133      0.0001
     47  CD2       34.2490   39.5940    1.9480 C.3   133  LEU133      0.0001
     48  N         34.9940   49.5880   -2.4550 N.3   142  HIS142     -0.1226
     49  CA        35.5930   48.8550   -3.5820 C.3   142  HIS142      0.1752
     50  C         34.4550   48.3580   -4.4840 C.2   142  HIS142      0.2595
     51  O         34.4680   48.5960   -5.6930 O.2   142  HIS142     -0.2718
     52  CB        36.4420   47.6800   -3.0820 C.3   142  HIS142      0.0759
     53  CG        36.9450   46.7560   -4.1500 C.ar  142  HIS142      0.0818
     54  ND1       38.2890   46.6280   -4.4400 N.ar  142  HIS142     -0.2268
     55  CD2       36.3030   45.8390   -4.9120 C.ar  142  HIS142      0.1154
     56  CE1       38.4460   45.7060   -5.3810 C.ar  142  HIS142      0.1986
     57  NE2       37.2580   45.2060   -5.6760 N.ar  142  HIS142     -0.2212
     58  N         33.4480   47.7320   -3.8790 N.am  143  GLU143     -0.1979
     59  CA        32.3630   47.1290   -4.6830 C.3   143  GLU143      0.1602
     60  C         31.5460   48.2150   -5.3950 C.2   143  GLU143      0.2287
     61  O         31.2370   48.0780   -6.5840 O.2   143  GLU143     -0.2864
     62  CB        31.4610   46.2210   -3.8340 C.3   143  GLU143      0.0415
     63  CG        32.1990   45.0960   -3.0300 C.3   143  GLU143      0.1163
     64  CD        32.9740   44.0750   -3.8670 C.2   143  GLU143      0.3649
     65  OE1       33.0290   44.1530   -5.1120 O.co2 143  GLU143     -0.2457
     66  OE2       33.5630   43.1750   -3.2510 O.co2 143  GLU143     -0.2457
     67  N         43.7040   41.2480    2.5980 N.3   202  LEU202     -0.1231
     68  CA        43.6680   40.5440    1.3200 C.3   202  LEU202      0.1693
     69  C         44.7440   40.9870    0.3690 C.2   202  LEU202      0.2591
     70  O         45.2650   40.1650   -0.4060 O.2   202  LEU202     -0.2718
     71  CB        42.3320   40.7620    0.6180 C.3   202  LEU202      0.0284
     72  CG        41.1050   39.9530    1.0130 C.3   202  LEU202      0.0019
     73  CD1       40.6930   40.2680    2.4280 C.3   202  LEU202      0.0001
     74  CD2       40.0040   40.3270    0.0420 C.3   202  LEU202      0.0001
     75  N         45.0170   42.2920    0.3800 N.am  203  ARG203     -0.1980
     76  CA        45.9610   42.9180   -0.5530 C.3   203  ARG203      0.1597
     77  C         46.5940   44.1060    0.1300 C.2   203  ARG203      0.2287
     78  O         45.9930   44.7330    0.9940 O.2   203  ARG203     -0.2864
     79  CB        45.2330   43.4470   -1.7950 C.3   203  ARG203      0.0334
     80  CG        44.7420   42.3920   -2.7320 C.3   203  ARG203      0.0492
     81  CD        44.1510   43.0200   -3.9980 C.3   203  ARG203      0.2205
     82  NE        42.8770   43.7160   -3.8300 N.pl3 203  ARG203     -0.0865
     83  CZ        41.6920   43.1110   -3.7480 C.cat 203  ARG203      0.5346
     84  NH1       41.6310   41.7820   -3.7540 N.pl3 203  ARG203      0.1354
     85  NH2       40.5790   43.8290   -3.6750 N.pl3 203  ARG203      0.1354
     86  N         41.8930   33.7510  -12.5390 N.3   226  ASP226     -0.1239
     87  CA        41.4660   35.0640  -12.0010 C.3   226  ASP226      0.1674
     88  C         41.2370   36.0230  -13.1950 C.2   226  ASP226      0.2266
     89  O         41.6370   37.1780  -13.1650 O.2   226  ASP226     -0.2867
     90  CB        42.5350   35.5830  -11.0240 C.3   226  ASP226      0.1410
     91  CG        42.1420   36.8790  -10.3220 C.2   226  ASP226      0.3668
     92  OD1       40.9380   37.1280  -10.0510 O.co2 226  ASP226     -0.2456
     93  OD2       43.0540   37.6700  -10.0410 O.co2 226  ASP226     -0.2456
     94  N         42.9230   40.5030   -9.9590 N.3   231  HIS231     -0.1241
     95  CA        43.2330   40.7900   -8.5420 C.3   231  HIS231      0.1621
     96  C         44.7060   40.6110   -8.1990 C.2   231  HIS231      0.2264
     97  O         45.0880   40.8400   -7.0670 O.2   231  HIS231     -0.2867
     98  CB        42.4340   39.8980   -7.5660 C.3   231  HIS231      0.0745
     99  CG        40.9550   40.0000   -7.7340 C.ar  231  HIS231      0.0817
    100  ND1       40.2410   39.1680   -8.5730 N.ar  231  HIS231     -0.2268
    101  CD2       40.0560   40.8440   -7.1740 C.ar  231  HIS231      0.1154
    102  CE1       38.9600   39.5050   -8.5290 C.ar  231  HIS231      0.1986
    103  NE2       38.8250   40.5180   -7.6870 N.ar  231  HIS231     -0.2212
@<TRIPOS>BOND
     1    88    89    2
     2    88    87    1
     3    86    87    1
     4    87    90    1
     5    90    91    1
     6    91    92   ar
     7    91    93   ar
     8    94    95    1
     9   100   102   ar
    10   100    99   ar
    11    95    96    1
    12    95    98    1
    13   102   103   ar
    14    96    97    2
    15    99    98    1
    16    99   101   ar
    17   103   101   ar
    18    61    60    2
    19    51    50    2
    20    57    56   ar
    21    57    55   ar
    22    60    59    1
    23    56    54   ar
    24    65    64   ar
    25    55    53   ar
    26    59    58    1
    27    59    62    1
    28    50    58   am
    29    50    49    1
    30    54    53   ar
    31    53    52    1
    32    81    82    1
    33    81    80    1
    34    64    66   ar
    35    64    63    1
    36    20    19    2
    37    62    63    1
    38    82    83    2
    39    84    83    1
    40    83    85    1
    41    16    14   am
    42    49    52    1
    43    49    48    1
    44    19    18    1
    45    14    15    2
    46    14    13    1
    47    80    79    1
    48    13    10    1
    49    79    76    1
    50    18    17    1
    51    18    21    1
    52    17    11   am
    53    11    10    1
    54    11    12    2
    55    10     9    1
    56    76    77    1
    57    76    75    1
    58    70    69    2
    59    74    72    1
    60    77    78    2
    61     4     3    2
    62    69    75   am
    63    69    68    1
    64     9     3   am
    65    71    72    1
    66    71    68    1
    67     3     2    1
    68    72    73    1
    69    68    67    1
    70     1     2    1
    71     2     5    1
    72    47    45    1
    73     5     6    1
    74    39    38   ar
    75    39    37   ar
    76    38    36   ar
    77    44    45    1
    78    44    41    1
    79    45    46    1
    80     8     6   am
    81     6     7    2
    82    37    35   ar
    83    36    34   ar
    84    43    42    2
    85    28    26    1
    86    42    41    1
    87    35    34   ar
    88    41    40    1
    89    34    33    1
    90    26    27    1
    91    26    23    1
    92    33    30    1
    93    25    24    2
    94    23    24    1
    95    23    22    1
    96    24    29   am
    97    30    29    1
    98    30    31    1
    99    31    32    2
