@<TRIPOS>MOLECULE
tmp/2wi0A00.pdb
 129 124 0 0 0
SMALL
GASTEIGER

@<TRIPOS>ATOM
      1  N         33.0810   36.0680    0.3350 N.3   112  ASN112     -0.1225
      2  CA        33.2950   37.1110   -0.6620 C.3   112  ASN112      0.1785
      3  C         32.1550   38.1300   -0.6890 C.2   112  ASN112      0.2597
      4  O         31.1650   38.0260    0.0600 O.2   112  ASN112     -0.2718
      5  CB        33.4730   36.4950   -2.0690 C.3   112  ASN112      0.1169
      6  CG        34.5930   37.1460   -2.8720 C.2   112  ASN112      0.2627
      7  OD1       34.9090   38.3430   -2.7210 O.2   112  ASN112     -0.2716
      8  ND2       35.2200   36.3490   -3.7180 N.am  112  ASN112     -0.0877
      9  N         32.3290   39.1180   -1.5490 N.am  113  ALA113     -0.1966
     10  CA        31.3110   40.1170   -1.8390 C.3   113  ALA113      0.1728
     11  C         31.5230   40.4750   -3.3070 C.2   113  ALA113      0.2616
     12  O         32.5660   40.1330   -3.8810 O.2   113  ALA113     -0.2715
     13  CB        31.4790   41.3450   -0.9490 C.3   113  ALA113      0.0334
     14  N         30.5540   41.1580   -3.9140 N.am  114  PHE114     -0.1974
     15  CA        30.6200   41.5230   -5.3310 C.3   114  PHE114      0.1639
     16  C         29.5750   42.5660   -5.7430 C.2   114  PHE114      0.2290
     17  O         28.5690   42.7570   -5.0550 O.2   114  PHE114     -0.2864
     18  CB        30.5580   40.2930   -6.2680 C.3   114  PHE114      0.0560
     19  CG        29.3570   39.3640   -6.0560 C.ar  114  PHE114     -0.0200
     20  CD1       29.3850   38.3670   -5.0990 C.ar  114  PHE114     -0.0042
     21  CD2       28.2360   39.4560   -6.8810 C.ar  114  PHE114     -0.0042
     22  CE1       28.3100   37.4800   -4.9410 C.ar  114  PHE114     -0.0003
     23  CE2       27.1650   38.5720   -6.7310 C.ar  114  PHE114     -0.0003
     24  CZ        27.2060   37.5890   -5.7650 C.ar  114  PHE114     -0.0000
     25  N         36.8020   34.9300    7.0240 N.3   130  PHE130     -0.1241
     26  CA        36.0990   36.2300    6.9810 C.3   130  PHE130      0.1605
     27  C         34.9970   36.2980    8.0140 C.2   130  PHE130      0.2264
     28  O         34.3700   35.2900    8.3380 O.2   130  PHE130     -0.2867
     29  CB        35.4040   36.4360    5.6200 C.3   130  PHE130      0.0534
     30  CG        36.3100   36.9150    4.5310 C.ar  130  PHE130     -0.0203
     31  CD1       36.7060   38.2490    4.4700 C.ar  130  PHE130     -0.0042
     32  CD2       36.7600   36.0280    3.5600 C.ar  130  PHE130     -0.0042
     33  CE1       37.5450   38.6900    3.4750 C.ar  130  PHE130     -0.0003
     34  CE2       37.6080   36.4510    2.5550 C.ar  130  PHE130     -0.0003
     35  CZ        37.9930   37.7850    2.5020 C.ar  130  PHE130     -0.0000
     36  N         31.2440   40.5550    5.2760 N.3   133  LEU133     -0.1245
     37  CA        32.1600   41.3520    4.4660 C.3   133  LEU133      0.1561
     38  C         31.8050   42.8500    4.3550 C.2   133  LEU133      0.2260
     39  O         32.6460   43.6610    4.0350 O.2   133  LEU133     -0.2867
     40  CB        32.3760   40.7120    3.0890 C.3   133  LEU133      0.0270
     41  CG        33.3990   39.5310    3.1140 C.3   133  LEU133      0.0019
     42  CD1       32.7940   38.1410    3.2910 C.3   133  LEU133      0.0001
     43  CD2       34.2870   39.5500    1.9010 C.3   133  LEU133      0.0001
     44  N         35.9150   47.4320    1.5500 N.3   139  VAL139     -0.1245
     45  CA        35.2120   46.3950    0.7880 C.3   139  VAL139      0.1561
     46  C         33.9500   46.9920    0.1220 C.2   139  VAL139      0.2260
     47  O         33.7280   46.8310   -1.0690 O.2   139  VAL139     -0.2867
     48  CB        34.7920   45.1840    1.6600 C.3   139  VAL139      0.0252
     49  CG1       34.0570   44.1040    0.7960 C.3   139  VAL139      0.0019
     50  CG2       35.9990   44.5640    2.3720 C.3   139  VAL139      0.0019
     51  N         34.9430   49.4980   -2.5290 N.3   142  HIS142     -0.1226
     52  CA        35.5020   48.6930   -3.6080 C.3   142  HIS142      0.1752
     53  C         34.3880   48.1660   -4.5230 C.2   142  HIS142      0.2595
     54  O         34.4530   48.3050   -5.7390 O.2   142  HIS142     -0.2718
     55  CB        36.3080   47.5070   -3.0090 C.3   142  HIS142      0.0759
     56  CG        36.8240   46.5530   -4.0400 C.ar  142  HIS142      0.0818
     57  ND1       38.1630   46.4660   -4.3840 N.ar  142  HIS142     -0.2268
     58  CD2       36.1720   45.6720   -4.8360 C.ar  142  HIS142      0.1154
     59  CE1       38.3060   45.5610   -5.3370 C.ar  142  HIS142      0.1986
     60  NE2       37.1170   45.0560   -5.6210 N.ar  142  HIS142     -0.2212
     61  N         33.3660   47.5600   -3.9360 N.am  143  GLU143     -0.1979
     62  CA        32.3070   46.9480   -4.7380 C.3   143  GLU143      0.1602
     63  C         31.4860   48.0160   -5.4830 C.2   143  GLU143      0.2287
     64  O         31.2090   47.8520   -6.6730 O.2   143  GLU143     -0.2864
     65  CB        31.4010   46.0370   -3.8820 C.3   143  GLU143      0.0415
     66  CG        32.1220   44.9180   -3.1080 C.3   143  GLU143      0.1163
     67  CD        32.9260   43.9350   -3.9490 C.2   143  GLU143      0.3649
     68  OE1       33.0690   44.0650   -5.1910 O.co2 143  GLU143     -0.2457
     69  OE2       33.4480   42.9800   -3.3490 O.co2 143  GLU143     -0.2457
     70  N         33.1320   49.4180   -8.5670 N.3   146  HIS146     -0.1241
     71  CA        32.8840   48.6580   -9.7980 C.3   146  HIS146      0.1621
     72  C         31.7040   49.2130  -10.6210 C.2   146  HIS146      0.2264
     73  O         31.7290   49.2040  -11.8600 O.2   146  HIS146     -0.2867
     74  CB        32.6500   47.1770   -9.4980 C.3   146  HIS146      0.0745
     75  CG        33.9150   46.4200   -9.2460 C.ar  146  HIS146      0.0817
     76  ND1       35.0060   46.5070  -10.0890 N.ar  146  HIS146     -0.2268
     77  CD2       34.2760   45.5870   -8.2390 C.ar  146  HIS146      0.1154
     78  CE1       35.9800   45.7440   -9.6220 C.ar  146  HIS146      0.1986
     79  NE2       35.5660   45.1810   -8.5000 N.ar  146  HIS146     -0.2212
     80  N         40.0490   46.3700  -11.2370 N.3   166  GLU166     -0.1245
     81  CA        40.3690   45.9980   -9.8480 C.3   166  GLU166      0.1567
     82  C         41.1060   47.0640   -9.0400 C.2   166  GLU166      0.2260
     83  O         40.7080   47.3730   -7.9090 O.2   166  GLU166     -0.2867
     84  CB        41.1420   44.6600   -9.8120 C.3   166  GLU166      0.0388
     85  CG        40.1860   43.4790   -9.7520 C.3   166  GLU166      0.1160
     86  CD        39.2370   43.5910   -8.5520 C.2   166  GLU166      0.3649
     87  OE1       39.7250   43.6950   -7.3910 O.co2 166  GLU166     -0.2457
     88  OE2       38.0040   43.5920   -8.7660 O.co2 166  GLU166     -0.2457
     89  N         43.7570   46.1420    1.9910 N.3   188  ILE188     -0.1231
     90  CA        42.3830   45.9240    1.5510 C.3   188  ILE188      0.1692
     91  C         41.7320   44.7920    2.3360 C.2   188  ILE188      0.2592
     92  O         42.2590   43.6600    2.3620 O.2   188  ILE188     -0.2718
     93  CB        42.3160   45.5720    0.0190 C.3   188  ILE188      0.0266
     94  CG1       42.9290   46.6680   -0.8900 C.3   188  ILE188      0.0019
     95  CG2       40.8890   45.1430   -0.3940 C.3   188  ILE188      0.0020
     96  CD1       42.3730   48.0840   -0.7410 C.3   188  ILE188      0.0001
     97  N         40.6110   45.1000    2.9860 N.am  189  GLY189     -0.1957
     98  CA        39.7930   44.1000    3.6560 C.3   189  GLY189      0.1869
     99  C         40.2530   43.6960    5.0430 C.2   189  GLY189      0.2309
    100  O         39.7160   42.7560    5.6240 O.2   189  GLY189     -0.2863
    101  N         43.7050   41.1160    2.6070 N.3   202  LEU202     -0.1231
    102  CA        43.6700   40.3900    1.3380 C.3   202  LEU202      0.1693
    103  C         44.7610   40.8420    0.4250 C.2   202  LEU202      0.2591
    104  O         45.3590   40.0220   -0.2620 O.2   202  LEU202     -0.2718
    105  CB        42.3560   40.5950    0.5910 C.3   202  LEU202      0.0284
    106  CG        41.1200   39.8190    0.9980 C.3   202  LEU202      0.0019
    107  CD1       40.5070   40.4040    2.2690 C.3   202  LEU202      0.0001
    108  CD2       40.1500   39.9160   -0.1610 C.3   202  LEU202      0.0001
    109  N         44.9700   42.1580    0.3950 N.am  203  ARG203     -0.1980
    110  CA        45.9000   42.7960   -0.5090 C.3   203  ARG203      0.1597
    111  C         46.5320   44.0140    0.1640 C.2   203  ARG203      0.2287
    112  O         45.9140   44.6780    1.0040 O.2   203  ARG203     -0.2864
    113  CB        45.2030   43.2780   -1.8060 C.3   203  ARG203      0.0334
    114  CG        44.7310   42.1870   -2.7330 C.3   203  ARG203      0.0492
    115  CD        44.1350   42.7480   -3.9940 C.3   203  ARG203      0.2205
    116  NE        42.8670   43.4750   -3.8260 N.pl3 203  ARG203     -0.0865
    117  CZ        41.6560   42.9070   -3.8560 C.cat 203  ARG203      0.5346
    118  NH1       41.5350   41.5810   -3.9450 N.pl3 203  ARG203      0.1354
    119  NH2       40.5600   43.6680   -3.7500 N.pl3 203  ARG203      0.1354
    120  N         43.0030   40.3400  -10.0060 N.3   231  HIS231     -0.1241
    121  CA        43.2360   40.6440   -8.5870 C.3   231  HIS231      0.1621
    122  C         44.7140   40.5080   -8.2100 C.2   231  HIS231      0.2264
    123  O         45.0950   40.7650   -7.0630 O.2   231  HIS231     -0.2867
    124  CB        42.4440   39.6820   -7.7210 C.3   231  HIS231      0.0745
    125  CG        40.9640   39.8030   -7.8850 C.ar  231  HIS231      0.0817
    126  ND1       40.2290   38.9570   -8.6890 N.ar  231  HIS231     -0.2268
    127  CD2       40.0790   40.6690   -7.3360 C.ar  231  HIS231      0.1154
    128  CE1       38.9490   39.2820   -8.6130 C.ar  231  HIS231      0.1986
    129  NE2       38.8290   40.3100   -7.7920 N.ar  231  HIS231     -0.2212
@<TRIPOS>BOND
     1    73    72    2
     2    80    81    1
     3    72    71    1
     4    76    78   ar
     5    76    75   ar
     6   120   121    1
     7    81    84    1
     8    81    82    1
     9    84    85    1
    10    71    74    1
    11    71    70    1
    12    85    86    1
    13    78    79   ar
    14    74    75    1
    15    75    77   ar
    16    82    83    2
    17    88    86   ar
    18   126   128   ar
    19   126   125   ar
    20   128   129   ar
    21   121   122    1
    22   121   124    1
    23    86    87   ar
    24    79    77   ar
    25   122   123    2
    26   125   124    1
    27   125   127   ar
    28   129   127   ar
    29    21    23   ar
    30    21    19   ar
    31    23    24   ar
    32    64    63    2
    33    18    19    1
    34    18    15    1
    35    19    20   ar
    36    24    22   ar
    37    16    15    1
    38    16    17    2
    39    54    53    2
    40    60    59   ar
    41    60    58   ar
    42    63    62    1
    43    59    57   ar
    44    15    14    1
    45    68    67   ar
    46    20    22   ar
    47    58    56   ar
    48    62    61    1
    49    62    65    1
    50    53    61   am
    51    53    52    1
    52    57    56   ar
    53    56    55    1
    54   115   116    1
    55   115   114    1
    56    67    69   ar
    57    67    66    1
    58   118   117    1
    59    14    11   am
    60    65    66    1
    61    12    11    2
    62   117   116    2
    63   117   119    1
    64     8     6   am
    65    52    55    1
    66    52    51    1
    67    11    10    1
    68     6     7    2
    69     6     5    1
    70   114   113    1
    71     5     2    1
    72    10     9    1
    73    10    13    1
    74   113   110    1
    75     9     3   am
    76    47    46    2
    77    94    96    1
    78    94    93    1
    79     3     2    1
    80     3     4    2
    81     2     1    1
    82   110   111    1
    83   110   109    1
    84    95    93    1
    85   104   103    2
    86   108   106    1
    87    93    90    1
    88    46    45    1
    89   111   112    2
    90   109   103   am
    91   103   102    1
    92   105   106    1
    93   105   102    1
    94    45    44    1
    95    45    48    1
    96    49    48    1
    97   106   107    1
    98   102   101    1
    99    90    89    1
   100    90    91    1
   101    48    50    1
   102    43    41    1
   103    91    92    2
   104    91    97   am
   105    35    34   ar
   106    35    33   ar
   107    34    32   ar
   108    97    98    1
   109    40    41    1
   110    40    37    1
   111    41    42    1
   112    33    31   ar
   113    32    30   ar
   114    98    99    1
   115    39    38    2
   116    38    37    1
   117    37    36    1
   118    31    30   ar
   119    30    29    1
   120    99   100    2
   121    29    26    1
   122    26    25    1
   123    26    27    1
   124    27    28    2
