@<TRIPOS>MOLECULE
tmp/2wi1A00.pdb
 116 107 0 0 0
SMALL
GASTEIGER

@<TRIPOS>ATOM
      1  N         30.6890   11.4320   15.9550 N.3    33  LEU33      -0.1245
      2  CA        30.0000   11.9390   17.1380 C.3    33  LEU33       0.1561
      3  C         28.7150   11.1850   17.4360 C.2    33  LEU33       0.2260
      4  O         28.5230   10.6690   18.5510 O.2    33  LEU33      -0.2867
      5  CB        29.7070   13.4220   16.9840 C.3    33  LEU33       0.0270
      6  CG        31.0280   14.1930   16.8840 C.3    33  LEU33       0.0019
      7  CD1       30.7730   15.6570   16.7790 C.3    33  LEU33       0.0001
      8  CD2       31.9410   13.8580   18.1000 C.3    33  LEU33       0.0001
      9  N         29.5900    7.9650   18.7300 N.3    36  ASN36      -0.1225
     10  CA        29.9730    8.1020   20.1550 C.3    36  ASN36       0.1785
     11  C         28.8040    8.1780   21.1290 C.2    36  ASN36       0.2597
     12  O         28.7920    7.5150   22.1760 O.2    36  ASN36      -0.2718
     13  CB        30.8700    9.3190   20.3630 C.3    36  ASN36       0.1169
     14  CG        32.2660    9.1010   19.8200 C.2    36  ASN36       0.2627
     15  OD1       32.6070    7.9900   19.3800 O.2    36  ASN36      -0.2716
     16  ND2       33.0860   10.1670   19.8260 N.am   36  ASN36      -0.0877
     17  N         27.8220    9.0100   20.8120 N.am   37  SER37      -0.1952
     18  CA        26.6010    9.0850   21.6140 C.3    37  SER37       0.1924
     19  C         25.9150    7.7120   21.7180 C.2    37  SER37       0.2314
     20  O         25.5260    7.2570   22.8050 O.2    37  SER37      -0.2863
     21  CB        25.6350   10.0820   20.9880 C.3    37  SER37       0.2116
     22  OG        26.1310   11.3990   21.0640 O.3    37  SER37      -0.2180
     23  N         27.2740    4.6640   21.5230 N.3    39  ASP39      -0.1225
     24  CA        28.0270    3.8590   22.5250 C.3    39  ASP39       0.1805
     25  C         27.7780    4.2410   23.9890 C.2    39  ASP39       0.2597
     26  O         27.8610    3.4040   24.8640 O.2    39  ASP39      -0.2718
     27  CB        29.5330    3.9460   22.2980 C.3    39  ASP39       0.1424
     28  CG        29.9390    3.3730   21.0080 C.2    39  ASP39       0.3668
     29  OD1       29.1140    2.6820   20.3670 O.co2  39  ASP39      -0.2456
     30  OD2       31.0880    3.6120   20.6070 O.co2  39  ASP39      -0.2456
     31  N         27.5280    5.5150   24.2440 N.am   40  ALA40      -0.1979
     32  CA        27.2990    6.0120   25.6140 C.3    40  ALA40       0.1597
     33  C         25.8970    5.6730   26.0590 C.2    40  ALA40       0.2287
     34  O         25.6390    5.4500   27.2360 O.2    40  ALA40      -0.2864
     35  CB        27.5060    7.5220   25.6610 C.3    40  ALA40       0.0319
     36  N         25.9150    1.9790   26.9620 N.3    43  LYS43      -0.1245
     37  CA        26.4510    1.7510   28.3020 C.3    43  LYS43       0.1561
     38  C         25.4490    2.0110   29.4050 C.2    43  LYS43       0.2260
     39  O         25.4740    1.3480   30.4370 O.2    43  LYS43      -0.2867
     40  CB        27.6830    2.6340   28.5520 C.3    43  LYS43       0.0271
     41  CG        28.6910    2.5930   27.4320 C.3    43  LYS43       0.0035
     42  CD        30.1150    2.9800   27.8600 C.3    43  LYS43       0.0206
     43  CE        31.0930    2.3800   26.8490 C.3    43  LYS43       0.1093
     44  NZ        32.4110    3.0810   26.7700 N.3    43  LYS43      -0.1314
     45  N         23.1830   13.8650   23.8460 N.3    78  ASP78      -0.1239
     46  CA        22.5900   12.5640   24.1280 C.3    78  ASP78       0.1674
     47  C         22.3550   12.4120   25.6150 C.2    78  ASP78       0.2266
     48  O         22.9120   13.1760   26.4480 O.2    78  ASP78      -0.2867
     49  CB        23.4700   11.4220   23.6200 C.3    78  ASP78       0.1410
     50  CG        24.7990   11.3590   24.3160 C.2    78  ASP78       0.3668
     51  OD1       24.8600   10.9440   25.4980 O.co2  78  ASP78      -0.2456
     52  OD2       25.8170   11.7060   23.6770 O.co2  78  ASP78      -0.2456
     53  N         25.5800    7.5970   29.0630 N.3    81  ILE81      -0.1231
     54  CA        26.1470    7.4390   30.3860 C.3    81  ILE81       0.1692
     55  C         26.8140    8.7120   30.9080 C.2    81  ILE81       0.2593
     56  O         26.9230    8.9040   32.1270 O.2    81  ILE81      -0.2718
     57  CB        27.1470    6.2560   30.4220 C.3    81  ILE81       0.0266
     58  CG1       27.5270    5.9120   31.8590 C.3    81  ILE81       0.0019
     59  CG2       28.4040    6.5620   29.6110 C.3    81  ILE81       0.0020
     60  CD1       27.3270    4.4550   32.1700 C.3    81  ILE81       0.0001
     61  N         27.2510    9.5890   30.0010 N.am   82  GLY82      -0.1942
     62  CA        28.0170   10.7780   30.4030 C.3    82  GLY82       0.2014
     63  C         29.3730   10.4510   30.9950 C.2    82  GLY82       0.2638
     64  O         29.7680    9.2800   31.0750 O.2    82  GLY82      -0.2714
     65  N         30.1000   11.4860   31.4070 N.am   83  MET83      -0.1976
     66  CA        31.4470   11.2880   31.9530 C.3    83  MET83       0.1605
     67  C         31.6510   11.9220   33.3510 C.2    83  MET83       0.2287
     68  O         31.1090   12.9750   33.6700 O.2    83  MET83      -0.2864
     69  CB        32.5100   11.7800   30.9580 C.3    83  MET83       0.0413
     70  CG        32.5440   11.0580   29.6100 C.3    83  MET83       0.0598
     71  SD        33.5370   11.9010   28.3200 S.3    83  MET83      -0.1393
     72  CE        32.4180   13.1280   27.6630 C.3    83  MET83       0.0692
     73  N         38.4670   12.2100   27.6480 N.3    92  LEU92      -0.1231
     74  CA        37.0490   11.9030   27.4960 C.3    92  LEU92       0.1693
     75  C         36.7720   10.3780   27.4630 C.2    92  LEU92       0.2593
     76  O         36.0150    9.8790   26.6320 O.2    92  LEU92      -0.2718
     77  CB        36.4880   12.6170   26.2560 C.3    92  LEU92       0.0284
     78  CG        36.5970   14.1600   26.2650 C.3    92  LEU92       0.0019
     79  CD1       37.9000   14.6390   25.6870 C.3    92  LEU92       0.0001
     80  CD2       35.4580   14.7650   25.4960 C.3    92  LEU92       0.0001
     81  N         37.3950    9.6490   28.3920 N.am   93  GLY93      -0.1942
     82  CA        37.1490    8.2090   28.5520 C.3    93  GLY93       0.2014
     83  C         37.7350    7.2800   27.4940 C.2    93  GLY93       0.2639
     84  O         37.5130    6.0680   27.5500 O.2    93  GLY93      -0.2714
     85  N         38.4650    7.8320   26.5210 N.am   94  THR94      -0.1950
     86  CA        39.0440    7.0350   25.4410 C.3    94  THR94       0.1897
     87  C         40.4140    6.5470   25.8770 C.2    94  THR94       0.2313
     88  O         40.9020    6.9000   26.9530 O.2    94  THR94      -0.2863
     89  CB        39.2270    7.8530   24.1230 C.3    94  THR94       0.1794
     90  OG1       40.1010    8.9660   24.3690 O.3    94  THR94      -0.2208
     91  CG2       37.8880    8.3550   23.5650 C.3    94  THR94       0.0378
     92  N         36.3160   11.0750   18.4480 N.3   123  PHE123     -0.1241
     93  CA        35.8810   12.3280   19.0320 C.3   123  PHE123      0.1605
     94  C         36.6630   13.4820   18.3660 C.2   123  PHE123      0.2264
     95  O         36.0970   14.5250   18.0050 O.2   123  PHE123     -0.2867
     96  CB        36.0520   12.3440   20.5810 C.3   123  PHE123      0.0534
     97  CG        35.9330   13.7450   21.1850 C.ar  123  PHE123     -0.0203
     98  CD1       34.6770   14.3490   21.3410 C.ar  123  PHE123     -0.0042
     99  CD2       37.0750   14.4740   21.5400 C.ar  123  PHE123     -0.0042
    100  CE1       34.5550   15.6450   21.8540 C.ar  123  PHE123     -0.0003
    101  CE2       36.9620   15.7860   22.0520 C.ar  123  PHE123     -0.0003
    102  CZ        35.7180   16.3620   22.2000 C.ar  123  PHE123     -0.0000
    103  N         25.7080   13.8790   27.5550 N.3   169  THR169     -0.1218
    104  CA        26.8460   14.6590   27.0810 C.3   169  THR169      0.1862
    105  C         26.3880   15.5320   25.9270 C.2   169  THR169      0.2287
    106  O         25.6120   15.0770   25.0910 O.2   169  THR169     -0.2866
    107  CB        28.0130   13.7190   26.6450 C.3   169  THR169      0.1770
    108  OG1       28.4640   12.9600   27.7820 O.3   169  THR169     -0.2211
    109  CG2       29.1920   14.5100   26.0450 C.3   169  THR169      0.0375
    110  N         28.0270   17.9060   22.8870 N.3   171  VAL171     -0.1245
    111  CA        29.2040   18.3750   22.1700 C.3   171  VAL171      0.1561
    112  C         28.8850   19.6350   21.3250 C.2   171  VAL171      0.2260
    113  O         28.1430   19.5950   20.3510 O.2   171  VAL171     -0.2867
    114  CB        29.8200   17.2460   21.3370 C.3   171  VAL171      0.0252
    115  CG1       31.0500   17.7290   20.5790 C.3   171  VAL171      0.0019
    116  CG2       30.1500   16.0460   22.2480 C.3   171  VAL171      0.0019
@<TRIPOS>BOND
     1     1     2    1
     2     7     6    1
     3     6     5    1
     4     6     8    1
     5     5     2    1
     6     2     3    1
     7     3     4    2
     8    95    94    2
     9    94    93    1
    10    92    93    1
    11     9    10    1
    12    93    96    1
    13    15    14    2
    14    14    16   am
    15    14    13    1
    16    10    13    1
    17    10    11    1
    18   113   112    2
    19    29    28   ar
    20   115   114    1
    21    96    97    1
    22    30    28   ar
    23    17    11   am
    24    17    18    1
    25    21    22    1
    26    21    18    1
    27    28    27    1
    28    11    12    2
    29    97    98   ar
    30    97    99   ar
    31   112   111    1
    32   114   111    1
    33   114   116    1
    34    98   100   ar
    35    23    24    1
    36    99   101   ar
    37    18    19    1
    38    19    20    2
    39   100   102   ar
    40   101   102   ar
    41   111   110    1
    42    27    24    1
    43    24    25    1
    44    91    89    1
    45    49    46    1
    46    49    50    1
    47    52    50   ar
    48    45    46    1
    49    25    31   am
    50    25    26    2
    51    89    90    1
    52    89    86    1
    53    46    47    1
    54    31    32    1
    55    50    51   ar
    56   106   105    2
    57    86    87    1
    58    86    85    1
    59    80    78    1
    60    32    35    1
    61    32    33    1
    62    47    48    2
    63    79    78    1
    64    87    88    2
    65   105   104    1
    66   109   107    1
    67    33    34    2
    68    77    78    1
    69    77    74    1
    70    85    83   am
    71    76    75    2
    72   107   104    1
    73   107   108    1
    74    44    43    1
    75    43    42    1
    76    36    37    1
    77   104   103    1
    78    41    42    1
    79    41    40    1
    80    75    74    1
    81    75    81   am
    82    83    84    2
    83    83    82    1
    84    74    73    1
    85    72    71    1
    86    37    40    1
    87    37    38    1
    88    71    70    1
    89    81    82    1
    90    53    54    1
    91    38    39    2
    92    70    69    1
    93    59    57    1
    94    61    62    1
    95    61    55   am
    96    54    57    1
    97    54    55    1
    98    62    63    1
    99    57    58    1
   100    55    56    2
   101    69    66    1
   102    63    64    2
   103    63    65   am
   104    65    66    1
   105    58    60    1
   106    66    67    1
   107    67    68    2
