@<TRIPOS>MOLECULE
tmp/2wi2A00.pdb
 99 91 0 0 0
SMALL
GASTEIGER

@<TRIPOS>ATOM
      1  N         63.5450   10.7520   40.7300 N.3    33  LEU33      -0.1245
      2  CA        62.8910   11.3170   41.8950 C.3    33  LEU33       0.1561
      3  C         61.5480   10.6490   42.2500 C.2    33  LEU33       0.2260
      4  O         61.2530   10.4510   43.4250 O.2    33  LEU33      -0.2867
      5  CB        62.7250   12.8180   41.7340 C.3    33  LEU33       0.0270
      6  CG        64.0640   13.6290   41.6040 C.3    33  LEU33       0.0019
      7  CD1       63.6860   15.0670   41.5900 C.3    33  LEU33       0.0001
      8  CD2       64.9350   13.4130   42.8030 C.3    33  LEU33       0.0001
      9  N         62.5330    7.4170   43.8850 N.3    36  ASN36      -0.1225
     10  CA        62.7490    7.6590   45.3170 C.3    36  ASN36       0.1785
     11  C         61.4780    7.8270   46.1310 C.2    36  ASN36       0.2597
     12  O         61.3540    7.2620   47.2610 O.2    36  ASN36      -0.2718
     13  CB        63.6780    8.8790   45.4670 C.3    36  ASN36       0.1169
     14  CG        65.0410    8.6290   44.8270 C.2    36  ASN36       0.2627
     15  OD1       65.4240    7.4660   44.5490 O.2    36  ASN36      -0.2716
     16  ND2       65.7930    9.7150   44.5710 N.am   36  ASN36      -0.0877
     17  N         60.5120    8.6040   45.5930 N.am   37  SER37      -0.1952
     18  CA        59.2160    8.7520   46.2410 C.3    37  SER37       0.1924
     19  C         58.4960    7.3770   46.4170 C.2    37  SER37       0.2314
     20  O         57.9730    7.0240   47.4470 O.2    37  SER37      -0.2863
     21  CB        58.3650    9.7460   45.4230 C.3    37  SER37       0.2116
     22  OG        58.8120   11.0850   45.6950 O.3    37  SER37      -0.2180
     23  N         60.1970    5.3210   49.2010 N.3    40  ALA40      -0.1245
     24  CA        59.7760    5.9210   50.5040 C.3    40  ALA40       0.1562
     25  C         58.3090    5.6060   50.8320 C.2    40  ALA40       0.2260
     26  O         57.9700    5.3990   51.9870 O.2    40  ALA40      -0.2867
     27  CB        59.9970    7.4170   50.5150 C.3    40  ALA40       0.0290
     28  N         55.9410   13.6480   48.2470 N.3    78  ASP78      -0.1239
     29  CA        55.3210   12.3640   48.5920 C.3    78  ASP78       0.1674
     30  C         54.9840   12.3550   50.0830 C.2    78  ASP78       0.2266
     31  O         55.4680   13.1770   50.8930 O.2    78  ASP78      -0.2867
     32  CB        56.2620   11.1530   48.2690 C.3    78  ASP78       0.1410
     33  CG        57.5440   11.2170   49.0430 C.2    78  ASP78       0.3668
     34  OD1       57.5110   11.0340   50.2810 O.co2  78  ASP78      -0.2456
     35  OD2       58.5940   11.4750   48.4250 O.co2  78  ASP78      -0.2456
     36  N         57.9580    7.7690   53.7390 N.3    81  ILE81      -0.1231
     37  CA        58.4740    7.5490   55.0770 C.3    81  ILE81       0.1692
     38  C         59.1380    8.7870   55.7120 C.2    81  ILE81       0.2593
     39  O         59.1680    8.9130   56.9300 O.2    81  ILE81      -0.2718
     40  CB        59.5140    6.3450   55.1030 C.3    81  ILE81       0.0266
     41  CG1       59.7670    5.8650   56.5450 C.3    81  ILE81       0.0019
     42  CG2       60.8550    6.7680   54.5750 C.3    81  ILE81       0.0020
     43  CD1       58.4580    5.4680   57.2660 C.3    81  ILE81       0.0001
     44  N         59.6790    9.6980   54.8970 N.am   82  GLY82      -0.1942
     45  CA        60.4270   10.8900   55.4430 C.3    82  GLY82       0.2014
     46  C         61.8120   10.5140   55.9090 C.2    82  GLY82       0.2638
     47  O         62.1850    9.3730   55.8350 O.2    82  GLY82      -0.2714
     48  N         62.6040   11.4690   56.3690 N.am   83  MET83      -0.1976
     49  CA        63.9680   11.1740   56.8410 C.3    83  MET83       0.1605
     50  C         64.1760   11.7950   58.2390 C.2    83  MET83       0.2287
     51  O         63.6180   12.8330   58.5300 O.2    83  MET83      -0.2864
     52  CB        65.0220   11.7190   55.8330 C.3    83  MET83       0.0413
     53  CG        65.2260   10.7810   54.6500 C.3    83  MET83       0.0598
     54  SD        66.1570   11.5510   53.3460 S.3    83  MET83      -0.1393
     55  CE        64.9840   12.7500   52.7090 C.3    83  MET83       0.0692
     56  N         71.0470   11.8720   52.6650 N.3    92  LEU92      -0.1231
     57  CA        69.6070   11.6810   52.4410 C.3    92  LEU92       0.1693
     58  C         69.2670   10.1620   52.4180 C.2    92  LEU92       0.2593
     59  O         68.5650    9.6720   51.5220 O.2    92  LEU92      -0.2718
     60  CB        69.1530   12.4190   51.1710 C.3    92  LEU92       0.0284
     61  CG        69.4680   13.9240   51.2440 C.3    92  LEU92       0.0019
     62  CD1       70.7540   14.3320   50.4870 C.3    92  LEU92       0.0001
     63  CD2       68.3030   14.7340   50.8140 C.3    92  LEU92       0.0001
     64  N         69.8150    9.4040   53.3580 N.am   93  GLY93      -0.1942
     65  CA        69.4000    8.0030   53.4830 C.3    93  GLY93       0.2014
     66  C         69.9510    7.1450   52.3400 C.2    93  GLY93       0.2639
     67  O         69.5290    6.0310   52.2190 O.2    93  GLY93      -0.2714
     68  N         70.8530    7.6700   51.4870 N.am   94  THR94      -0.1950
     69  CA        71.4100    6.8780   50.3880 C.3    94  THR94       0.1897
     70  C         72.7840    6.2920   50.7970 C.2    94  THR94       0.2313
     71  O         73.4270    6.8130   51.6960 O.2    94  THR94      -0.2863
     72  CB        71.6850    7.7150   49.1250 C.3    94  THR94       0.1794
     73  OG1       72.7980    8.6130   49.3700 O.3    94  THR94      -0.2208
     74  CG2       70.4290    8.4400   48.5740 C.3    94  THR94       0.0378
     75  N         68.8630   10.5400   43.4010 N.3   123  PHE123     -0.1241
     76  CA        68.5340   11.8240   43.9920 C.3   123  PHE123      0.1605
     77  C         69.4180   12.9240   43.3480 C.2   123  PHE123      0.2264
     78  O         68.9650   14.0110   43.0480 O.2   123  PHE123     -0.2867
     79  CB        68.7570   11.8340   45.5360 C.3   123  PHE123      0.0534
     80  CG        68.7720   13.2280   46.0890 C.ar  123  PHE123     -0.0203
     81  CD1       67.5620   13.9810   46.1700 C.ar  123  PHE123     -0.0042
     82  CD2       69.9870   13.8910   46.3750 C.ar  123  PHE123     -0.0042
     83  CE1       67.5880   15.3280   46.5660 C.ar  123  PHE123     -0.0003
     84  CE2       69.9740   15.2220   46.8010 C.ar  123  PHE123     -0.0003
     85  CZ        68.7730   15.9330   46.8910 C.ar  123  PHE123     -0.0000
     86  N         58.4110   13.8720   52.1420 N.3   169  THR169     -0.1218
     87  CA        59.5750   14.6300   51.6460 C.3   169  THR169      0.1862
     88  C         59.1080   15.4850   50.4730 C.2   169  THR169      0.2287
     89  O         58.2880   15.0190   49.6330 O.2   169  THR169     -0.2866
     90  CB        60.6820   13.5990   51.1970 C.3   169  THR169      0.1770
     91  OG1       61.0460   12.7630   52.3170 O.3   169  THR169     -0.2211
     92  CG2       61.8980   14.2730   50.6240 C.3   169  THR169      0.0375
     93  N         60.8930   17.5330   47.4560 N.3   171  VAL171     -0.1245
     94  CA        62.0880   17.9880   46.7890 C.3   171  VAL171      0.1561
     95  C         61.8030   19.2180   45.9260 C.2   171  VAL171      0.2260
     96  O         61.1210   19.1450   44.9060 O.2   171  VAL171     -0.2867
     97  CB        62.6830   16.8450   45.9400 C.3   171  VAL171      0.0252
     98  CG1       63.9030   17.3280   45.2290 C.3   171  VAL171      0.0019
     99  CG2       63.0320   15.6820   46.8460 C.3   171  VAL171      0.0019
@<TRIPOS>BOND
     1     1     2    1
     2     7     6    1
     3     6     5    1
     4     6     8    1
     5     5     2    1
     6     2     3    1
     7     3     4    2
     8    78    77    2
     9    77    76    1
    10    75    76    1
    11     9    10    1
    12    76    79    1
    13    15    14    2
    14    16    14   am
    15    14    13    1
    16    96    95    2
    17    98    97    1
    18    10    13    1
    19    10    11    1
    20    21    22    1
    21    21    18    1
    22    79    80    1
    23    17    11   am
    24    17    18    1
    25    95    94    1
    26    97    94    1
    27    97    99    1
    28    80    81   ar
    29    80    82   ar
    30    11    12    2
    31    81    83   ar
    32    18    19    1
    33    82    84   ar
    34    19    20    2
    35    83    85   ar
    36    94    93    1
    37    84    85   ar
    38    28    29    1
    39    32    29    1
    40    32    33    1
    41    35    33   ar
    42    74    72    1
    43    29    30    1
    44    33    34   ar
    45    72    73    1
    46    72    69    1
    47    23    24    1
    48    89    88    2
    49    30    31    2
    50    69    70    1
    51    69    68    1
    52    88    87    1
    53    62    61    1
    54    24    27    1
    55    24    25    1
    56    92    90    1
    57    70    71    2
    58    63    61    1
    59    25    26    2
    60    60    61    1
    61    60    57    1
    62    90    87    1
    63    90    91    1
    64    68    66   am
    65    59    58    2
    66    87    86    1
    67    67    66    2
    68    66    65    1
    69    58    57    1
    70    58    64   am
    71    57    56    1
    72    55    54    1
    73    54    53    1
    74    64    65    1
    75    36    37    1
    76    42    40    1
    77    53    52    1
    78    44    45    1
    79    44    38   am
    80    37    40    1
    81    37    38    1
    82    40    41    1
    83    45    46    1
    84    38    39    2
    85    52    49    1
    86    47    46    2
    87    46    48   am
    88    48    49    1
    89    41    43    1
    90    49    50    1
    91    50    51    2
