@<TRIPOS>MOLECULE
tmp/2wi4A00.pdb
 164 152 0 0 0
SMALL
GASTEIGER

@<TRIPOS>ATOM
      1  N         -0.8400   11.6030   16.3380 N.3    33  LEU33      -0.1245
      2  CA        -1.3930   12.1870   17.5710 C.3    33  LEU33       0.1561
      3  C         -2.6600   11.4700   17.9700 C.2    33  LEU33       0.2260
      4  O         -2.7950   11.0780   19.0940 O.2    33  LEU33      -0.2867
      5  CB        -1.7340   13.6680   17.3680 C.3    33  LEU33       0.0270
      6  CG        -0.4860   14.4700   17.0370 C.3    33  LEU33       0.0019
      7  CD1       -0.9120   15.8970   16.8850 C.3    33  LEU33       0.0001
      8  CD2        0.6100   14.2490   18.0790 C.3    33  LEU33       0.0001
      9  N         -1.7840    8.0640   19.3310 N.3    36  ASN36      -0.1225
     10  CA        -1.3420    8.3010   20.6970 C.3    36  ASN36       0.1785
     11  C         -2.5220    8.3940   21.6690 C.2    36  ASN36       0.2597
     12  O         -2.4160    7.9380   22.7970 O.2    36  ASN36      -0.2718
     13  CB        -0.5140    9.5910   20.8090 C.3    36  ASN36       0.1169
     14  CG         0.9290    9.3810   20.4780 C.2    36  ASN36       0.2627
     15  OD1        1.2900    8.3380   19.9620 O.2    36  ASN36      -0.2716
     16  ND2        1.7790   10.3760   20.7770 N.am   36  ASN36      -0.0877
     17  N         -3.6240    9.0220   21.2530 N.am   37  SER37      -0.1952
     18  CA        -4.7870    9.1940   22.1120 C.3    37  SER37       0.1924
     19  C         -5.4890    7.8750   22.2460 C.2    37  SER37       0.2314
     20  O         -6.0270    7.5160   23.2900 O.2    37  SER37      -0.2863
     21  CB        -5.7620   10.1780   21.4880 C.3    37  SER37       0.2116
     22  OG        -5.3180   11.5150   21.6500 O.3    37  SER37      -0.2180
     23  N         -3.6140    5.9290   24.9340 N.3    40  ALA40      -0.1245
     24  CA        -3.9450    6.4640   26.2740 C.3    40  ALA40       0.1562
     25  C         -5.4080    6.1690   26.7480 C.2    40  ALA40       0.2260
     26  O         -5.6700    6.0230   27.9560 O.2    40  ALA40      -0.2867
     27  CB        -3.6730    7.9500   26.3280 C.3    40  ALA40       0.0290
     28  N         -5.4520    2.5240   27.6400 N.3    43  LYS43      -0.1245
     29  CA        -4.8360    2.2350   28.9220 C.3    43  LYS43       0.1561
     30  C         -5.7230    2.5380   30.1500 C.2    43  LYS43       0.2260
     31  O         -5.6080    1.8710   31.1630 O.2    43  LYS43      -0.2867
     32  CB        -3.4310    2.8460   29.0540 C.3    43  LYS43       0.0271
     33  CG        -2.7380    2.2880   30.2850 C.3    43  LYS43       0.0035
     34  CD        -1.2520    2.6930   30.4930 C.3    43  LYS43       0.0206
     35  CE        -0.6960    1.8560   31.6790 C.3    43  LYS43       0.1093
     36  NZ         0.6780    2.2410   32.1220 N.3    43  LYS43      -0.1314
     37  N         -7.8610   14.2950   24.3840 N.3    78  ASP78      -0.1239
     38  CA        -8.4370   13.0460   24.8200 C.3    78  ASP78       0.1674
     39  C         -8.6020   12.9600   26.3210 C.2    78  ASP78       0.2266
     40  O         -7.9270   13.6270   27.0930 O.2    78  ASP78      -0.2867
     41  CB        -7.6220   11.8550   24.2950 C.3    78  ASP78       0.1410
     42  CG        -6.2690   11.7580   24.9390 C.2    78  ASP78       0.3668
     43  OD1       -6.2350   11.4960   26.1640 O.co2  78  ASP78      -0.2456
     44  OD2       -5.2400   11.9250   24.2380 O.co2  78  ASP78      -0.2456
     45  N         -5.4270    8.3360   29.7080 N.3    81  ILE81      -0.1231
     46  CA        -4.8600    8.1390   30.9960 C.3    81  ILE81       0.1692
     47  C         -4.1450    9.3640   31.5160 C.2    81  ILE81       0.2593
     48  O         -4.0110    9.5140   32.7270 O.2    81  ILE81      -0.2718
     49  CB        -3.9840    6.8510   31.0700 C.3    81  ILE81       0.0266
     50  CG1       -3.5700    6.5540   32.5290 C.3    81  ILE81       0.0019
     51  CG2       -2.7510    7.0010   30.2470 C.3    81  ILE81       0.0020
     52  CD1       -3.3040    5.1090   32.8430 C.3    81  ILE81       0.0001
     53  N         -3.7110   10.2650   30.6460 N.am   82  GLY82      -0.1942
     54  CA        -2.9950   11.4680   31.1500 C.3    82  GLY82       0.2014
     55  C         -1.5660   11.0970   31.4480 C.2    82  GLY82       0.2638
     56  O         -1.2050    9.9350   31.3500 O.2    82  GLY82      -0.2714
     57  N         -0.7270   12.0500   31.7810 N.am   83  MET83      -0.1976
     58  CA         0.6720   11.6920   32.0540 C.3    83  MET83       0.1605
     59  C          1.1180   12.3970   33.3130 C.2    83  MET83       0.2287
     60  O          0.7620   13.5530   33.5310 O.2    83  MET83      -0.2864
     61  CB         1.6180   12.1440   30.9240 C.3    83  MET83       0.0413
     62  CG         1.5520   11.3680   29.6220 C.3    83  MET83       0.0598
     63  SD         2.4680   12.2530   28.3480 S.3    83  MET83      -0.1393
     64  CE         1.3910   13.6620   28.0190 C.3    83  MET83       0.0692
     65  N          6.5780   11.2220   33.6400 N.3    87  ASP87      -0.1225
     66  CA         6.4520   10.8300   32.2470 C.3    87  ASP87       0.1805
     67  C          6.8620   11.9730   31.3270 C.2    87  ASP87       0.2597
     68  O          7.7670   11.8330   30.4900 O.2    87  ASP87      -0.2718
     69  CB         5.0220   10.4650   31.9040 C.3    87  ASP87       0.1424
     70  CG         4.5450    9.2130   32.6260 C.2    87  ASP87       0.3668
     71  OD1        5.3600    8.2830   32.9250 O.co2  87  ASP87      -0.2456
     72  OD2        3.3220    9.1810   32.8740 O.co2  87  ASP87      -0.2456
     73  N          6.1450   13.0910   31.4760 N.am   88  LEU88      -0.1979
     74  CA         6.4690   14.3300   30.7630 C.3    88  LEU88       0.1596
     75  C          7.9880   14.6070   30.7160 C.2    88  LEU88       0.2287
     76  O          8.5550   14.8110   29.6530 O.2    88  LEU88      -0.2864
     77  CB         5.7670   15.5190   31.4050 C.3    88  LEU88       0.0297
     78  CG         4.2750   15.7610   31.1880 C.3    88  LEU88       0.0022
     79  CD1        3.9660   17.1240   31.7850 C.3    88  LEU88       0.0001
     80  CD2        3.8480   15.6910   29.6760 C.3    88  LEU88       0.0001
     81  N         10.3150    9.8880   31.7930 N.3    91  ASN91      -0.1225
     82  CA         9.8720    8.6340   31.1950 C.3    91  ASN91       0.1785
     83  C          9.7460    8.6640   29.6800 C.2    91  ASN91       0.2597
     84  O         10.3080    7.7720   29.0250 O.2    91  ASN91      -0.2718
     85  CB         8.5860    8.1100   31.8450 C.3    91  ASN91       0.1169
     86  CG         8.7600    7.8250   33.3280 C.2    91  ASN91       0.2627
     87  OD1        9.8860    7.7490   33.8290 O.2    91  ASN91      -0.2716
     88  ND2        7.6480    7.6640   34.0390 N.am   91  ASN91      -0.0877
     89  N          9.0300    9.6630   29.1230 N.am   92  LEU92      -0.1980
     90  CA         8.7900    9.7330   27.6570 C.3    92  LEU92       0.1596
     91  C         10.0660   10.0280   26.8890 C.2    92  LEU92       0.2287
     92  O         10.1150    9.8600   25.6700 O.2    92  LEU92      -0.2864
     93  CB         7.7660   10.8030   27.2800 C.3    92  LEU92       0.0297
     94  CG         6.3220   10.5010   27.6760 C.3    92  LEU92       0.0022
     95  CD1        5.3330   11.3060   26.8110 C.3    92  LEU92       0.0001
     96  CD2        6.0510    9.0060   27.6370 C.3    92  LEU92       0.0001
     97  N         12.3030    6.4490   26.7440 N.3    95  ILE95      -0.1231
     98  CA        11.7810    5.4560   25.7820 C.3    95  ILE95       0.1692
     99  C         11.9260    5.8400   24.3090 C.2    95  ILE95       0.2591
    100  O         12.2950    5.0260   23.4710 O.2    95  ILE95      -0.2718
    101  CB        10.2790    5.2120   25.9840 C.3    95  ILE95       0.0266
    102  CG1        9.9670    4.8640   27.4550 C.3    95  ILE95       0.0019
    103  CG2        9.7810    4.1750   24.9570 C.3    95  ILE95       0.0020
    104  CD1       10.7700    3.6490   28.0370 C.3    95  ILE95       0.0001
    105  N         11.5690    7.0700   23.9790 N.am   96  ALA96      -0.1980
    106  CA        11.7220    7.5270   22.6200 C.3    96  ALA96       0.1597
    107  C         13.2190    7.6660   22.2800 C.2    96  ALA96       0.2287
    108  O         13.5700    8.1420   21.2130 O.2    96  ALA96      -0.2864
    109  CB        10.9520    8.8210   22.4220 C.3    96  ALA96       0.0319
    110  N          7.5130    4.3360   17.4120 N.3   120  GLY120     -0.1210
    111  CA         7.0780    4.8600   18.7140 C.3   120  GLY120      0.1956
    112  C          7.3430    6.3350   19.0390 C.2   120  GLY120      0.2611
    113  O          7.2210    6.7540   20.2020 O.2   120  GLY120     -0.2717
    114  N          7.6750    7.1370   18.0200 N.am  121  VAL121     -0.1979
    115  CA         7.8880    8.5400   18.2320 C.3   121  VAL121      0.1595
    116  C          6.9790    9.3910   17.3190 C.2   121  VAL121      0.2287
    117  O          7.3160   10.5030   16.9050 O.2   121  VAL121     -0.2864
    118  CB         9.3950    8.8970   18.1200 C.3   121  VAL121      0.0276
    119  CG1       10.1720    8.2450   19.2230 C.3   121  VAL121      0.0022
    120  CG2        9.9710    8.4740   16.7370 C.3   121  VAL121      0.0022
    121  N          4.6310   11.3090   17.9530 N.3   123  PHE123     -0.1227
    122  CA         4.3740   12.6240   18.4980 C.3   123  PHE123      0.1736
    123  C          5.2650   13.7300   17.9090 C.2   123  PHE123      0.2595
    124  O          4.7970   14.7950   17.5190 O.2   123  PHE123     -0.2718
    125  CB         4.5540   12.5670   20.0270 C.3   123  PHE123      0.0547
    126  CG         4.6100   13.8980   20.6560 C.ar  123  PHE123     -0.0202
    127  CD1        3.4600   14.5460   20.9940 C.ar  123  PHE123     -0.0042
    128  CD2        5.8280   14.5420   20.8590 C.ar  123  PHE123     -0.0042
    129  CE1        3.5150   15.8160   21.5500 C.ar  123  PHE123     -0.0003
    130  CE2        5.8770   15.8150   21.4630 C.ar  123  PHE123     -0.0003
    131  CZ         4.7290   16.4450   21.7820 C.ar  123  PHE123     -0.0000
    132  N          6.5520   13.4850   17.8020 N.am  124  TYR124     -0.1976
    133  CA         7.4050   14.5300   17.3290 C.3   124  TYR124      0.1639
    134  C          7.1000   14.9420   15.9110 C.2   124  TYR124      0.2290
    135  O          7.6670   15.9340   15.3990 O.2   124  TYR124     -0.2864
    136  CB         8.8590   14.1240   17.4560 C.3   124  TYR124      0.0560
    137  CG         9.1910   13.8910   18.8770 C.ar  124  TYR124     -0.0198
    138  CD1        9.4160   14.9690   19.7340 C.ar  124  TYR124     -0.0009
    139  CD2        9.1990   12.5890   19.3960 C.ar  124  TYR124     -0.0009
    140  CE1        9.6720   14.7650   21.0870 C.ar  124  TYR124      0.0417
    141  CE2        9.4440   12.3470   20.7310 C.ar  124  TYR124      0.0417
    142  CZ         9.6990   13.4390   21.5700 C.ar  124  TYR124      0.1957
    143  OH         9.9790   13.1960   22.8760 O.3   124  TYR124     -0.2866
    144  N          1.4940   20.8180   25.6420 N.3   135  VAL135     -0.1245
    145  CA         0.7540   19.6010   26.0280 C.3   135  VAL135      0.1561
    146  C          0.2170   19.8760   27.4170 C.2   135  VAL135      0.2260
    147  O          0.9900   19.9970   28.3400 O.2   135  VAL135     -0.2867
    148  CB         1.6760   18.2960   26.0760 C.3   135  VAL135      0.0252
    149  CG1        0.8620   17.0360   26.3410 C.3   135  VAL135      0.0019
    150  CG2        2.4910   18.1170   24.7600 C.3   135  VAL135      0.0019
    151  N         -5.2970   14.3340   28.0160 N.3   169  THR169     -0.1218
    152  CA        -4.1920   15.0740   27.3680 C.3   169  THR169      0.1862
    153  C         -4.7270   15.9760   26.2680 C.2   169  THR169      0.2287
    154  O         -5.5630   15.5470   25.4460 O.2   169  THR169     -0.2866
    155  CB        -3.1010   14.0860   26.8240 C.3   169  THR169      0.1770
    156  OG1       -2.6890   13.2250   27.8980 O.3   169  THR169     -0.2211
    157  CG2       -1.8830   14.8160   26.2180 C.3   169  THR169      0.0375
    158  N         -3.1300   18.1140   23.1720 N.3   171  VAL171     -0.1245
    159  CA        -2.0350   18.6220   22.3470 C.3   171  VAL171      0.1561
    160  C         -2.4730   19.8760   21.5300 C.2   171  VAL171      0.2260
    161  O         -3.3790   19.8400   20.6870 O.2   171  VAL171     -0.2867
    162  CB        -1.3960   17.5030   21.4750 C.3   171  VAL171      0.0252
    163  CG1       -0.2390   18.0120   20.6650 C.3   171  VAL171      0.0019
    164  CG2       -0.8890   16.3680   22.3610 C.3   171  VAL171      0.0019
@<TRIPOS>BOND
     1   135   134    2
     2   134   133    1
     3     1     2    1
     4   120   118    1
     5     7     6    1
     6   117   116    2
     7     6     5    1
     8     6     8    1
     9   116   115    1
    10   133   136    1
    11   133   132    1
    12     5     2    1
    13   110   111    1
    14   136   137    1
    15   124   123    2
    16     2     3    1
    17   132   123   am
    18   123   122    1
    19   121   122    1
    20     3     4    2
    21   114   115    1
    22   114   112   am
    23   118   115    1
    24   118   119    1
    25   122   125    1
    26   111   112    1
    27   137   139   ar
    28   137   138   ar
    29   112   113    2
    30     9    10    1
    31   139   141   ar
    32   138   140   ar
    33    15    14    2
    34   125   126    1
    35    14    16   am
    36    14    13    1
    37   126   128   ar
    38   126   127   ar
    39   163   162    1
    40   161   160    2
    41    10    13    1
    42    10    11    1
    43   141   142   ar
    44   128   130   ar
    45   127   129   ar
    46   140   142   ar
    47   108   107    2
    48    17    11   am
    49    17    18    1
    50   130   131   ar
    51   162   159    1
    52   162   164    1
    53    21    22    1
    54    21    18    1
    55   160   159    1
    56   129   131   ar
    57   142   143    1
    58    11    12    2
    59    18    19    1
    60    19    20    2
    61   107   106    1
    62   159   158    1
    63   109   106    1
    64   106   105    1
    65   100    99    2
    66   105    99   am
    67    44    42   ar
    68    41    38    1
    69    41    42    1
    70    99    98    1
    71    37    38    1
    72   150   148    1
    73    38    39    1
    74    23    24    1
    75    42    43   ar
    76   103   101    1
    77   154   153    2
    78   144   145    1
    79    92    91    2
    80    98   101    1
    81    98    97    1
    82   101   102    1
    83   145   148    1
    84   145   146    1
    85   148   149    1
    86   157   155    1
    87   153   152    1
    88    24    27    1
    89    24    25    1
    90    39    40    2
    91    25    26    2
    92    95    94    1
    93   155   152    1
    94   155   156    1
    95    91    90    1
    96    93    90    1
    97    93    94    1
    98   152   151    1
    99   146   147    2
   100   102   104    1
   101    96    94    1
   102    28    29    1
   103    90    89    1
   104    64    63    1
   105    63    62    1
   106    29    32    1
   107    29    30    1
   108    84    83    2
   109    32    33    1
   110    89    83   am
   111    62    61    1
   112    76    75    2
   113    80    78    1
   114    83    82    1
   115    45    46    1
   116    30    31    2
   117    51    49    1
   118    33    34    1
   119    68    67    2
   120    34    35    1
   121    53    54    1
   122    53    47   am
   123    75    74    1
   124    74    77    1
   125    74    73    1
   126    61    58    1
   127    46    49    1
   128    46    47    1
   129    49    50    1
   130    54    55    1
   131    78    77    1
   132    78    79    1
   133    82    81    1
   134    82    85    1
   135    67    73   am
   136    67    66    1
   137    56    55    2
   138    55    57   am
   139    47    48    2
   140    35    36    1
   141    57    58    1
   142    85    86    1
   143    69    66    1
   144    69    70    1
   145    58    59    1
   146    66    65    1
   147    50    52    1
   148    70    72   ar
   149    70    71   ar
   150    59    60    2
   151    86    87    2
   152    86    88   am
