@<TRIPOS>MOLECULE
tmp/2wi5A00.pdb
 166 155 0 0 0
SMALL
GASTEIGER

@<TRIPOS>ATOM
      1  N         30.7130   11.1260   16.0860 N.3    33  LEU33      -0.1245
      2  CA        30.0570   11.5850   17.2950 C.3    33  LEU33       0.1561
      3  C         28.7180   10.9130   17.6060 C.2    33  LEU33       0.2260
      4  O         28.5010   10.5220   18.7570 O.2    33  LEU33      -0.2867
      5  CB        29.8570   13.0970   17.2720 C.3    33  LEU33       0.0270
      6  CG        31.1370   13.9100   17.1560 C.3    33  LEU33       0.0019
      7  CD1       30.7060   15.3380   16.9730 C.3    33  LEU33       0.0001
      8  CD2       32.0690   13.7200   18.4210 C.3    33  LEU33       0.0001
      9  N         29.7570    7.7070   19.0480 N.3    36  ASN36      -0.1225
     10  CA        30.1610    7.8160   20.4460 C.3    36  ASN36       0.1785
     11  C         28.8970    7.8650   21.3520 C.2    36  ASN36       0.2597
     12  O         28.8080    7.1810   22.3810 O.2    36  ASN36      -0.2718
     13  CB        31.0310    9.0650   20.6860 C.3    36  ASN36       0.1169
     14  CG        32.4550    8.8810   20.2160 C.2    36  ASN36       0.2627
     15  OD1       32.8290    7.7960   19.7720 O.2    36  ASN36      -0.2716
     16  ND2       33.2660    9.9350   20.3180 N.am   36  ASN36      -0.0877
     17  N         27.9420    8.7170   20.9750 N.am   37  SER37      -0.1952
     18  CA        26.6520    8.8630   21.6610 C.3    37  SER37       0.1924
     19  C         25.9170    7.5040   21.7910 C.2    37  SER37       0.2314
     20  O         25.4710    7.0880   22.8850 O.2    37  SER37      -0.2863
     21  CB        25.7690    9.8410   20.8660 C.3    37  SER37       0.2116
     22  OG        25.9950   11.2220   21.2280 O.3    37  SER37      -0.2180
     23  N         27.5290    5.3430   24.4520 N.3    40  ALA40      -0.1245
     24  CA        27.1920    5.9450   25.7570 C.3    40  ALA40       0.1562
     25  C         25.8030    5.5550   26.2140 C.2    40  ALA40       0.2260
     26  O         25.5540    5.3950   27.4190 O.2    40  ALA40      -0.2867
     27  CB        27.2760    7.5370   25.6900 C.3    40  ALA40       0.0290
     28  N         25.8410    1.8110   27.1880 N.3    43  LYS43      -0.1245
     29  CA        26.2790    1.7120   28.5710 C.3    43  LYS43       0.1561
     30  C         25.2280    1.9950   29.6420 C.2    43  LYS43       0.2260
     31  O         25.0890    1.2290   30.5930 O.2    43  LYS43      -0.2867
     32  CB        27.5210    2.5600   28.8430 C.3    43  LYS43       0.0271
     33  CG        28.7820    1.9470   28.2430 C.3    43  LYS43       0.0035
     34  CD        29.9690    2.9340   28.2590 C.3    43  LYS43       0.0206
     35  CE        30.8190    2.7660   27.0000 C.3    43  LYS43       0.1093
     36  NZ        31.9660    3.7290   26.9850 N.3    43  LYS43      -0.1314
     37  N         25.4910   18.0710   19.2990 N.3    76  ILE76      -0.1245
     38  CA        25.0500   16.6710   19.3730 C.3    76  ILE76       0.1561
     39  C         24.8250   16.3410   20.8570 C.2    76  ILE76       0.2260
     40  O         25.7850   16.2260   21.6210 O.2    76  ILE76      -0.2867
     41  CB        26.0760   15.6500   18.8280 C.3    76  ILE76       0.0252
     42  CG1       26.4120   15.8580   17.3270 C.3    76  ILE76       0.0019
     43  CG2       25.5140   14.2250   18.9920 C.3    76  ILE76       0.0019
     44  CD1       27.2480   17.1390   16.9910 C.3    76  ILE76       0.0001
     45  N         23.1970   13.6150   23.6510 N.3    78  ASP78      -0.1239
     46  CA        22.6590   12.2630   23.9410 C.3    78  ASP78       0.1674
     47  C         22.2580   12.1710   25.4350 C.2    78  ASP78       0.2266
     48  O         22.7800   12.9610   26.2890 O.2    78  ASP78      -0.2867
     49  CB        23.6140   11.1680   23.5630 C.3    78  ASP78       0.1410
     50  CG        24.9170   11.1930   24.3520 C.2    78  ASP78       0.3668
     51  OD1       24.9110   10.9840   25.5910 O.co2  78  ASP78      -0.2456
     52  OD2       25.9830   11.3610   23.6920 O.co2  78  ASP78      -0.2456
     53  N         25.3560    7.6750   29.1270 N.3    81  ILE81      -0.1231
     54  CA        25.8330    7.4600   30.5130 C.3    81  ILE81       0.1692
     55  C         26.5810    8.6720   31.1230 C.2    81  ILE81       0.2593
     56  O         26.7720    8.7570   32.3530 O.2    81  ILE81      -0.2718
     57  CB        26.7240    6.2150   30.5980 C.3    81  ILE81       0.0266
     58  CG1       26.9980    5.8900   32.0630 C.3    81  ILE81       0.0019
     59  CG2       28.0490    6.4720   29.9120 C.3    81  ILE81       0.0020
     60  CD1       26.9620    4.4580   32.4290 C.3    81  ILE81       0.0001
     61  N         26.9980    9.6080   30.2720 N.am   82  GLY82      -0.1942
     62  CA        27.7260   10.8060   30.7360 C.3    82  GLY82       0.2014
     63  C         29.1230   10.4530   31.1880 C.2    82  GLY82       0.2638
     64  O         29.5330    9.2630   31.1950 O.2    82  GLY82      -0.2714
     65  N         29.8740   11.4760   31.5490 N.am   83  MET83      -0.1976
     66  CA        31.2270   11.2640   32.0370 C.3    83  MET83       0.1605
     67  C         31.3800   11.9330   33.4010 C.2    83  MET83       0.2287
     68  O         30.6650   12.8550   33.7340 O.2    83  MET83      -0.2864
     69  CB        32.2450   11.8360   31.0520 C.3    83  MET83       0.0413
     70  CG        32.3510   11.0330   29.7370 C.3    83  MET83       0.0598
     71  SD        33.4620   11.8010   28.5350 S.3    83  MET83      -0.1393
     72  CE        32.2490   12.6110   27.4620 C.3    83  MET83       0.0692
     73  N         36.7320   10.9660   34.0120 N.3    87  ASP87      -0.1239
     74  CA        36.5880   10.5500   32.6150 C.3    87  ASP87       0.1674
     75  C         36.9770   11.7250   31.7170 C.2    87  ASP87       0.2266
     76  O         37.8440   11.5620   30.8260 O.2    87  ASP87      -0.2867
     77  CB        35.1530   10.1540   32.3250 C.3    87  ASP87       0.1410
     78  CG        34.7770    8.8040   32.9840 C.2    87  ASP87       0.3668
     79  OD1       35.7440    8.0010   33.1400 O.co2  87  ASP87      -0.2456
     80  OD2       33.5630    8.6110   33.3770 O.co2  87  ASP87      -0.2456
     81  N         38.5370   12.3390   27.6790 N.3    92  LEU92      -0.1231
     82  CA        37.1200   12.0080   27.5510 C.3    92  LEU92       0.1693
     83  C         36.8680   10.4900   27.5210 C.2    92  LEU92       0.2593
     84  O         36.1990    9.9890   26.6010 O.2    92  LEU92      -0.2718
     85  CB        36.5110   12.6930   26.3120 C.3    92  LEU92       0.0284
     86  CG        36.7960   14.2150   26.4040 C.3    92  LEU92       0.0019
     87  CD1       38.1080   14.5530   25.7660 C.3    92  LEU92       0.0001
     88  CD2       35.7410   14.9100   25.7720 C.3    92  LEU92       0.0001
     89  N         37.3770    9.7700   28.5270 N.am   93  GLY93      -0.1942
     90  CA        37.0220    8.3550   28.7240 C.3    93  GLY93       0.2014
     91  C         37.7430    7.4800   27.7140 C.2    93  GLY93       0.2639
     92  O         37.4980    6.2480   27.5730 O.2    93  GLY93      -0.2714
     93  N         38.6840    8.0820   27.0110 N.am   94  THR94      -0.1950
     94  CA        39.3090    7.3830   25.8790 C.3    94  THR94       0.1897
     95  C         40.7210    6.7700   26.1690 C.2    94  THR94       0.2313
     96  O         41.4620    7.2400   27.0450 O.2    94  THR94      -0.2863
     97  CB        39.3670    8.3480   24.6900 C.3    94  THR94       0.1794
     98  OG1       38.9470    7.6640   23.5000 O.3    94  THR94      -0.2208
     99  CG2       40.7340    8.8930   24.5040 C.3    94  THR94       0.0378
    100  N         43.2100    7.3830   24.4130 N.3    96  ALA96      -0.1245
    101  CA        43.6600    8.2290   23.2900 C.3    96  ALA96       0.1562
    102  C         45.1340    8.0410   22.9570 C.2    96  ALA96       0.2260
    103  O         45.5320    8.1300   21.7880 O.2    96  ALA96      -0.2867
    104  CB        43.3120    9.7400   23.5180 C.3    96  ALA96       0.0290
    105  N         39.3400    4.2090   18.5900 N.3   120  GLY120     -0.1210
    106  CA        38.7840    4.7510   19.8220 C.3   120  GLY120      0.1956
    107  C         38.9320    6.2620   20.0000 C.2   120  GLY120      0.2612
    108  O         38.6490    6.8050   21.0850 O.2   120  GLY120     -0.2717
    109  N         39.3250    6.9440   18.9320 N.am  121  VAL121     -0.1965
    110  CA        39.5740    8.3700   19.0050 C.3   121  VAL121      0.1727
    111  C         38.7600    9.1370   17.9410 C.2   121  VAL121      0.2617
    112  O         39.1440   10.1960   17.4680 O.2   121  VAL121     -0.2715
    113  CB        41.0650    8.6330   18.8880 C.3   121  VAL121      0.0290
    114  CG1       41.7720    8.0270   20.0870 C.3   121  VAL121      0.0023
    115  CG2       41.6080    8.0170   17.6040 C.3   121  VAL121      0.0023
    116  N         37.6160    8.5910   17.5630 N.am  122  GLY122     -0.1940
    117  CA        36.7980    9.2790   16.5990 C.3   122  GLY122      0.2014
    118  C         36.3920   10.6580   17.1250 C.2   122  GLY122      0.2639
    119  O         36.1140   11.5570   16.3490 O.2   122  GLY122     -0.2714
    120  N         36.3330   10.8130   18.4360 N.am  123  PHE123     -0.1959
    121  CA        35.9520   12.0920   19.0070 C.3   123  PHE123      0.1771
    122  C         36.7150   13.2600   18.3910 C.2   123  PHE123      0.2619
    123  O         36.1260   14.3070   18.1400 O.2   123  PHE123     -0.2715
    124  CB        36.0990   12.1300   20.5700 C.3   123  PHE123      0.0574
    125  CG        35.9410   13.5610   21.1470 C.ar  123  PHE123     -0.0200
    126  CD1       34.6680   14.1200   21.2900 C.ar  123  PHE123     -0.0042
    127  CD2       37.0800   14.3480   21.4480 C.ar  123  PHE123     -0.0042
    128  CE1       34.4970   15.4630   21.7490 C.ar  123  PHE123     -0.0003
    129  CE2       36.9230   15.7210   21.9020 C.ar  123  PHE123     -0.0003
    130  CZ        35.6540   16.2290   22.0700 C.ar  123  PHE123     -0.0000
    131  N         38.0190   13.1160   18.1850 N.am  124  TYR124     -0.1974
    132  CA        38.8210   14.2520   17.7700 C.3   124  TYR124      0.1639
    133  C         38.5150   14.5630   16.3140 C.2   124  TYR124      0.2290
    134  O         38.9130   15.5870   15.8260 O.2   124  TYR124     -0.2864
    135  CB        40.3320   14.1070   18.0990 C.3   124  TYR124      0.0560
    136  CG        40.5610   13.8050   19.5970 C.ar  124  TYR124     -0.0198
    137  CD1       40.8290   14.8170   20.5160 C.ar  124  TYR124     -0.0009
    138  CD2       40.4320   12.5310   20.0740 C.ar  124  TYR124     -0.0009
    139  CE1       41.0010   14.5380   21.8910 C.ar  124  TYR124      0.0417
    140  CE2       40.5540   12.2450   21.4080 C.ar  124  TYR124      0.0417
    141  CZ        40.8590   13.2130   22.3090 C.ar  124  TYR124      0.1957
    142  OH        40.9790   12.8700   23.6290 O.3   124  TYR124     -0.2866
    143  N         27.1320   12.6970   34.6950 N.3   139  HIS139     -0.1241
    144  CA        27.0630   11.2610   34.9400 C.3   139  HIS139      0.1621
    145  C         26.3990   11.0990   36.3090 C.2   139  HIS139      0.2264
    146  O         26.5330   11.9610   37.1680 O.2   139  HIS139     -0.2867
    147  CB        28.4880   10.7710   34.9660 C.3   139  HIS139      0.0745
    148  CG        28.6340    9.2990   35.1470 C.ar  139  HIS139      0.0817
    149  ND1       28.3170    8.6720   36.3230 N.ar  139  HIS139     -0.2268
    150  CD2       29.1310    8.3390   34.3240 C.ar  139  HIS139      0.1154
    151  CE1       28.6110    7.3850   36.2290 C.ar  139  HIS139      0.1986
    152  NE2       29.1040    7.1560   35.0200 N.ar  139  HIS139     -0.2212
    153  N         25.5510   13.8120   27.5510 N.3   169  THR169     -0.1218
    154  CA        26.6650   14.6070   26.9870 C.3   169  THR169      0.1862
    155  C         26.1620   15.4750   25.8230 C.2   169  THR169      0.2287
    156  O         25.3180   15.0610   25.0470 O.2   169  THR169     -0.2866
    157  CB        27.7890   13.6470   26.5890 C.3   169  THR169      0.1770
    158  OG1       28.0970   12.8310   27.7320 O.3   169  THR169     -0.2211
    159  CG2       29.0710   14.3480   25.9770 C.3   169  THR169      0.0375
    160  N         27.8800   17.7000   22.8090 N.3   171  VAL171     -0.1245
    161  CA        29.1240   18.1000   22.1750 C.3   171  VAL171      0.1561
    162  C         28.7510   19.2750   21.3590 C.2   171  VAL171      0.2260
    163  O         27.9320   19.1820   20.4290 O.2   171  VAL171     -0.2867
    164  CB        29.6870   16.9790   21.2960 C.3   171  VAL171      0.0252
    165  CG1       30.9770   17.4320   20.5700 C.3   171  VAL171      0.0019
    166  CG2       29.9570   15.7450   22.1580 C.3   171  VAL171      0.0019
@<TRIPOS>BOND
     1   134   133    2
     2     1     2    1
     3   133   132    1
     4   119   118    2
     5   117   118    1
     6   117   116    1
     7     7     6    1
     8    44    42    1
     9   118   120   am
    10     6     5    1
    11     6     8    1
    12     5     2    1
    13     2     3    1
    14    42    41    1
    15   112   111    2
    16   116   111   am
    17   115   113    1
    18     3     4    2
    19   132   135    1
    20   132   131    1
    21   111   110    1
    22   135   136    1
    23   123   122    2
    24   131   122   am
    25   122   121    1
    26   120   121    1
    27   105   106    1
    28    41    43    1
    29    41    38    1
    30   113   110    1
    31   113   114    1
    32   109   110    1
    33   109   107   am
    34   121   124    1
    35     9    10    1
    36    37    38    1
    37    38    39    1
    38   136   138   ar
    39   136   137   ar
    40    15    14    2
    41   106   107    1
    42   107   108    2
    43   138   140   ar
    44    14    16   am
    45    14    13    1
    46   163   162    2
    47    10    13    1
    48    10    11    1
    49   137   139   ar
    50   165   164    1
    51   124   125    1
    52    39    40    2
    53    21    22    1
    54    21    18    1
    55    17    11   am
    56    17    18    1
    57   125   126   ar
    58   125   127   ar
    59   126   128   ar
    60   164   166    1
    61   164   161    1
    62    11    12    2
    63   162   161    1
    64   140   141   ar
    65   127   129   ar
    66    18    19    1
    67   128   130   ar
    68   103   102    2
    69    19    20    2
    70   139   141   ar
    71   129   130   ar
    72   161   160    1
    73   141   142    1
    74   102   101    1
    75   101   104    1
    76   101   100    1
    77    98    97    1
    78    49    46    1
    79    49    50    1
    80    45    46    1
    81    52    50   ar
    82    46    47    1
    83    50    51   ar
    84    23    24    1
    85    99    97    1
    86    97    94    1
    87   156   155    2
    88    47    48    2
    89    27    24    1
    90    24    25    1
    91    87    86    1
    92    88    86    1
    93   155   154    1
    94    94    95    1
    95    94    93    1
    96   159   157    1
    97    95    96    2
    98    25    26    2
    99    85    86    1
   100    85    82    1
   101   157   154    1
   102   157   158    1
   103    84    83    2
   104    36    35    1
   105   154   153    1
   106    35    34    1
   107    93    91   am
   108    28    29    1
   109    72    71    1
   110    83    82    1
   111    83    89   am
   112    82    81    1
   113    92    91    2
   114    91    90    1
   115    33    34    1
   116    33    32    1
   117    89    90    1
   118    71    70    1
   119    29    32    1
   120    29    30    1
   121    53    54    1
   122    30    31    2
   123    70    69    1
   124    59    57    1
   125    61    62    1
   126    61    55   am
   127    54    57    1
   128    54    55    1
   129    57    58    1
   130    62    63    1
   131    76    75    2
   132    69    66    1
   133    55    56    2
   134    63    64    2
   135    63    65   am
   136    65    66    1
   137    75    74    1
   138    66    67    1
   139    58    60    1
   140    77    74    1
   141    77    78    1
   142    74    73    1
   143    78    79   ar
   144    78    80   ar
   145    67    68    2
   146   150   152   ar
   147   150   148   ar
   148   143   144    1
   149   144   147    1
   150   144   145    1
   151   147   148    1
   152   152   151   ar
   153   148   149   ar
   154   151   149   ar
   155   145   146    2
