@<TRIPOS>MOLECULE
tmp/2wi6A00.pdb
 153 142 0 0 0
SMALL
GASTEIGER

@<TRIPOS>ATOM
      1  N         30.5120   11.0610   16.1740 N.3    33  LEU33      -0.1245
      2  CA        29.8210   11.5910   17.3630 C.3    33  LEU33       0.1561
      3  C         28.4920   10.9240   17.6150 C.2    33  LEU33       0.2260
      4  O         28.1520   10.5790   18.7400 O.2    33  LEU33      -0.2867
      5  CB        29.5830   13.0920   17.2230 C.3    33  LEU33       0.0270
      6  CG        30.8840   13.8300   17.0520 C.3    33  LEU33       0.0019
      7  CD1       30.6310   15.2340   16.9250 C.3    33  LEU33       0.0001
      8  CD2       31.8460   13.5380   18.2780 C.3    33  LEU33       0.0001
      9  N         29.6390    7.5860   19.1770 N.3    36  ASN36      -0.1225
     10  CA        29.9690    7.7630   20.6010 C.3    36  ASN36       0.1785
     11  C         28.7160    7.8340   21.4820 C.2    36  ASN36       0.2597
     12  O         28.6360    7.2020   22.5370 O.2    36  ASN36      -0.2718
     13  CB        30.8040    9.0260   20.8270 C.3    36  ASN36       0.1169
     14  CG        32.2650    8.8480   20.4070 C.2    36  ASN36       0.2627
     15  OD1       32.6710    7.7550   20.0480 O.2    36  ASN36      -0.2716
     16  ND2       33.0540    9.9230   20.4630 N.am   36  ASN36      -0.0877
     17  N         27.7240    8.5900   21.0340 N.am   37  SER37      -0.1952
     18  CA        26.4590    8.6610   21.7400 C.3    37  SER37       0.1924
     19  C         25.7560    7.3100   21.9180 C.2    37  SER37       0.2314
     20  O         25.3160    6.9380   22.9950 O.2    37  SER37      -0.2863
     21  CB        25.5440    9.5780   20.9800 C.3    37  SER37       0.2116
     22  OG        25.8570   10.9230   21.2400 O.3    37  SER37      -0.2180
     23  N         27.2250    5.2340   24.5090 N.3    40  ALA40      -0.1245
     24  CA        26.9210    5.8070   25.8220 C.3    40  ALA40       0.1562
     25  C         25.5000    5.5400   26.2780 C.2    40  ALA40       0.2260
     26  O         25.2210    5.5030   27.4810 O.2    40  ALA40      -0.2867
     27  CB        27.2170    7.3140   25.8500 C.3    40  ALA40       0.0290
     28  N         25.5730    1.8610   27.1280 N.3    43  LYS43      -0.1245
     29  CA        26.2210    1.6210   28.3960 C.3    43  LYS43       0.1561
     30  C         25.3530    2.0190   29.5830 C.2    43  LYS43       0.2260
     31  O         25.4860    1.4560   30.6600 O.2    43  LYS43      -0.2867
     32  CB        27.6200    2.2150   28.3940 C.3    43  LYS43       0.0271
     33  CG        27.9280    3.1440   29.5070 C.3    43  LYS43       0.0035
     34  CD        29.3830    2.9790   29.8880 C.3    43  LYS43       0.0206
     35  CE        29.5340    1.6790   30.7060 C.3    43  LYS43       0.1093
     36  NZ        30.5060    1.9130   31.7950 N.3    43  LYS43      -0.1314
     37  N         23.0950   13.7470   23.7630 N.3    78  ASP78      -0.1239
     38  CA        22.5700   12.3950   24.0930 C.3    78  ASP78       0.1674
     39  C         22.1890   12.2830   25.5790 C.2    78  ASP78       0.2266
     40  O         22.7570   13.0000   26.4280 O.2    78  ASP78      -0.2867
     41  CB        23.5430   11.2790   23.6890 C.3    78  ASP78       0.1410
     42  CG        24.7570   11.1820   24.5960 C.2    78  ASP78       0.3668
     43  OD1       24.6100   10.8370   25.7830 O.co2  78  ASP78      -0.2456
     44  OD2       25.8810   11.4030   24.1180 O.co2  78  ASP78      -0.2456
     45  N         25.3230    7.6100   29.2170 N.3    81  ILE81      -0.1231
     46  CA        25.9020    7.4230   30.5620 C.3    81  ILE81       0.1692
     47  C         26.5920    8.6710   31.1640 C.2    81  ILE81       0.2593
     48  O         26.7450    8.7950   32.3870 O.2    81  ILE81      -0.2718
     49  CB        26.8190    6.1880   30.6170 C.3    81  ILE81       0.0266
     50  CG1       27.2750    5.9280   32.0660 C.3    81  ILE81       0.0019
     51  CG2       28.0080    6.3650   29.6980 C.3    81  ILE81       0.0020
     52  CD1       27.1810    4.4590   32.4620 C.3    81  ILE81       0.0001
     53  N         27.0100    9.6080   30.3220 N.am   82  GLY82      -0.1942
     54  CA        27.6760   10.7860   30.8160 C.3    82  GLY82       0.2014
     55  C         29.0500   10.4540   31.3740 C.2    82  GLY82       0.2638
     56  O         29.4810    9.2990   31.4150 O.2    82  GLY82      -0.2714
     57  N         29.7680   11.4780   31.7810 N.am   83  MET83      -0.1976
     58  CA        31.0790   11.2450   32.3810 C.3    83  MET83       0.1605
     59  C         31.2200   11.9980   33.7040 C.2    83  MET83       0.2287
     60  O         30.7280   13.1370   33.8290 O.2    83  MET83      -0.2864
     61  CB        32.1810   11.7440   31.4320 C.3    83  MET83       0.0413
     62  CG        32.4020   10.9000   30.1990 C.3    83  MET83       0.0598
     63  SD        33.3820   11.8360   28.9970 S.3    83  MET83      -0.1393
     64  CE        32.0240   12.8590   28.3390 C.3    83  MET83       0.0692
     65  N         36.4030   10.8980   34.4080 N.3    87  ASP87      -0.1239
     66  CA        36.1010   10.3460   33.1020 C.3    87  ASP87       0.1674
     67  C         36.4300   11.4230   32.0770 C.2    87  ASP87       0.2266
     68  O         37.1820   11.2070   31.1140 O.2    87  ASP87      -0.2867
     69  CB        34.6030   10.0630   33.0510 C.3    87  ASP87       0.1410
     70  CG        34.2090    8.8030   33.8410 C.2    87  ASP87       0.3668
     71  OD1       35.1390    7.9790   34.1080 O.co2  87  ASP87      -0.2456
     72  OD2       32.9840    8.6520   34.1430 O.co2  87  ASP87      -0.2456
     73  N         39.3770   10.2890   29.7740 N.3    91  ASN91      -0.1225
     74  CA        39.2090    9.8160   28.4110 C.3    91  ASN91       0.1785
     75  C         39.1010   10.8770   27.3060 C.2    91  ASN91       0.2597
     76  O         39.0410   10.5140   26.1600 O.2    91  ASN91      -0.2718
     77  CB        38.2680    8.5900   28.2360 C.3    91  ASN91       0.1169
     78  CG        36.8470    8.9790   28.0490 C.2    91  ASN91       0.2627
     79  OD1       36.4460    9.9980   28.5570 O.2    91  ASN91      -0.2716
     80  ND2       36.0760    8.1890   27.3060 N.am   91  ASN91      -0.0877
     81  N         39.1530   12.1620   27.6260 N.am   92  LEU92      -0.1980
     82  CA        39.4490   13.1390   26.5670 C.3    92  LEU92       0.1596
     83  C         40.9320   13.5630   26.4440 C.2    92  LEU92       0.2287
     84  O         41.3550   14.0090   25.3980 O.2    92  LEU92      -0.2864
     85  CB        38.5120   14.3640   26.6270 C.3    92  LEU92       0.0297
     86  CG        37.0980   14.0790   26.0630 C.3    92  LEU92       0.0022
     87  CD1       36.4570   12.8950   26.7620 C.3    92  LEU92       0.0001
     88  CD2       36.1970   15.2490   26.1070 C.3    92  LEU92       0.0001
     89  N         39.0600    4.0950   18.4030 N.3   120  GLY120     -0.1210
     90  CA        38.4260    4.6800   19.5720 C.3   120  GLY120      0.1956
     91  C         38.7320    6.1440   19.7460 C.2   120  GLY120      0.2611
     92  O         38.6710    6.6610   20.8530 O.2   120  GLY120     -0.2717
     93  N         39.0550    6.8420   18.6710 N.am  121  VAL121     -0.1979
     94  CA        39.3910    8.2320   18.8380 C.3   121  VAL121      0.1595
     95  C         38.6210    9.0900   17.8650 C.2   121  VAL121      0.2287
     96  O         38.9860   10.2300   17.5870 O.2   121  VAL121     -0.2864
     97  CB        40.9070    8.4660   18.7830 C.3   121  VAL121      0.0276
     98  CG1       41.5740    7.8370   20.0130 C.3   121  VAL121      0.0022
     99  CG2       41.5120    7.8940   17.5430 C.3   121  VAL121      0.0022
    100  N         36.1380   10.8440   18.2310 N.3   123  PHE123     -0.1227
    101  CA        35.6580   12.1260   18.7400 C.3   123  PHE123      0.1736
    102  C         36.4970   13.2010   18.1540 C.2   123  PHE123      0.2595
    103  O         35.9500   14.2360   17.7790 O.2   123  PHE123     -0.2718
    104  CB        35.6610   12.1670   20.2960 C.3   123  PHE123      0.0547
    105  CG        35.6870   13.5720   20.8850 C.ar  123  PHE123     -0.0202
    106  CD1       34.5010   14.2740   21.0820 C.ar  123  PHE123     -0.0042
    107  CD2       36.9050   14.1720   21.2450 C.ar  123  PHE123     -0.0042
    108  CE1       34.5060   15.5480   21.5940 C.ar  123  PHE123     -0.0003
    109  CE2       36.9430   15.4770   21.7670 C.ar  123  PHE123     -0.0003
    110  CZ        35.7490   16.1500   21.9670 C.ar  123  PHE123     -0.0000
    111  N         37.8140   12.9650   18.0230 N.am  124  TYR124     -0.1976
    112  CA        38.7220   14.0620   17.5910 C.3   124  TYR124      0.1639
    113  C         38.4630   14.5290   16.1660 C.2   124  TYR124      0.2290
    114  O         38.8120   15.6560   15.7790 O.2   124  TYR124     -0.2864
    115  CB        40.2470   13.8270   17.9120 C.3   124  TYR124      0.0560
    116  CG        40.5020   13.6190   19.4030 C.ar  124  TYR124     -0.0198
    117  CD1       40.6480   14.6920   20.2730 C.ar  124  TYR124     -0.0009
    118  CD2       40.4720   12.3450   19.9330 C.ar  124  TYR124     -0.0009
    119  CE1       40.8600   14.4700   21.6850 C.ar  124  TYR124      0.0417
    120  CE2       40.6630   12.1080   21.2860 C.ar  124  TYR124      0.0417
    121  CZ        40.8650   13.1580   22.1570 C.ar  124  TYR124      0.1957
    122  OH        41.0220   12.8190   23.4970 O.3   124  TYR124     -0.2866
    123  N         32.2720   20.1460   25.4600 N.3   135  VAL135     -0.1245
    124  CA        31.5180   18.9540   25.8540 C.3   135  VAL135      0.1561
    125  C         30.8560   19.2160   27.2120 C.2   135  VAL135      0.2260
    126  O         31.5500   19.3980   28.2100 O.2   135  VAL135     -0.2867
    127  CB        32.4370   17.7580   25.9190 C.3   135  VAL135      0.0252
    128  CG1       31.7030   16.4910   26.3500 C.3   135  VAL135      0.0019
    129  CG2       33.1880   17.6100   24.6130 C.3   135  VAL135      0.0019
    130  N         26.8520   13.0030   34.7620 N.3   139  HIS139     -0.1241
    131  CA        26.8120   11.5710   35.1160 C.3   139  HIS139      0.1621
    132  C         25.9550   11.3250   36.3560 C.2   139  HIS139      0.2264
    133  O         25.7200   12.2120   37.1690 O.2   139  HIS139     -0.2867
    134  CB        28.2210   11.0230   35.3990 C.3   139  HIS139      0.0745
    135  CG        28.2840    9.5290   35.5330 C.ar  139  HIS139      0.0817
    136  ND1       27.7830    8.8540   36.6220 N.ar  139  HIS139     -0.2268
    137  CD2       28.8270    8.5810   34.7290 C.ar  139  HIS139      0.1154
    138  CE1       27.9920    7.5520   36.4790 C.ar  139  HIS139      0.1986
    139  NE2       28.6360    7.3590   35.3420 N.ar  139  HIS139     -0.2212
    140  N         25.4920   13.6840   27.6270 N.3   169  THR169     -0.1218
    141  CA        26.6140   14.5050   27.1560 C.3   169  THR169      0.1862
    142  C         26.1770   15.3710   25.9800 C.2   169  THR169      0.2287
    143  O         25.5030   14.8820   25.1010 O.2   169  THR169     -0.2866
    144  CB        27.7500   13.5650   26.7460 C.3   169  THR169      0.1770
    145  OG1       28.0340   12.6860   27.8350 O.3   169  THR169     -0.2211
    146  CG2       29.0280   14.3340   26.3070 C.3   169  THR169      0.0375
    147  N         27.8320   17.5830   22.9230 N.3   171  VAL171     -0.1245
    148  CA        29.0050   18.1000   22.1830 C.3   171  VAL171      0.1561
    149  C         28.6230   19.2750   21.2960 C.2   171  VAL171      0.2260
    150  O         27.8600   19.1240   20.3290 O.2   171  VAL171     -0.2867
    151  CB        29.5620   17.0210   21.3540 C.3   171  VAL171      0.0252
    152  CG1       30.9570   17.4800   20.6330 C.3   171  VAL171      0.0019
    153  CG2       29.7770   15.8170   22.2320 C.3   171  VAL171      0.0019
@<TRIPOS>BOND
     1   114   113    2
     2   113   112    1
     3     1     2    1
     4     7     6    1
     5     6     5    1
     6     6     8    1
     7     5     2    1
     8     2     3    1
     9    99    97    1
    10    96    95    2
    11   112   115    1
    12   112   111    1
    13     3     4    2
    14   103   102    2
    15    95    94    1
    16   115   116    1
    17   111   102   am
    18   102   101    1
    19   100   101    1
    20    89    90    1
    21    93    94    1
    22    93    91   am
    23   101   104    1
    24    97    94    1
    25    97    98    1
    26     9    10    1
    27   116   118   ar
    28   116   117   ar
    29    90    91    1
    30    91    92    2
    31   118   120   ar
    32    15    14    2
    33   117   119   ar
    34   104   105    1
    35   150   149    2
    36    14    16   am
    37    14    13    1
    38    10    13    1
    39    10    11    1
    40   152   151    1
    41   105   106   ar
    42   105   107   ar
    43    21    22    1
    44    21    18    1
    45    17    11   am
    46    17    18    1
    47   106   108   ar
    48   107   109   ar
    49   120   121   ar
    50   149   148    1
    51   151   148    1
    52   151   153    1
    53    11    12    2
    54   108   110   ar
    55   119   121   ar
    56    18    19    1
    57   109   110   ar
    58    19    20    2
    59   121   122    1
    60   148   147    1
    61    41    38    1
    62    41    42    1
    63    37    38    1
    64    38    39    1
    65    44    42   ar
    66    23    24    1
    67    42    43   ar
    68   129   127    1
    69   143   142    2
    70    84    83    2
    71   123   124    1
    72    39    40    2
    73    24    27    1
    74    24    25    1
    75   124   127    1
    76   124   125    1
    77   127   128    1
    78   142   141    1
    79    86    88    1
    80    86    85    1
    81    86    87    1
    82    76    75    2
    83    25    26    2
    84   146   144    1
    85    83    82    1
    86    82    85    1
    87    82    81    1
    88   144   141    1
    89   144   145    1
    90    28    29    1
    91   141   140    1
    92   125   126    2
    93    80    78   am
    94    75    81   am
    95    75    74    1
    96    78    77    1
    97    78    79    2
    98    77    74    1
    99    64    63    1
   100    32    29    1
   101    32    33    1
   102    29    30    1
   103    74    73    1
   104    63    62    1
   105    45    46    1
   106    33    34    1
   107    30    31    2
   108    51    49    1
   109    34    35    1
   110    62    61    1
   111    53    54    1
   112    53    47   am
   113    46    49    1
   114    46    47    1
   115    49    50    1
   116    35    36    1
   117    54    55    1
   118    68    67    2
   119    47    48    2
   120    55    56    2
   121    55    57   am
   122    61    58    1
   123    57    58    1
   124    50    52    1
   125    67    66    1
   126    58    59    1
   127    69    66    1
   128    69    70    1
   129    66    65    1
   130    59    60    2
   131    70    71   ar
   132    70    72   ar
   133   137   139   ar
   134   137   135   ar
   135   130   131    1
   136   131   134    1
   137   131   132    1
   138   139   138   ar
   139   134   135    1
   140   135   136   ar
   141   132   133    2
   142   138   136   ar
