@<TRIPOS>MOLECULE
tmp/2wi7A00.pdb
 178 167 0 0 0
SMALL
GASTEIGER

@<TRIPOS>ATOM
      1  N         -0.9780   11.3270   16.4890 N.3    33  LEU33      -0.1245
      2  CA        -1.6030   11.8620   17.7010 C.3    33  LEU33       0.1561
      3  C         -2.9360   11.2550   17.9840 C.2    33  LEU33       0.2260
      4  O         -3.2940   11.1030   19.1590 O.2    33  LEU33      -0.2867
      5  CB        -1.7990   13.3750   17.6200 C.3    33  LEU33       0.0270
      6  CG        -0.5040   14.1180   17.3220 C.3    33  LEU33       0.0019
      7  CD1       -0.8310   15.5850   17.0960 C.3    33  LEU33       0.0001
      8  CD2        0.5800   13.8820   18.4050 C.3    33  LEU33       0.0001
      9  N         -1.8990    7.9950   19.4160 N.3    36  ASN36      -0.1225
     10  CA        -1.4690    8.1260   20.8080 C.3    36  ASN36       0.1785
     11  C         -2.7020    8.2170   21.7320 C.2    36  ASN36       0.2597
     12  O         -2.7250    7.6420   22.8140 O.2    36  ASN36      -0.2718
     13  CB        -0.5190    9.3040   20.9990 C.3    36  ASN36       0.1169
     14  CG         0.9160    9.0070   20.4850 C.2    36  ASN36       0.2627
     15  OD1        1.2090    7.9350   19.9470 O.2    36  ASN36      -0.2716
     16  ND2        1.7880    9.9760   20.6270 N.am   36  ASN36      -0.0877
     17  N         -3.7280    8.9490   21.2970 N.am   37  SER37      -0.1952
     18  CA        -4.9620    9.0530   22.0500 C.3    37  SER37       0.1924
     19  C         -5.6130    7.6930   22.2720 C.2    37  SER37       0.2314
     20  O         -5.9290    7.3120   23.4060 O.2    37  SER37      -0.2863
     21  CB        -5.9440    9.9130   21.2850 C.3    37  SER37       0.2116
     22  OG        -5.6160   11.2650   21.4460 O.3    37  SER37      -0.2180
     23  N         -4.2630    4.6970   22.2460 N.3    39  ASP39      -0.1225
     24  CA        -3.5720    3.9590   23.2880 C.3    39  ASP39       0.1805
     25  C         -3.9370    4.4890   24.6840 C.2    39  ASP39       0.2597
     26  O         -4.2730    3.6960   25.6040 O.2    39  ASP39      -0.2718
     27  CB        -2.0880    3.9950   23.0240 C.3    39  ASP39       0.1424
     28  CG        -1.7740    3.4650   21.6520 C.2    39  ASP39       0.3668
     29  OD1       -2.6510    2.7270   21.1410 O.co2  39  ASP39      -0.2456
     30  OD2       -0.7140    3.7650   21.0580 O.co2  39  ASP39      -0.2456
     31  N         -3.9140    5.8090   24.8670 N.am   40  ALA40      -0.1979
     32  CA        -4.1920    6.3570   26.2060 C.3    40  ALA40       0.1597
     33  C         -5.6340    5.9880   26.7120 C.2    40  ALA40       0.2287
     34  O         -5.8610    5.8230   27.9170 O.2    40  ALA40      -0.2864
     35  CB        -3.9230    7.8920   26.2620 C.3    40  ALA40       0.0319
     36  N         -5.5030    2.2240   27.6770 N.3    43  LYS43      -0.1245
     37  CA        -4.8940    2.0660   28.9880 C.3    43  LYS43       0.1561
     38  C         -5.8910    2.3000   30.1110 C.2    43  LYS43       0.2260
     39  O         -6.0190    1.4690   31.0290 O.2    43  LYS43      -0.2867
     40  CB        -3.6890    2.9730   29.1770 C.3    43  LYS43       0.0271
     41  CG        -2.4460    2.6140   28.3310 C.3    43  LYS43       0.0035
     42  CD        -1.1700    3.2800   28.9640 C.3    43  LYS43       0.0206
     43  CE        -0.2300    3.9300   27.9310 C.3    43  LYS43       0.1093
     44  NZ        -0.2390    3.1630   26.6610 N.3    43  LYS43      -0.1314
     45  N         -8.2020   14.1360   24.3130 N.3    78  ASP78      -0.1239
     46  CA        -8.7830   12.8370   24.6450 C.3    78  ASP78       0.1674
     47  C         -9.0290   12.8030   26.1190 C.2    78  ASP78       0.2266
     48  O         -8.3370   13.5000   26.8670 O.2    78  ASP78      -0.2867
     49  CB        -7.8740   11.6560   24.2560 C.3    78  ASP78       0.1410
     50  CG        -6.5010   11.7080   24.9100 C.2    78  ASP78       0.3668
     51  OD1       -6.3550   11.2620   26.0710 O.co2  78  ASP78      -0.2456
     52  OD2       -5.5470   12.1570   24.2530 O.co2  78  ASP78      -0.2456
     53  N         -5.8220    8.1070   29.7540 N.3    81  ILE81      -0.1231
     54  CA        -5.2160    7.9700   31.0500 C.3    81  ILE81       0.1692
     55  C         -4.4210    9.1980   31.5110 C.2    81  ILE81       0.2593
     56  O         -4.0340    9.2720   32.6420 O.2    81  ILE81      -0.2718
     57  CB        -4.3170    6.7020   31.0950 C.3    81  ILE81       0.0266
     58  CG1       -3.8580    6.3810   32.5220 C.3    81  ILE81       0.0019
     59  CG2       -3.1190    6.9090   30.2490 C.3    81  ILE81       0.0020
     60  CD1       -4.7870    5.5070   33.3140 C.3    81  ILE81       0.0001
     61  N         -4.1240   10.1520   30.6570 N.am   82  GLY82      -0.1942
     62  CA        -3.2430   11.2360   31.0950 C.3    82  GLY82       0.2014
     63  C         -1.8110   10.8310   31.4920 C.2    82  GLY82       0.2638
     64  O         -1.4370    9.6600   31.4680 O.2    82  GLY82      -0.2714
     65  N         -1.0150   11.8240   31.8680 N.am   83  MET83      -0.1976
     66  CA         0.3520   11.5990   32.2800 C.3    83  MET83       0.1605
     67  C          0.6250   12.2820   33.6140 C.2    83  MET83       0.2287
     68  O          0.0930   13.3410   33.8960 O.2    83  MET83      -0.2864
     69  CB         1.2740   12.1720   31.2090 C.3    83  MET83       0.0413
     70  CG         1.3010   11.3460   29.9400 C.3    83  MET83       0.0598
     71  SD         2.0620   12.2860   28.6320 S.3    83  MET83      -0.1393
     72  CE         0.8060   13.5700   28.3670 C.3    83  MET83       0.0692
     73  N          5.7640   11.1980   34.0680 N.3    87  ASP87      -0.1225
     74  CA         5.6660   10.8830   32.6580 C.3    87  ASP87       0.1805
     75  C          6.2300   12.0570   31.8520 C.2    87  ASP87       0.2597
     76  O          7.4020   12.0300   31.4180 O.2    87  ASP87      -0.2718
     77  CB         4.2410   10.5410   32.3270 C.3    87  ASP87       0.1424
     78  CG         3.8070    9.3130   33.0740 C.2    87  ASP87       0.3668
     79  OD1        4.6900    8.4090   33.1740 O.co2  87  ASP87      -0.2456
     80  OD2        2.6550    9.2340   33.5770 O.co2  87  ASP87      -0.2456
     81  N          5.4330   13.1090   31.7040 N.am   88  LEU88      -0.1979
     82  CA         5.8890   14.3360   31.0520 C.3    88  LEU88       0.1596
     83  C          7.4040   14.5740   31.0110 C.2    88  LEU88       0.2287
     84  O          7.9640   14.8430   29.9610 O.2    88  LEU88      -0.2864
     85  CB         5.2450   15.5340   31.7140 C.3    88  LEU88       0.0297
     86  CG         3.8000   15.8260   31.3350 C.3    88  LEU88       0.0022
     87  CD1        3.5580   17.2700   31.6270 C.3    88  LEU88       0.0001
     88  CD2        3.5260   15.5580   29.8650 C.3    88  LEU88       0.0001
     89  N          8.5860    9.5670   29.5850 N.3    92  LEU92      -0.1245
     90  CA         8.3760    9.6770   28.1370 C.3    92  LEU92       0.1561
     91  C          9.6770    9.9570   27.3140 C.2    92  LEU92       0.2260
     92  O          9.8980    9.3420   26.2510 O.2    92  LEU92      -0.2867
     93  CB         7.1830   10.5880   27.8040 C.3    92  LEU92       0.0270
     94  CG         5.9320   10.0900   28.5720 C.3    92  LEU92       0.0019
     95  CD1        4.9760   11.2110   28.8510 C.3    92  LEU92       0.0001
     96  CD2        5.1690    8.9240   27.9500 C.3    92  LEU92       0.0001
     97  N         12.1840    6.6610   27.3480 N.3    95  ILE95      -0.1231
     98  CA        11.6790    5.6750   26.3740 C.3    95  ILE95       0.1692
     99  C         11.9130    6.1680   24.9530 C.2    95  ILE95       0.2591
    100  O         12.2560    5.3930   24.0600 O.2    95  ILE95      -0.2718
    101  CB        10.1300    5.4650   26.4910 C.3    95  ILE95       0.0266
    102  CG1        9.7030    5.0630   27.9120 C.3    95  ILE95       0.0019
    103  CG2        9.6420    4.4570   25.4400 C.3    95  ILE95       0.0020
    104  CD1       10.4710    3.8420   28.4740 C.3    95  ILE95       0.0001
    105  N         11.6910    7.4650   24.7450 N.am   96  ALA96      -0.1980
    106  CA        11.7680    8.0190   23.4200 C.3    96  ALA96       0.1597
    107  C         13.2170    7.9160   22.9640 C.2    96  ALA96       0.2287
    108  O         13.5000    7.7860   21.7700 O.2    96  ALA96      -0.2864
    109  CB        11.2750    9.4500   23.4190 C.3    96  ALA96       0.0319
    110  N          7.3380    4.3620   18.2590 N.3   120  GLY120     -0.1210
    111  CA         6.7530    4.9690   19.4400 C.3   120  GLY120      0.1956
    112  C          7.1300    6.4260   19.6520 C.2   120  GLY120      0.2612
    113  O          6.9900    6.9540   20.7660 O.2   120  GLY120     -0.2717
    114  N          7.5880    7.0960   18.6070 N.am  121  VAL121     -0.1965
    115  CA         7.9230    8.4980   18.7480 C.3   121  VAL121      0.1727
    116  C          7.0880    9.3410   17.7690 C.2   121  VAL121      0.2617
    117  O          7.5600   10.3280   17.2160 O.2   121  VAL121     -0.2715
    118  CB         9.4620    8.7580   18.5910 C.3   121  VAL121      0.0290
    119  CG1       10.2490    8.1760   19.7830 C.3   121  VAL121      0.0023
    120  CG2        9.9760    8.1590   17.3220 C.3   121  VAL121      0.0023
    121  N          5.8280    8.9500   17.5890 N.am  122  GLY122     -0.1940
    122  CA         4.9590    9.5690   16.6350 C.3   122  GLY122      0.2014
    123  C          4.6030   10.9820   17.0320 C.2   122  GLY122      0.2639
    124  O          4.3620   11.8350   16.1670 O.2   122  GLY122     -0.2714
    125  N          4.5700   11.2290   18.3320 N.am  123  PHE123     -0.1959
    126  CA         4.2200   12.5390   18.8450 C.3   123  PHE123      0.1771
    127  C          5.0910   13.6300   18.2010 C.2   123  PHE123      0.2619
    128  O          4.5870   14.6220   17.7120 O.2   123  PHE123     -0.2715
    129  CB         4.3410   12.5560   20.3660 C.3   123  PHE123      0.0574
    130  CG         4.4270   13.9520   20.9540 C.ar  123  PHE123     -0.0200
    131  CD1        3.2690   14.6280   21.3660 C.ar  123  PHE123     -0.0042
    132  CD2        5.6690   14.6030   21.0700 C.ar  123  PHE123     -0.0042
    133  CE1        3.3360   15.9150   21.8730 C.ar  123  PHE123     -0.0003
    134  CE2        5.7510   15.8900   21.6060 C.ar  123  PHE123     -0.0003
    135  CZ         4.5880   16.5550   22.0000 C.ar  123  PHE123     -0.0000
    136  N          6.3950   13.4380   18.1370 N.am  124  TYR124     -0.1974
    137  CA         7.2210   14.4710   17.4960 C.3   124  TYR124      0.1639
    138  C          6.8540   14.8700   16.0620 C.2   124  TYR124      0.2290
    139  O          7.3760   15.8660   15.5310 O.2   124  TYR124     -0.2864
    140  CB         8.6850   14.1070   17.6130 C.3   124  TYR124      0.0560
    141  CG         9.0540   13.9690   19.0590 C.ar  124  TYR124     -0.0198
    142  CD1        9.2650   15.1090   19.8420 C.ar  124  TYR124     -0.0009
    143  CD2        9.0990   12.7190   19.6780 C.ar  124  TYR124     -0.0009
    144  CE1        9.5510   15.0150   21.2170 C.ar  124  TYR124      0.0417
    145  CE2        9.3990   12.6020   21.0410 C.ar  124  TYR124      0.0417
    146  CZ         9.6280   13.7610   21.8000 C.ar  124  TYR124      0.1957
    147  OH         9.9220   13.6900   23.1400 O.3   124  TYR124     -0.2866
    148  N          1.2720   20.6680   25.5310 N.3   135  VAL135     -0.1245
    149  CA         0.5530   19.4760   25.9880 C.3   135  VAL135      0.1561
    150  C         -0.0050   19.7890   27.3750 C.2   135  VAL135      0.2260
    151  O          0.7720   20.1140   28.2840 O.2   135  VAL135     -0.2867
    152  CB         1.4920   18.2350   26.0120 C.3   135  VAL135      0.0252
    153  CG1        0.7430   17.0100   26.4840 C.3   135  VAL135      0.0019
    154  CG2        2.0650   17.9560   24.6230 C.3   135  VAL135      0.0019
    155  N         -3.7690   13.2350   34.9460 N.3   139  HIS139     -0.1241
    156  CA        -3.8180   11.8220   35.3420 C.3   139  HIS139      0.1621
    157  C         -4.4060   11.7690   36.7150 C.2   139  HIS139      0.2264
    158  O         -3.9560   12.5190   37.5590 O.2   139  HIS139     -0.2867
    159  CB        -2.3600   11.3190   35.4540 C.3   139  HIS139      0.0745
    160  CG        -2.1990    9.8350   35.6450 C.ar  139  HIS139      0.0817
    161  ND1       -2.5560    9.1800   36.8050 N.ar  139  HIS139     -0.2268
    162  CD2       -1.6330    8.8920   34.8530 C.ar  139  HIS139      0.1154
    163  CE1       -2.2490    7.8980   36.7130 C.ar  139  HIS139      0.1986
    164  NE2       -1.6900    7.6940   35.5370 N.ar  139  HIS139     -0.2212
    165  N         -5.6820   14.2470   28.0890 N.3   169  THR169     -0.1218
    166  CA        -4.5530   14.9750   27.4660 C.3   169  THR169      0.1862
    167  C         -5.0370   15.8630   26.2990 C.2   169  THR169      0.2287
    168  O         -5.8510   15.4540   25.4840 O.2   169  THR169     -0.2866
    169  CB        -3.4150   14.0050   26.9510 C.3   169  THR169      0.1770
    170  OG1       -2.9450   13.1450   28.0130 O.3   169  THR169     -0.2211
    171  CG2       -2.2670   14.7840   26.3420 C.3   169  THR169      0.0375
    172  N         -3.4870   18.0010   23.1400 N.3   171  VAL171     -0.1245
    173  CA        -2.3300   18.4800   22.4090 C.3   171  VAL171      0.1561
    174  C         -2.7480   19.6730   21.5320 C.2   171  VAL171      0.2260
    175  O         -3.6740   19.5870   20.7320 O.2   171  VAL171     -0.2867
    176  CB        -1.7490   17.3630   21.5710 C.3   171  VAL171      0.0252
    177  CG1       -0.5710   17.8660   20.7880 C.3   171  VAL171      0.0019
    178  CG2       -1.3940   16.1730   22.4970 C.3   171  VAL171      0.0019
@<TRIPOS>BOND
     1   139   138    2
     2   138   137    1
     3   124   123    2
     4     1     2    1
     5   122   123    1
     6   122   121    1
     7   123   125   am
     8     7     6    1
     9   117   116    2
    10     6     5    1
    11     6     8    1
    12   120   118    1
    13   137   140    1
    14   137   136    1
    15   121   116   am
    16   140   141    1
    17     5     2    1
    18     2     3    1
    19   128   127    2
    20   116   115    1
    21     3     4    2
    22   136   127   am
    23   127   126    1
    24   110   111    1
    25   125   126    1
    26   118   115    1
    27   118   119    1
    28   114   115    1
    29   114   112   am
    30   126   129    1
    31   141   143   ar
    32   141   142   ar
    33     9    10    1
    34   111   112    1
    35   112   113    2
    36   143   145   ar
    37   142   144   ar
    38    15    14    2
    39   129   130    1
    40    14    16   am
    41    14    13    1
    42   175   174    2
    43   177   176    1
    44    10    13    1
    45    10    11    1
    46   130   132   ar
    47   130   131   ar
    48   145   146   ar
    49    30    28   ar
    50   132   134   ar
    51    29    28   ar
    52   144   146   ar
    53    21    22    1
    54    21    18    1
    55    17    11   am
    56    17    18    1
    57   131   133   ar
    58   174   173    1
    59   176   173    1
    60   176   178    1
    61   134   135   ar
    62    28    27    1
    63    11    12    2
    64   108   107    2
    65   146   147    1
    66   133   135   ar
    67    18    19    1
    68    23    24    1
    69    19    20    2
    70   173   172    1
    71   107   106    1
    72    27    24    1
    73    24    25    1
    74   109   106    1
    75   106   105    1
    76   100    99    2
    77    52    50   ar
    78    49    46    1
    79    49    50    1
    80    45    46    1
    81   154   152    1
    82    46    47    1
    83    25    31   am
    84    25    26    2
    85   105    99   am
    86    31    32    1
    87    50    51   ar
    88    99    98    1
    89   103   101    1
    90   168   167    2
    91   148   149    1
    92   149   152    1
    93   149   150    1
    94   152   153    1
    95    47    48    2
    96    32    35    1
    97    32    33    1
    98    92    91    2
    99   167   166    1
   100   171   169    1
   101    98   101    1
   102    98    97    1
   103   101   102    1
   104    44    43    1
   105    33    34    2
   106   169   166    1
   107   169   170    1
   108    91    90    1
   109   150   151    2
   110   166   165    1
   111    36    37    1
   112    93    90    1
   113    93    94    1
   114   102   104    1
   115    43    42    1
   116    96    94    1
   117    90    89    1
   118    41    42    1
   119    41    40    1
   120    72    71    1
   121    94    95    1
   122    71    70    1
   123    37    40    1
   124    37    38    1
   125    53    54    1
   126    88    86    1
   127    70    69    1
   128    84    83    2
   129    38    39    2
   130    59    57    1
   131    61    62    1
   132    61    55   am
   133    83    82    1
   134    54    57    1
   135    54    55    1
   136    82    81    1
   137    82    85    1
   138    57    58    1
   139    62    63    1
   140    69    66    1
   141    86    87    1
   142    86    85    1
   143    76    75    2
   144    64    63    2
   145    63    65   am
   146    55    56    2
   147    81    75   am
   148    75    74    1
   149    65    66    1
   150    66    67    1
   151    77    74    1
   152    77    78    1
   153    58    60    1
   154    74    73    1
   155    78    79   ar
   156    78    80   ar
   157    67    68    2
   158   162   164   ar
   159   162   160   ar
   160   155   156    1
   161   156   159    1
   162   156   157    1
   163   159   160    1
   164   164   163   ar
   165   160   161   ar
   166   163   161   ar
   167   157   158    2
