@<TRIPOS>MOLECULE
tmp/2wi9A01.pdb
 187 178 0 0 0
SMALL
GASTEIGER

@<TRIPOS>ATOM
      1  N         52.9900    8.0050   73.1460 N.3    63  TRP63      -0.1241
      2  CA        53.0390    6.6560   72.5610 C.3    63  TRP63       0.1605
      3  C         53.1030    5.4690   73.5710 C.2    63  TRP63       0.2264
      4  O         52.8210    4.3220   73.1740 O.2    63  TRP63      -0.2867
      5  CB        54.1630    6.5680   71.5330 C.3    63  TRP63       0.0550
      6  CG        53.8190    7.2790   70.2920 C.ar   63  TRP63       0.0003
      7  CD1       53.9450    8.6160   70.0630 C.ar   63  TRP63       0.0946
      8  CD2       53.2910    6.7070   69.0950 C.ar   63  TRP63       0.0152
      9  NE1       53.5150    8.9280   68.7920 N.ar   63  TRP63      -0.2442
     10  CE2       53.1230    7.7700   68.1670 C.ar   63  TRP63       0.0810
     11  CE3       52.9470    5.4020   68.7100 C.ar   63  TRP63       0.0012
     12  CZ2       52.6360    7.5710   66.8620 C.ar   63  TRP63       0.0191
     13  CZ3       52.4300    5.2010   67.3920 C.ar   63  TRP63       0.0001
     14  CH2       52.2890    6.2730   66.4960 C.ar   63  TRP63       0.0015
     15  N         61.5520    6.4180   64.3680 N.3    74  GLU74      -0.1245
     16  CA        60.4040    7.1340   64.8970 C.3    74  GLU74       0.1567
     17  C         60.5810    7.5080   66.3740 C.2    74  GLU74       0.2260
     18  O         60.3350    8.6520   66.8010 O.2    74  GLU74      -0.2867
     19  CB        59.1260    6.2920   64.6820 C.3    74  GLU74       0.0388
     20  CG        58.6510    6.2020   63.1860 C.3    74  GLU74       0.1160
     21  CD        57.8820    4.8980   62.8880 C.2    74  GLU74       0.3649
     22  OE1       57.6890    4.0750   63.8260 O.co2  74  GLU74      -0.2457
     23  OE2       57.4850    4.6890   61.7190 O.co2  74  GLU74      -0.2457
     24  N         58.6290   15.1350   72.0380 N.3    80  ASN80      -0.1240
     25  CA        58.2790   16.5390   71.7340 C.3    80  ASN80       0.1653
     26  C         56.8920   16.8630   72.3040 C.2    80  ASN80       0.2266
     27  O         56.1630   15.9480   72.7500 O.2    80  ASN80      -0.2867
     28  CB        58.2940   16.7990   70.2250 C.3    80  ASN80       0.1155
     29  CG        57.2740   15.9190   69.5060 C.2    80  ASN80       0.2627
     30  OD1       56.0830   16.1440   69.6520 O.2    80  ASN80      -0.2716
     31  ND2       57.7310   14.8940   68.7940 N.am   80  ASN80      -0.0877
     32  N         54.1100   17.6780   71.1870 N.3    82  LEU82      -0.1231
     33  CA        52.9140   17.2030   70.5200 C.3    82  LEU82       0.1693
     34  C         52.6510   15.7220   70.8210 C.2    82  LEU82       0.2591
     35  O         51.5010   15.2500   70.7370 O.2    82  LEU82      -0.2718
     36  CB        53.0040   17.3290   68.9860 C.3    82  LEU82       0.0284
     37  CG        51.7060   16.9970   68.1760 C.3    82  LEU82       0.0019
     38  CD1       50.4040   17.5700   68.8110 C.3    82  LEU82       0.0001
     39  CD2       51.9020   17.5770   66.7340 C.3    82  LEU82       0.0001
     40  N         53.6930   14.9610   71.1360 N.am   83  GLU83      -0.1979
     41  CA        53.4800   13.5260   71.3750 C.3    83  GLU83       0.1602
     42  C         53.6720   13.2780   72.8690 C.2    83  GLU83       0.2287
     43  O         54.3720   12.3700   73.2920 O.2    83  GLU83      -0.2864
     44  CB        54.4580   12.7370   70.4800 C.3    83  GLU83       0.0415
     45  CG        54.0370   12.9530   68.9650 C.3    83  GLU83       0.1163
     46  CD        54.8940   12.2390   67.9750 C.2    83  GLU83       0.3649
     47  OE1       56.0390   12.6810   67.8310 O.co2  83  GLU83      -0.2457
     48  OE2       54.4330   11.2060   67.3900 O.co2  83  GLU83      -0.2457
     49  N         59.1870   12.4570   55.0820 N.3   167  PHE167     -0.1227
     50  CA        58.5270   12.2670   56.3850 C.3   167  PHE167      0.1736
     51  C         57.0710   12.4210   56.0960 C.2   167  PHE167      0.2595
     52  O         56.3740   11.4100   55.9780 O.2   167  PHE167     -0.2718
     53  CB        58.8750   13.2950   57.4560 C.3   167  PHE167      0.0547
     54  CG        60.2830   13.6580   57.4920 C.ar  167  PHE167     -0.0202
     55  CD1       60.6500   14.9840   57.3980 C.ar  167  PHE167     -0.0042
     56  CD2       61.2470   12.6800   57.5940 C.ar  167  PHE167     -0.0042
     57  CE1       61.9540   15.3230   57.4060 C.ar  167  PHE167     -0.0003
     58  CE2       62.5480   13.0070   57.6100 C.ar  167  PHE167     -0.0003
     59  CZ        62.9160   14.3240   57.5190 C.ar  167  PHE167     -0.0000
     60  N         56.6240   13.6610   55.9180 N.am  168  VAL168     -0.1980
     61  CA        55.2260   13.9540   55.6440 C.3   168  VAL168      0.1595
     62  C         54.6520   13.1080   54.4780 C.2   168  VAL168      0.2287
     63  O         53.7850   12.2720   54.7250 O.2   168  VAL168     -0.2864
     64  CB        54.9740   15.4940   55.5260 C.3   168  VAL168      0.0276
     65  CG1       53.5750   15.7980   55.0230 C.3   168  VAL168      0.0022
     66  CG2       55.2290   16.1690   56.9050 C.3   168  VAL168      0.0022
     67  N         63.8970    9.9760   58.1510 N.3   180  MET180     -0.1245
     68  CA        63.8760   10.2060   59.6020 C.3   180  MET180      0.1570
     69  C         65.2420   10.1010   60.3120 C.2   180  MET180      0.2261
     70  O         65.6830   11.0790   60.9640 O.2   180  MET180     -0.2867
     71  CB        62.8590    9.2870   60.2540 C.3   180  MET180      0.0387
     72  CG        61.4680    9.8450   60.1340 C.3   180  MET180      0.0595
     73  SD        60.3390    8.8310   61.0930 S.3   180  MET180     -0.1393
     74  CE        59.7060    7.6810   59.9180 C.3   180  MET180      0.0692
     75  N         63.2040   19.2760   66.0290 N.3   227  HIS227     -0.1226
     76  CA        62.5070   18.5640   65.0100 C.3   227  HIS227      0.1752
     77  C         61.0900   19.1000   64.8250 C.2   227  HIS227      0.2595
     78  O         60.6860   19.4790   63.6920 O.2   227  HIS227     -0.2718
     79  CB        62.4440   17.0700   65.4100 C.3   227  HIS227      0.0759
     80  CG        61.5370   16.2810   64.5520 C.ar  227  HIS227      0.0818
     81  ND1       60.3600   15.7410   65.0200 N.ar  227  HIS227     -0.2268
     82  CD2       61.5840   16.0010   63.2310 C.ar  227  HIS227      0.1154
     83  CE1       59.7380   15.1230   64.0360 C.ar  227  HIS227      0.1986
     84  NE2       60.4550   15.2700   62.9430 N.ar  227  HIS227     -0.2212
     85  N         60.3260   19.1530   65.9180 N.am  228  ILE228     -0.1980
     86  CA        58.9240   19.5410   65.7860 C.3   228  ILE228      0.1595
     87  C         58.7660   20.9830   65.2870 C.2   228  ILE228      0.2287
     88  O         57.9030   21.2610   64.4300 O.2   228  ILE228     -0.2864
     89  CB        58.1060   19.2690   67.0490 C.3   228  ILE228      0.0276
     90  CG1       56.6160   19.2580   66.7080 C.3   228  ILE228      0.0022
     91  CG2       58.4770   20.2580   68.1510 C.3   228  ILE228      0.0022
     92  CD1       55.7420   19.0680   67.8810 C.3   228  ILE228      0.0001
     93  N         59.8270   20.9420   61.3190 N.3   231  VAL231     -0.1231
     94  CA        58.9370   20.2540   60.4100 C.3   231  VAL231      0.1692
     95  C         57.5620   20.9220   60.3820 C.2   231  VAL231      0.2591
     96  O         57.0470   21.1260   59.3100 O.2   231  VAL231     -0.2718
     97  CB        58.7050   18.7750   60.7740 C.3   231  VAL231      0.0266
     98  CG1       57.8810   18.0800   59.6640 C.3   231  VAL231      0.0020
     99  CG2       60.0080   18.0510   61.0210 C.3   231  VAL231      0.0020
    100  N         56.9760   21.2330   61.5500 N.am  232  ALA232     -0.1980
    101  CA        55.5730   21.7810   61.6260 C.3   232  ALA232      0.1597
    102  C         55.1130   22.6430   60.3980 C.2   232  ALA232      0.2287
    103  O         54.2650   22.1680   59.5930 O.2   232  ALA232     -0.2864
    104  CB        55.2840   22.5100   62.9560 C.3   232  ALA232      0.0319
    105  N         55.1130   21.3180   56.4670 N.3   235  GLU235     -0.1231
    106  CA        54.0040   20.5160   56.1080 C.3   235  GLU235      0.1699
    107  C         52.7370   21.3470   56.1180 C.2   235  GLU235      0.2592
    108  O         51.7000   20.9300   55.5450 O.2   235  GLU235     -0.2718
    109  CB        53.8740   19.3830   57.1200 C.3   235  GLU235      0.0402
    110  CG        53.4930   19.7590   58.4780 C.3   235  GLU235      0.1161
    111  CD        53.4020   18.5230   59.4950 C.2   235  GLU235      0.3649
    112  OE1       53.4870   17.4170   59.0530 O.co2 235  GLU235     -0.2457
    113  OE2       53.2720   18.9140   60.5680 O.co2 235  GLU235     -0.2457
    114  N         52.7740   22.4880   56.8000 N.am  236  THR236     -0.1953
    115  CA        51.5180   23.1370   57.0350 C.3   236  THR236      0.1897
    116  C         51.4020   24.5100   56.3900 C.2   236  THR236      0.2313
    117  O         50.4860   24.7350   55.5940 O.2   236  THR236     -0.2863
    118  CB        51.1990   23.2610   58.5330 C.3   236  THR236      0.1794
    119  OG1       52.2740   23.9440   59.1590 O.3   236  THR236     -0.2208
    120  CG2       50.9400   21.8790   59.1800 C.3   236  THR236      0.0378
    121  N         45.7110   20.6970   57.3200 N.3   279  VAL279     -0.1245
    122  CA        45.6120   19.5170   58.1770 C.3   279  VAL279      0.1561
    123  C         44.2660   18.8710   57.9970 C.2   279  VAL279      0.2260
    124  O         43.2490   19.3410   58.5070 O.2   279  VAL279     -0.2867
    125  CB        45.9370   19.7870   59.7150 C.3   279  VAL279      0.0252
    126  CG1       45.9610   18.4830   60.4780 C.3   279  VAL279      0.0019
    127  CG2       47.2790   20.4390   59.9050 C.3   279  VAL279      0.0019
    128  N         43.5620   15.5870   58.8720 N.3   281  SER281     -0.1202
    129  CA        43.3160   14.7890   60.0980 C.3   281  SER281      0.2020
    130  C         44.3470   15.1710   61.1440 C.2   281  SER281      0.2619
    131  O         45.5100   15.3490   60.7930 O.2   281  SER281     -0.2717
    132  CB        43.5250   13.3030   59.7940 C.3   281  SER281      0.2103
    133  OG        42.5070   12.8780   58.9320 O.3   281  SER281     -0.2182
    134  N         43.9300   15.2920   62.4030 N.am  282  ALA282     -0.1965
    135  CA        44.8610   15.6840   63.4580 C.3   282  ALA282      0.1728
    136  C         45.7980   14.5350   63.7840 C.2   282  ALA282      0.2617
    137  O         45.5660   13.3870   63.3590 O.2   282  ALA282     -0.2715
    138  CB        44.0920   16.0650   64.7020 C.3   282  ALA282      0.0334
    139  N         46.8660   14.8240   64.5310 N.am  283  THR283     -0.1937
    140  CA        47.8380   13.7910   64.8230 C.3   283  THR283      0.2028
    141  C         47.2700   12.7300   65.7890 C.2   283  THR283      0.2642
    142  O         46.2100   12.9140   66.4340 O.2   283  THR283     -0.2714
    143  CB        49.1900   14.3830   65.3160 C.3   283  THR283      0.1808
    144  OG1       48.9630   14.9230   66.5830 O.3   283  THR283     -0.2208
    145  CG2       49.7350   15.4920   64.3790 C.3   283  THR283      0.0379
    146  N         47.9520   11.5680   65.8560 N.am  284  TYR284     -0.1973
    147  CA        47.3940   10.3780   66.5240 C.3   284  TYR284      0.1639
    148  C         47.0540   10.5740   67.9780 C.2   284  TYR284      0.2290
    149  O         47.8400   11.1530   68.7640 O.2   284  TYR284     -0.2864
    150  CB        48.3570    9.1850   66.4690 C.3   284  TYR284      0.0560
    151  CG        48.5760    8.5650   65.1180 C.ar  284  TYR284     -0.0198
    152  CD1       48.0120    9.0800   63.9880 C.ar  284  TYR284     -0.0009
    153  CD2       49.3600    7.4050   64.9970 C.ar  284  TYR284     -0.0009
    154  CE1       48.2110    8.4910   62.7410 C.ar  284  TYR284      0.0417
    155  CE2       49.5810    6.8090   63.7650 C.ar  284  TYR284      0.0417
    156  CZ        49.0090    7.3700   62.6330 C.ar  284  TYR284      0.1957
    157  OH        49.1990    6.7890   61.4220 O.3   284  TYR284     -0.2866
    158  N         47.7050   24.8050   68.1520 N.3   343  CYS343     -0.1235
    159  CA        48.9060   25.1860   67.4040 C.3   343  CYS343      0.1677
    160  C         49.7150   26.2920   68.0530 C.2   343  CYS343      0.2270
    161  O         49.2440   27.4310   68.1860 O.2   343  CYS343     -0.2867
    162  CB        48.5530   25.6490   65.9790 C.3   343  CYS343      0.0956
    163  SG        50.1070   26.0210   65.0490 S.3   343  CYS343     -0.0801
    164  N         48.2900   11.4160   50.4750 N.3   381  ASN381     -0.1240
    165  CA        48.1590   11.5290   51.9250 C.3   381  ASN381      0.1653
    166  C         46.7960   12.0350   52.4800 C.2   381  ASN381      0.2266
    167  O         46.3000   13.1200   52.0750 O.2   381  ASN381     -0.2867
    168  CB        49.2740   12.4250   52.4300 C.3   381  ASN381      0.1155
    169  CG        49.6870   12.0950   53.8290 C.2   381  ASN381      0.2627
    170  OD1       48.9050   11.5660   54.6290 O.2   381  ASN381     -0.2716
    171  ND2       50.9400   12.3770   54.1330 N.am  381  ASN381     -0.0877
    172  N         46.2420   12.8130   55.6020 N.3   383  MET383     -0.1230
    173  CA        46.5530   13.5500   56.8200 C.3   383  MET383      0.1702
    174  C         46.7800   15.0310   56.4830 C.2   383  MET383      0.2592
    175  O         46.3990   15.9530   57.2120 O.2   383  MET383     -0.2718
    176  CB        47.8570   12.9860   57.3610 C.3   383  MET383      0.0401
    177  CG        47.8790   12.7460   58.8340 C.3   383  MET383      0.0596
    178  SD        47.0980   11.1930   59.2780 S.3   383  MET383     -0.1393
    179  CE        46.9920   11.5300   61.0190 C.3   383  MET383      0.0692
    180  N         47.4780   15.1970   55.3750 N.am  384  ILE384     -0.1980
    181  CA        47.9080   16.5090   54.9290 C.3   384  ILE384      0.1595
    182  C         47.2540   16.7370   53.5930 C.2   384  ILE384      0.2287
    183  O         47.3320   15.8840   52.7190 O.2   384  ILE384     -0.2864
    184  CB        49.4430   16.5760   54.7490 C.3   384  ILE384      0.0276
    185  CG1       50.1350   16.4300   56.1290 C.3   384  ILE384      0.0022
    186  CG2       49.8560   17.9140   54.0210 C.3   384  ILE384      0.0022
    187  CD1       49.8080   17.6470   57.1040 C.3   384  ILE384      0.0001
@<TRIPOS>BOND
     1   164   165    1
     2   165   168    1
     3   165   166    1
     4   167   166    2
     5   168   169    1
     6   183   182    2
     7   182   181    1
     8   169   171   am
     9   169   170    2
    10   186   184    1
    11    62    63    2
    12    62    61    1
    13   184   181    1
    14   184   185    1
    15   181   180    1
    16    65    64    1
    17    49    50    1
    18   180   174   am
    19    64    61    1
    20    64    66    1
    21   108   107    2
    22   117   116    2
    23   172   173    1
    24    61    60    1
    25    60    51   am
    26    52    51    2
    27    51    50    1
    28   106   107    1
    29   106   105    1
    30   106   109    1
    31   107   114   am
    32   185   187    1
    33    50    53    1
    34   116   115    1
    35   174   173    1
    36   174   175    2
    37   114   115    1
    38   173   176    1
    39   115   118    1
    40   109   110    1
    41   121   122    1
    42   176   177    1
    43    55    57   ar
    44    55    54   ar
    45    57    59   ar
    46    53    54    1
    47    54    56   ar
    48    59    58   ar
    49    56    58   ar
    50   123   122    1
    51   123   124    2
    52    67    68    1
    53   122   125    1
    54   110   111    1
    55   118   119    1
    56   118   120    1
    57   177   178    1
    58   128   129    1
    59   133   132    1
    60   112   111   ar
    61   178   179    1
    62    96    95    2
    63   111   113   ar
    64   103   102    2
    65    68    71    1
    66    68    69    1
    67    98    97    1
    68   125   127    1
    69   125   126    1
    70   132   129    1
    71    74    73    1
    72   129   130    1
    73    72    71    1
    74    72    73    1
    75    69    70    2
    76    95    94    1
    77    95   100   am
    78   102   101    1
    79    94    97    1
    80    94    93    1
    81    97    99    1
    82   131   130    2
    83   130   134   am
    84   157   156    1
    85   100   101    1
    86   101   104    1
    87    23    21   ar
    88   134   135    1
    89   156   154   ar
    90   156   155   ar
    91   154   152   ar
    92    21    20    1
    93    21    22   ar
    94    84    82   ar
    95    84    83   ar
    96    20    19    1
    97    82    80   ar
    98   137   136    2
    99   135   136    1
   100   135   138    1
   101    78    77    2
   102   155   153   ar
   103   136   139   am
   104   152   151   ar
   105    83    81   ar
   106    15    16    1
   107   145   143    1
   108    88    87    2
   109   139   140    1
   110    80    81   ar
   111    80    79    1
   112    19    16    1
   113   140   143    1
   114   140   141    1
   115    77    76    1
   116    77    85   am
   117    16    17    1
   118   153   151   ar
   119    76    79    1
   120    76    75    1
   121   163   162    1
   122   151   150    1
   123    87    86    1
   124   143   144    1
   125    86    85    1
   126    86    89    1
   127   141   146   am
   128   141   142    2
   129   146   147    1
   130   162   159    1
   131    17    18    2
   132   150   147    1
   133    14    12   ar
   134    14    13   ar
   135   147   148    1
   136    90    89    1
   137    90    92    1
   138    39    37    1
   139    12    10   ar
   140    89    91    1
   141    48    46   ar
   142    13    11   ar
   143   159   160    1
   144   159   158    1
   145    47    46   ar
   146    46    45    1
   147   148   149    2
   148   160   161    2
   149    10     9   ar
   150    10     8   ar
   151    37    38    1
   152    37    36    1
   153    11     8   ar
   154     9     7   ar
   155    31    29   am
   156    45    44    1
   157    36    33    1
   158     8     6   ar
   159    29    30    2
   160    29    28    1
   161     7     6   ar
   162    28    25    1
   163     6     5    1
   164    44    41    1
   165    33    34    1
   166    33    32    1
   167    35    34    2
   168    34    40   am
   169    40    41    1
   170    41    42    1
   171     5     2    1
   172    25    24    1
   173    25    26    1
   174    26    27    2
   175     2     1    1
   176     2     3    1
   177    42    43    2
   178     4     3    2
