@<TRIPOS>MOLECULE
tmp/2wi9B01.pdb
 195 187 0 0 0
SMALL
GASTEIGER

@<TRIPOS>ATOM
      1  N         21.9130    7.7460    0.8130 N.3    61  TRP61      -0.1241
      2  CA        21.8460    6.3580    1.2450 C.3    61  TRP61       0.1605
      3  C         21.8140    5.3580    0.0710 C.2    61  TRP61       0.2264
      4  O         22.1380    4.1650    0.2330 O.2    61  TRP61      -0.2867
      5  CB        20.6660    6.2010    2.2070 C.3    61  TRP61       0.0550
      6  CG        20.9990    6.7060    3.5940 C.ar   61  TRP61       0.0003
      7  CD1       20.8840    7.9910    4.0520 C.ar   61  TRP61       0.0946
      8  CD2       21.5150    5.9410    4.6930 C.ar   61  TRP61       0.0152
      9  NE1       21.2770    8.0760    5.3480 N.ar   61  TRP61      -0.2442
     10  CE2       21.6650    6.8350    5.7860 C.ar   61  TRP61       0.0810
     11  CE3       21.8370    4.5880    4.8700 C.ar   61  TRP61       0.0012
     12  CZ2       22.1420    6.4290    7.0530 C.ar   61  TRP61       0.0191
     13  CZ3       22.3330    4.1720    6.1690 C.ar   61  TRP61       0.0001
     14  CH2       22.4660    5.0930    7.2130 C.ar   61  TRP61       0.0015
     15  N         18.3010    1.2590    4.9620 N.3    68  LEU68      -0.1245
     16  CA        17.5750    2.0780    5.9250 C.3    68  LEU68       0.1561
     17  C         16.4180    1.2540    6.5220 C.2    68  LEU68       0.2260
     18  O         15.8120    0.4700    5.8220 O.2    68  LEU68      -0.2867
     19  CB        17.0130    3.3170    5.1910 C.3    68  LEU68       0.0270
     20  CG        17.8870    4.4730    4.6880 C.3    68  LEU68       0.0019
     21  CD1       17.1920    5.2700    3.5930 C.3    68  LEU68       0.0001
     22  CD2       18.1770    5.3870    5.8270 C.3    68  LEU68       0.0001
     23  N         13.2950    5.1470    9.1520 N.3    72  GLU72      -0.1245
     24  CA        14.3950    6.0230    8.6620 C.3    72  GLU72       0.1567
     25  C         14.1680    6.4900    7.2370 C.2    72  GLU72       0.2260
     26  O         14.4260    7.6770    6.9160 O.2    72  GLU72      -0.2867
     27  CB        15.7330    5.3070    8.7980 C.3    72  GLU72       0.0388
     28  CG        16.3720    5.4300   10.1860 C.3    72  GLU72       0.1160
     29  CD        17.2680    4.1990   10.4980 C.2    72  GLU72       0.3649
     30  OE1       17.6700    3.4950    9.5310 O.co2  72  GLU72      -0.2457
     31  OE2       17.5370    3.9210   11.6980 O.co2  72  GLU72      -0.2457
     32  N         20.6080   17.0570    4.1230 N.3    80  LEU80      -0.1231
     33  CA        21.8460   16.5420    4.7420 C.3    80  LEU80       0.1693
     34  C         22.1020   15.0920    4.2320 C.2    80  LEU80       0.2591
     35  O         23.2170   14.6440    4.1670 O.2    80  LEU80      -0.2718
     36  CB        21.7350   16.4980    6.2830 C.3    80  LEU80       0.0284
     37  CG        23.0420   16.1280    7.0820 C.3    80  LEU80       0.0019
     38  CD1       24.3390   16.7350    6.4840 C.3    80  LEU80       0.0001
     39  CD2       22.9460   16.6880    8.4530 C.3    80  LEU80       0.0001
     40  N         21.0640   14.3820    3.8560 N.am   81  GLU81      -0.1979
     41  CA        21.2490   13.0280    3.3030 C.3    81  GLU81       0.1602
     42  C         21.0530   12.9770    1.7980 C.2    81  GLU81       0.2287
     43  O         20.4200   12.0150    1.2530 O.2    81  GLU81      -0.2864
     44  CB        20.2730   12.0820    4.0340 C.3    81  GLU81       0.0415
     45  CG        20.5850   12.1580    5.5830 C.3    81  GLU81       0.1163
     46  CD        19.7360   11.2040    6.4390 C.2    81  GLU81       0.3649
     47  OE1       18.5500   11.5050    6.7020 O.co2  81  GLU81      -0.2457
     48  OE2       20.2820   10.1820    6.8780 O.co2  81  GLU81      -0.2457
     49  N         16.3070    9.7060   20.5170 N.3   165  PHE165     -0.1227
     50  CA        17.3040    9.6380   19.4250 C.3   165  PHE165      0.1736
     51  C         18.7340    9.6980   19.9880 C.2   165  PHE165      0.2595
     52  O         19.6560    9.0390   19.4780 O.2   165  PHE165     -0.2718
     53  CB        17.1470   10.7790   18.4220 C.3   165  PHE165      0.0547
     54  CG        15.7570   10.9300   17.8360 C.ar  165  PHE165     -0.0202
     55  CD1       15.3210   12.1990   17.4000 C.ar  165  PHE165     -0.0042
     56  CD2       14.9020    9.8360   17.6780 C.ar  165  PHE165     -0.0042
     57  CE1       14.0360   12.3820   16.8120 C.ar  165  PHE165     -0.0003
     58  CE2       13.5980   10.0010   17.0980 C.ar  165  PHE165     -0.0003
     59  CZ        13.1650   11.2780   16.6720 C.ar  165  PHE165     -0.0000
     60  N         18.8870   10.4890   21.0520 N.am  166  VAL166     -0.1980
     61  CA        20.1730   10.7900   21.6820 C.3   166  VAL166      0.1595
     62  C         20.5890    9.7180   22.7050 C.2   166  VAL166      0.2287
     63  O         21.7220    9.2100   22.6330 O.2   166  VAL166     -0.2864
     64  CB        20.2060   12.2750   22.2590 C.3   166  VAL166      0.0276
     65  CG1       21.3550   12.5060   23.2500 C.3   166  VAL166      0.0022
     66  CG2       20.2610   13.3180   21.0940 C.3   166  VAL166      0.0022
     67  N         18.9330    6.3270   23.6740 N.3   168  PRO168     -0.2116
     68  CA        17.8610    5.3340   23.6530 C.3   168  PRO168      0.1372
     69  C         18.1450    4.1940   24.6350 C.2   168  PRO168      0.2244
     70  O         19.2850    3.7420   24.7390 O.2   168  PRO168     -0.2868
     71  CB        17.8490    4.8410   22.1900 C.3   168  PRO168      0.0268
     72  CG        18.9060    5.6620   21.4480 C.3   168  PRO168      0.0207
     73  CD        19.8350    6.1680   22.5190 C.3   168  PRO168      0.0892
     74  N         14.1640    4.3270   19.7980 N.3   174  ALA174     -0.1245
     75  CA        14.5090    5.3320   18.8130 C.3   174  ALA174      0.1562
     76  C         13.6830    5.2120   17.5120 C.2   174  ALA174      0.2260
     77  O         13.2670    6.2340   16.9500 O.2   174  ALA174     -0.2867
     78  CB        16.0160    5.3180   18.5240 C.3   174  ALA174      0.0290
     79  N         10.8450    7.7780   16.0770 N.3   178  MET178     -0.1245
     80  CA        10.9320    8.2370   14.6930 C.3   178  MET178      0.1570
     81  C          9.5840    8.1700   13.9760 C.2   178  MET178      0.2261
     82  O          9.1770    9.1530   13.3180 O.2   178  MET178     -0.2867
     83  CB        11.9730    7.4520   13.8860 C.3   178  MET178      0.0387
     84  CG        13.3990    8.0200   13.9760 C.3   178  MET178      0.0595
     85  SD        14.3950    7.2370   12.6970 S.3   178  MET178     -0.1393
     86  CE        15.8540    6.8370   13.6800 C.3   178  MET178      0.0692
     87  N         11.4000   17.9440    9.3730 N.3   225  HIS225     -0.1226
     88  CA        12.0550   17.1680   10.3710 C.3   225  HIS225      0.1752
     89  C         13.5070   17.6200   10.5940 C.2   225  HIS225      0.2595
     90  O         13.9660   17.7660   11.7570 O.2   225  HIS225     -0.2718
     91  CB        12.0100   15.7120    9.8990 C.3   225  HIS225      0.0759
     92  CG        12.9650   14.8200   10.6160 C.ar  225  HIS225      0.0818
     93  ND1       14.1890   14.4560   10.0900 N.ar  225  HIS225     -0.2268
     94  CD2       12.8940   14.2530   11.8420 C.ar  225  HIS225      0.1154
     95  CE1       14.8130   13.6730   10.9500 C.ar  225  HIS225      0.1986
     96  NE2       14.0520   13.5410   12.0240 N.ar  225  HIS225     -0.2212
     97  N         14.2520   17.8010    9.4960 N.am  226  ILE226     -0.1980
     98  CA        15.6790   18.1760    9.6230 C.3   226  ILE226      0.1595
     99  C         15.7880   19.5390   10.3200 C.2   226  ILE226      0.2287
    100  O         16.5800   19.7080   11.2570 O.2   226  ILE226     -0.2864
    101  CB        16.4400   18.0900    8.2430 C.3   226  ILE226      0.0276
    102  CG1       17.9400   17.8600    8.4830 C.3   226  ILE226      0.0022
    103  CG2       16.2170   19.3670    7.3810 C.3   226  ILE226      0.0022
    104  CD1       18.2180   16.3990    8.8510 C.3   226  ILE226      0.0001
    105  N         14.6940   19.0770   14.2100 N.3   229  VAL229     -0.1231
    106  CA        15.5880   18.2130   15.0040 C.3   229  VAL229      0.1692
    107  C         17.0130   18.7150   15.2070 C.2   229  VAL229      0.2591
    108  O         17.5860   18.5400   16.3090 O.2   229  VAL229     -0.2718
    109  CB        15.5640   16.7630   14.5130 C.3   229  VAL229      0.0266
    110  CG1       16.6120   15.8590   15.2770 C.3   229  VAL229      0.0020
    111  CG2       14.1880   16.2460   14.7570 C.3   229  VAL229      0.0020
    112  N         17.5800   19.3490   14.1720 N.am  230  ALA230     -0.1980
    113  CA        18.9310   19.9790   14.2580 C.3   230  ALA230      0.1597
    114  C         19.3230   20.6710   15.5630 C.2   230  ALA230      0.2287
    115  O         20.3320   20.2570   16.1710 O.2   230  ALA230     -0.2864
    116  CB        19.2060   20.8740   13.1110 C.3   230  ALA230      0.0319
    117  N         19.4600   18.6850   19.1940 N.3   233  GLU233     -0.1231
    118  CA        20.6420   17.9210   19.5230 C.3   233  GLU233      0.1699
    119  C         21.8960   18.7770   19.5340 C.2   233  GLU233      0.2592
    120  O         22.9880   18.2770   19.8680 O.2   233  GLU233     -0.2718
    121  CB        20.8480   16.8230   18.4770 C.3   233  GLU233      0.0402
    122  CG        19.5900   15.9660   18.1860 C.3   233  GLU233      0.1161
    123  CD        19.9070   14.5820   17.5700 C.2   233  GLU233      0.3649
    124  OE1       21.1280   14.2660   17.4170 O.co2 233  GLU233     -0.2457
    125  OE2       18.9250   13.8290   17.2370 O.co2 233  GLU233     -0.2457
    126  N         21.8120   19.9970   19.0330 N.am  234  THR234     -0.1953
    127  CA        23.0560   20.7230   18.8870 C.3   234  THR234      0.1897
    128  C         23.0980   21.9800   19.7540 C.2   234  THR234      0.2313
    129  O         23.9360   22.0800   20.5990 O.2   234  THR234     -0.2863
    130  CB        23.3200   21.0800   17.4030 C.3   234  THR234      0.1794
    131  OG1       22.1730   21.7720   16.9020 O.3   234  THR234     -0.2208
    132  CG2       23.5750   19.8060   16.6280 C.3   234  THR234      0.0378
    133  N         28.8640   18.3720   18.2270 N.3   277  VAL277     -0.1245
    134  CA        28.9580   17.2880   17.1910 C.3   277  VAL277      0.1561
    135  C         30.3510   16.6640   17.2380 C.2   277  VAL277      0.2260
    136  O         31.3280   17.2710   16.7930 O.2   277  VAL277     -0.2867
    137  CB        28.6030   17.8090   15.7750 C.3   277  VAL277      0.0252
    138  CG1       28.5450   16.6300   14.7970 C.3   277  VAL277      0.0019
    139  CG2       27.2320   18.4810   15.8270 C.3   277  VAL277      0.0019
    140  N         27.9470   13.4260   10.3370 N.3   281  THR281     -0.1203
    141  CA        26.9540   12.4170    9.9510 C.3   281  THR281      0.1994
    142  C         27.5330   11.5420    8.8320 C.2   281  THR281      0.2617
    143  O         28.5630   11.8850    8.2110 O.2   281  THR281     -0.2717
    144  CB        25.6200   13.0480    9.5170 C.3   281  THR281      0.1784
    145  OG1       25.8270   13.9130    8.3880 O.3   281  THR281     -0.2211
    146  CG2       24.9850   13.8140   10.7190 C.3   281  THR281      0.0376
    147  N         26.8530   10.4450    8.5540 N.am  282  TYR282     -0.1975
    148  CA        27.4040    9.3110    7.7710 C.3   282  TYR282      0.1639
    149  C         27.7870    9.7550    6.3870 C.2   282  TYR282      0.2290
    150  O         27.0090   10.4310    5.6840 O.2   282  TYR282     -0.2864
    151  CB        26.3390    8.2230    7.6400 C.3   282  TYR282      0.0560
    152  CG        26.1590    7.3430    8.8630 C.ar  282  TYR282     -0.0198
    153  CD1       26.7040    7.6950   10.0950 C.ar  282  TYR282     -0.0009
    154  CD2       25.4110    6.1640    8.7810 C.ar  282  TYR282     -0.0009
    155  CE1       26.5370    6.8870   11.2200 C.ar  282  TYR282      0.0417
    156  CE2       25.2590    5.3130    9.9230 C.ar  282  TYR282      0.0417
    157  CZ        25.8230    5.7090   11.1170 C.ar  282  TYR282      0.1957
    158  OH        25.6960    4.9340   12.2160 O.3   282  TYR282     -0.2866
    159  N         26.7930   23.7600    8.1050 N.3   341  CYS341     -0.1235
    160  CA        25.5910   24.1160    8.8720 C.3   341  CYS341      0.1677
    161  C         24.8320   25.3390    8.3560 C.2   341  CYS341      0.2270
    162  O         25.3130   26.4370    8.4280 O.2   341  CYS341     -0.2867
    163  CB        25.9670   24.3730   10.3800 C.3   341  CYS341      0.0956
    164  SG        24.4410   24.5860   11.3150 S.3   341  CYS341     -0.0801
    165  N         26.6210    8.4330   23.9380 N.3   379  ASN379     -0.1226
    166  CA        26.3550    8.5910   22.4830 C.3   379  ASN379      0.1770
    167  C         27.6180    8.6640   21.5810 C.2   379  ASN379      0.2439
    168  O         28.6730    9.1020   22.0320 O.2   379  ASN379     -0.2733
    169  CB        25.4040    9.7970   22.2390 C.3   379  ASN379      0.1168
    170  CG        24.8780    9.8730   20.7810 C.2   379  ASN379      0.2627
    171  OD1       25.6220   10.1440   19.8590 O.2   379  ASN379     -0.2716
    172  ND2       23.5970    9.6290   20.5930 N.am  379  ASN379     -0.0877
    173  N         27.4970    8.2480   20.2850 N.am  380  PRO380     -0.2718
    174  CA        28.6930    8.3440   19.3810 C.3   380  PRO380      0.1535
    175  C         28.9050    9.7100   18.6830 C.2   380  PRO380      0.2598
    176  O         29.9990   10.2980   18.7830 O.2   380  PRO380     -0.2715
    177  CB        28.4240    7.2480   18.3120 C.3   380  PRO380      0.0310
    178  CG        26.8300    7.1600   18.2420 C.3   380  PRO380      0.0237
    179  CD        26.3240    7.5960   19.6250 C.3   380  PRO380      0.0939
    180  N         27.8720   10.1430   17.9500 N.am  381  MET381     -0.1964
    181  CA        27.8260   11.3840   17.2140 C.3   381  MET381      0.1736
    182  C         27.9310   12.6030   18.1290 C.2   381  MET381      0.2616
    183  O         28.5450   13.5820   17.7670 O.2   381  MET381     -0.2715
    184  CB        26.4720   11.5120   16.4750 C.3   381  MET381      0.0427
    185  CG        26.3650   11.0640   15.0080 C.3   381  MET381      0.0599
    186  SD        24.8200   11.7080   14.3120 S.3   381  MET381     -0.1393
    187  CE        24.5860   10.6960   12.8470 C.3   381  MET381      0.0692
    188  N         27.2790   12.5400   19.2900 N.am  382  ILE382     -0.1977
    189  CA        26.8870   13.7190   20.0360 C.3   382  ILE382      0.1596
    190  C         27.3910   13.8020   21.4590 C.2   382  ILE382      0.2287
    191  O         27.1560   12.9040   22.2540 O.2   382  ILE382     -0.2864
    192  CB        25.3450   13.8730   20.0440 C.3   382  ILE382      0.0276
    193  CG1       24.8050   14.0120   18.6120 C.3   382  ILE382      0.0022
    194  CG2       24.8800   15.0830   20.9140 C.3   382  ILE382      0.0022
    195  CD1       25.1760   15.3610   17.9950 C.3   382  ILE382      0.0001
@<TRIPOS>BOND
     1     3     4    2
     2     3     2    1
     3     1     2    1
     4     2     5    1
     5    43    42    2
     6    42    41    1
     7     5     6    1
     8    41    40    1
     9    41    44    1
    10    21    20    1
    11     6     7   ar
    12     6     8   ar
    13    40    34   am
    14    44    45    1
    15     7     9   ar
    16    32    33    1
    17    35    34    2
    18    34    33    1
    19    20    19    1
    20    20    22    1
    21     8    11   ar
    22     8    10   ar
    23    33    36    1
    24    11    13   ar
    25    15    16    1
    26    19    16    1
    27     9    10   ar
    28    45    46    1
    29   150   149    2
    30    10    12   ar
    31    18    17    2
    32    16    17    1
    33    13    14   ar
    34    36    37    1
    35   149   148    1
    36    46    47   ar
    37    46    48   ar
    38    38    37    1
    39    26    25    2
    40    12    14   ar
    41    37    39    1
    42    25    24    1
    43   103   101    1
    44   151   148    1
    45   151   152    1
    46   148   147    1
    47   159   160    1
    48   143   142    2
    49   101   102    1
    50   101    98    1
    51   161   162    2
    52   161   160    1
    53   145   144    1
    54   102   104    1
    55   147   142   am
    56    24    27    1
    57    24    23    1
    58   154   152   ar
    59   154   156   ar
    60    27    28    1
    61   142   141    1
    62   152   153   ar
    63   160   163    1
    64    87    88    1
    65    97    98    1
    66    97    89   am
    67   144   141    1
    68   144   146    1
    69    30    29   ar
    70    98    99    1
    71    91    88    1
    72    91    92    1
    73   156   157   ar
    74   141   140    1
    75    93    92   ar
    76    93    95   ar
    77   153   155   ar
    78    28    29    1
    79    99   100    2
    80    88    89    1
    81   163   164    1
    82    29    31   ar
    83    89    90    2
    84    92    94   ar
    85    95    96   ar
    86   157   155   ar
    87   157   158    1
    88    94    96   ar
    89    85    86    1
    90    85    84    1
    91   187   186    1
    92   116   113    1
    93    82    81    2
    94    83    84    1
    95    83    80    1
    96    81    80    1
    97   112   113    1
    98   112   107   am
    99   105   106    1
   100   113   114    1
   101   186   185    1
   102   109   111    1
   103   109   106    1
   104   109   110    1
   105    80    79    1
   106   138   137    1
   107   106   107    1
   108   185   184    1
   109   107   108    2
   110   114   115    2
   111   137   139    1
   112   137   134    1
   113   184   181    1
   114   132   130    1
   115    59    57   ar
   116    59    58   ar
   117   136   135    2
   118    57    55   ar
   119   131   130    1
   120    77    76    2
   121    58    56   ar
   122   134   135    1
   123   134   133    1
   124   181   180    1
   125   181   182    1
   126   125   123   ar
   127    55    54   ar
   128   130   127    1
   129   124   123   ar
   130    76    75    1
   131   123   122    1
   132    56    54   ar
   133   183   182    2
   134    54    53    1
   135   180   175   am
   136   195   193    1
   137   182   188   am
   138   122   121    1
   139   178   177    1
   140   178   179    1
   141   177   174    1
   142    53    50    1
   143   121   118    1
   144    78    75    1
   145   193   192    1
   146   175   176    2
   147   175   174    1
   148    75    74    1
   149   127   126    1
   150   127   128    1
   151   126   119   am
   152   117   118    1
   153   188   189    1
   154   174   173    1
   155    50    51    1
   156    50    49    1
   157    52    51    2
   158   118   119    1
   159   119   120    2
   160   179   173    1
   161   128   129    2
   162   171   170    2
   163    51    60   am
   164   189   192    1
   165   189   190    1
   166   192   194    1
   167   173   167   am
   168   172   170   am
   169   170   169    1
   170    60    61    1
   171    66    64    1
   172    72    71    1
   173    72    73    1
   174   190   191    2
   175   167   168    2
   176   167   166    1
   177    61    64    1
   178    61    62    1
   179    71    68    1
   180   169   166    1
   181    64    65    1
   182   166   165    1
   183    73    67    1
   184    63    62    2
   185    68    67    1
   186    68    69    1
   187    69    70    2
