@<TRIPOS>MOLECULE
tmp/2wicA00.pdb
 135 131 0 0 0
SMALL
GASTEIGER

@<TRIPOS>ATOM
      1  N         25.3630   10.3610   59.7530 N.3    12  PRO12      -0.2102
      2  CA        25.3060   10.7560   61.1700 C.3    12  PRO12       0.1504
      3  C         23.9300   10.5390   61.7550 C.2    12  PRO12       0.2576
      4  O         22.9060   10.7870   61.0960 O.2    12  PRO12      -0.2718
      5  CB        25.6820   12.2530   61.1380 C.3    12  PRO12       0.0282
      6  CG        26.6160   12.3640   60.0130 C.3    12  PRO12       0.0208
      7  CD        25.9900   11.4190   58.9240 C.3    12  PRO12       0.0893
      8  N         23.8950   10.0250   62.9740 N.am   13  ASN13      -0.1961
      9  CA        22.6650    9.8430   63.7140 C.3    13  ASN13       0.1819
     10  C         21.6470    8.8490   63.1620 C.2    13  ASN13       0.2622
     11  O         20.4380    9.0460   63.3450 O.2    13  ASN13      -0.2715
     12  CB        21.9770   11.1960   63.9700 C.3    13  ASN13       0.1195
     13  CG        22.7600   12.0490   64.9560 C.2    13  ASN13       0.2630
     14  OD1       23.2270   13.1370   64.6080 O.2    13  ASN13      -0.2716
     15  ND2       22.9530   11.5210   66.1890 N.am   13  ASN13      -0.0877
     16  N         22.1350    7.7450   62.5860 N.am   14  SER14      -0.1936
     17  CA        21.2420    6.7750   61.9150 C.3    14  SER14       0.2055
     18  C         21.0450    5.5530   62.8020 C.2    14  SER14       0.2644
     19  O         20.1950    4.6980   62.5180 O.2    14  SER14      -0.2714
     20  CB        21.8020    6.4070   60.5270 C.3    14  SER14       0.2130
     21  OG        23.1370    5.9080   60.6190 O.3    14  SER14      -0.2179
     22  N         21.7900    5.5290   63.9090 N.am   15  GLY15      -0.1939
     23  CA        21.7200    4.4790   64.9370 C.3    15  GLY15       0.2014
     24  C         22.8790    3.4890   64.8860 C.2    15  GLY15       0.2639
     25  O         22.7630    2.4330   65.4310 O.2    15  GLY15      -0.2714
     26  N         24.0000    3.8180   64.2470 N.am   16  LYS16      -0.1963
     27  CA        25.1270    2.8420   64.1310 C.3    16  LYS16       0.1728
     28  C         25.6530    2.3180   65.4900 C.2    16  LYS16       0.2617
     29  O         25.7980    1.1050   65.7400 O.2    16  LYS16      -0.2715
     30  CB        26.2670    3.4710   63.3560 C.3    16  LYS16       0.0311
     31  CG        25.8860    3.9970   61.9180 C.3    16  LYS16       0.0038
     32  CD        27.0920    4.6080   61.2230 C.3    16  LYS16       0.0206
     33  CE        27.5700    5.8910   61.9240 C.3    16  LYS16       0.1093
     34  NZ        26.5670    6.9600   62.0050 N.3    16  LYS16      -0.1314
     35  N         25.9570    3.2520   66.3900 N.am   17  THR17      -0.1937
     36  CA        26.4690    2.8570   67.7060 C.3    17  THR17       0.2028
     37  C         25.4600    2.0830   68.5260 C.2    17  THR17       0.2642
     38  O         25.8300    1.1200   69.1860 O.2    17  THR17      -0.2714
     39  CB        26.9990    4.0770   68.4700 C.3    17  THR17       0.1808
     40  OG1       28.0180    4.6740   67.6520 O.3    17  THR17      -0.2208
     41  CG2       27.5830    3.6680   69.8640 C.3    17  THR17       0.0379
     42  N         24.1950    2.4740   68.4550 N.am   18  THR18      -0.1950
     43  CA        23.1390    1.7300   69.1070 C.3    18  THR18       0.1897
     44  C         23.1370    0.2830   68.6200 C.2    18  THR18       0.2313
     45  O         23.0920   -0.6770   69.4160 O.2    18  THR18      -0.2863
     46  CB        21.7580    2.3870   68.8400 C.3    18  THR18       0.1794
     47  OG1       21.7600    3.7440   69.2830 O.3    18  THR18      -0.2208
     48  CG2       20.6570    1.6290   69.5260 C.3    18  THR18       0.0378
     49  N         32.5790    0.1160   64.1500 N.3    44  ASP44      -0.1225
     50  CA        31.6470    1.2420   64.1800 C.3    44  ASP44       0.1805
     51  C         32.2680    2.4400   63.4630 C.2    44  ASP44       0.2598
     52  O         33.0740    3.1150   64.0170 O.2    44  ASP44      -0.2718
     53  CB        31.2940    1.5410   65.6560 C.3    44  ASP44       0.1424
     54  CG        30.2210    2.6210   65.8440 C.2    44  ASP44       0.3668
     55  OD1       29.6630    3.1840   64.8500 O.co2  44  ASP44      -0.2456
     56  OD2       29.9070    2.9070   67.0360 O.co2  44  ASP44      -0.2456
     57  N         31.8820    2.7530   62.2340 N.am   45  LEU45      -0.1966
     58  CA        32.5860    3.8120   61.5210 C.3    45  LEU45       0.1713
     59  C         31.9060    5.1720   61.7190 C.2    45  LEU45       0.2458
     60  O         30.6890    5.2300   61.9090 O.2    45  LEU45      -0.2730
     61  CB        32.6980    3.4840   60.0310 C.3    45  LEU45       0.0310
     62  CG        33.4070    2.1700   59.7000 C.3    45  LEU45       0.0022
     63  CD1       33.1990    1.8480   58.2420 C.3    45  LEU45       0.0001
     64  CD2       34.9170    2.2690   60.0710 C.3    45  LEU45       0.0001
     65  N         32.6960    6.2790   61.7090 N.am   46  PRO46      -0.2716
     66  CA        32.1210    7.6560   61.7940 C.3    46  PRO46       0.1536
     67  C         31.0720    7.9340   60.6870 C.2    46  PRO46       0.2599
     68  O         31.2850    7.5410   59.5320 O.2    46  PRO46      -0.2715
     69  CB        33.3630    8.5410   61.5940 C.3    46  PRO46       0.0310
     70  CG        34.4990    7.6940   62.2210 C.3    46  PRO46       0.0237
     71  CD        34.1800    6.3040   61.6960 C.3    46  PRO46       0.0939
     72  N         29.9790    8.6170   61.0240 N.am   47  GLY47      -0.1955
     73  CA        28.9110    8.8910   60.0420 C.3    47  GLY47       0.1869
     74  C         29.3480    9.7490   58.8920 C.2    47  GLY47       0.2309
     75  O         30.2940   10.5290   59.0150 O.2    47  GLY47      -0.2863
     76  N         31.4970   12.0740   61.4430 N.3    57  ASP57      -0.1239
     77  CA        32.8020   12.7360   61.5830 C.3    57  ASP57       0.1674
     78  C         33.8920   12.1320   60.6620 C.2    57  ASP57       0.2266
     79  O         34.9500   11.7100   61.1510 O.2    57  ASP57      -0.2867
     80  CB        33.2580   12.7140   63.0640 C.3    57  ASP57       0.1410
     81  CG        32.7200   13.8110   63.9140 C.2    57  ASP57       0.3668
     82  OD1       32.0560   14.7040   63.4320 O.co2  57  ASP57      -0.2456
     83  OD2       33.0640   13.7550   65.1640 O.co2  57  ASP57      -0.2456
     84  N         16.7200    1.0470   59.9540 N.3   104  ASN104     -0.1225
     85  CA        16.5920    1.3240   61.3810 C.3   104  ASN104      0.1785
     86  C         15.5460    2.4570   61.6090 C.2   104  ASN104      0.2597
     87  O         15.0370    3.0670   60.6410 O.2   104  ASN104     -0.2718
     88  CB        17.9700    1.7700   61.9180 C.3   104  ASN104      0.1169
     89  CG        18.0490    1.7660   63.4640 C.2   104  ASN104      0.2627
     90  OD1       18.6460    2.6650   64.0910 O.2   104  ASN104     -0.2716
     91  ND2       17.4490    0.7910   64.0540 N.am  104  ASN104     -0.0877
     92  N         15.2430    2.7460   62.8820 N.am  105  MET105     -0.1979
     93  CA        14.2900    3.8030   63.2420 C.3   105  MET105      0.1605
     94  C         12.8630    3.6410   62.5920 C.2   105  MET105      0.2287
     95  O         12.1960    4.6410   62.2330 O.2   105  MET105     -0.2864
     96  CB        14.8820    5.1460   62.8890 C.3   105  MET105      0.0413
     97  CG        16.1630    5.5090   63.6550 C.3   105  MET105      0.0598
     98  SD        17.0090    7.0460   63.2770 S.3   105  MET105     -0.1393
     99  CE        18.2610    6.7880   64.5840 C.3   105  MET105      0.0692
    100  N         10.1750    2.4930   63.9450 N.3   107  ASP107     -0.1225
    101  CA         9.2140    3.0600   64.9170 C.3   107  ASP107      0.1805
    102  C          8.9710    4.5550   64.6860 C.2   107  ASP107      0.2597
    103  O          7.8360    4.9930   64.7310 O.2   107  ASP107     -0.2718
    104  CB         9.7270    2.8240   66.3520 C.3   107  ASP107      0.1424
    105  CG        11.0590    3.4930   66.6200 C.2   107  ASP107      0.3668
    106  OD1       12.0330    3.3710   65.8330 O.co2 107  ASP107     -0.2456
    107  OD2       11.1600    4.1480   67.6480 O.co2 107  ASP107     -0.2456
    108  N         10.0200    5.3270   64.4370 N.am  108  ILE108     -0.1980
    109  CA         9.9120    6.7580   64.0700 C.3   108  ILE108      0.1595
    110  C          9.2390    6.9590   62.6920 C.2   108  ILE108      0.2287
    111  O          8.3600    7.8280   62.5240 O.2   108  ILE108     -0.2864
    112  CB        11.2940    7.4370   63.9760 C.3   108  ILE108      0.0276
    113  CG1       12.0600    7.2710   65.2780 C.3   108  ILE108      0.0022
    114  CG2       11.1410    8.9490   63.5690 C.3   108  ILE108      0.0022
    115  CD1       13.4350    7.9230   65.2300 C.3   108  ILE108      0.0001
    116  N         14.4150   -2.0220   64.8760 N.3   133  VAL133     -0.1231
    117  CA        14.3080   -0.9460   65.8540 C.3   133  VAL133      0.1692
    118  C         15.4300   -1.2510   66.8470 C.2   133  VAL133      0.2593
    119  O         15.2560   -2.0560   67.7390 O.2   133  VAL133     -0.2718
    120  CB        12.9210   -0.8590   66.5430 C.3   133  VAL133      0.0266
    121  CG1       12.8580    0.4340   67.4420 C.3   133  VAL133      0.0020
    122  CG2       11.7670   -0.8050   65.4670 C.3   133  VAL133      0.0020
    123  N         16.5810   -0.6220   66.6320 N.am  134  SER134     -0.1938
    124  CA        17.8260   -0.9780   67.3440 C.3   134  SER134      0.2055
    125  C         17.7670   -0.7290   68.8630 C.2   134  SER134      0.2643
    126  O         18.3610   -1.4750   69.6390 O.2   134  SER134     -0.2714
    127  CB        19.0070   -0.2570   66.7150 C.3   134  SER134      0.2130
    128  OG        19.2970   -0.8360   65.4270 O.3   134  SER134     -0.2179
    129  N         17.0340    0.2990   69.2730 N.am  135  THR135     -0.1950
    130  CA        16.8800    0.6220   70.7090 C.3   135  THR135      0.1897
    131  C         16.1060   -0.5080   71.3930 C.2   135  THR135      0.2313
    132  O         16.2770   -0.7350   72.6110 O.2   135  THR135     -0.2863
    133  CB        16.1520    1.9840   70.9130 C.3   135  THR135      0.1794
    134  OG1       15.0840    2.0860   69.9740 O.3   135  THR135     -0.2208
    135  CG2       17.0950    3.1470   70.7230 C.3   135  THR135      0.0378
@<TRIPOS>BOND
     1    63    62    1
     2    74    75    2
     3    74    73    1
     4     7     1    1
     5     7     6    1
     6    68    67    2
     7    62    61    1
     8    62    64    1
     9     1     2    1
    10    84    85    1
    11     6     5    1
    12    61    58    1
    13    73    72    1
    14    20    21    1
    15    20    17    1
    16    87    86    2
    17    78    79    2
    18    78    77    1
    19    67    72   am
    20    67    66    1
    21     4     3    2
    22     5     2    1
    23     2     3    1
    24    32    31    1
    25    32    33    1
    26    85    86    1
    27    85    88    1
    28    76    77    1
    29    58    59    1
    30    58    57    1
    31    77    80    1
    32    69    66    1
    33    69    70    1
    34    86    92   am
    35    71    65    1
    36    71    70    1
    37    65    59   am
    38    65    66    1
    39    59    60    2
    40     3     8   am
    41    17    16    1
    42    17    18    1
    43    88    89    1
    44    31    30    1
    45    33    34    1
    46    95    94    2
    47    57    51   am
    48    19    18    2
    49   111   110    2
    50    16    10   am
    51    94    93    1
    52   110   109    1
    53    18    22   am
    54    92    93    1
    55    96    93    1
    56    96    97    1
    57     8     9    1
    58    80    81    1
    59    10    11    2
    60    10     9    1
    61    98    97    1
    62    98    99    1
    63    30    27    1
    64    82    81   ar
    65    51    52    2
    66    51    50    1
    67    89    91   am
    68    89    90    2
    69   114   112    1
    70     9    12    1
    71    22    23    1
    72    81    83   ar
    73   100   101    1
    74    12    13    1
    75   112   109    1
    76   112   113    1
    77   109   108    1
    78    27    26    1
    79    27    28    1
    80    49    50    1
    81    50    53    1
    82    26    24   am
    83   108   102   am
    84    14    13    2
    85   102   103    2
    86   102   101    1
    87    55    54   ar
    88   116   117    1
    89    24    23    1
    90    24    25    2
    91   101   104    1
    92    13    15   am
    93   115   113    1
    94   128   127    1
    95   122   120    1
    96    28    29    2
    97    28    35   am
    98    53    54    1
    99   106   105   ar
   100    54    56   ar
   101   117   120    1
   102   117   118    1
   103   104   105    1
   104    35    36    1
   105   120   121    1
   106   105   107   ar
   107   123   118   am
   108   123   124    1
   109   127   124    1
   110   118   119    2
   111   124   125    1
   112    40    39    1
   113    36    39    1
   114    36    37    1
   115    42    37   am
   116    42    43    1
   117    39    41    1
   118    37    38    2
   119    44    43    1
   120    44    45    2
   121    46    43    1
   122    46    47    1
   123    46    48    1
   124   125   129   am
   125   125   126    2
   126   129   130    1
   127   134   133    1
   128   130   133    1
   129   130   131    1
   130   135   133    1
   131   131   132    2
