@<TRIPOS>MOLECULE
tmp/2widA00.pdb
 136 136 0 0 0
SMALL
GASTEIGER

@<TRIPOS>ATOM
      1  N        -27.6250  -40.2320  -26.8590 N.3    80  TRP80      -0.1241
      2  CA       -26.2270  -39.7960  -27.1890 C.3    80  TRP80       0.1605
      3  C        -25.6940  -40.4230  -28.4650 C.2    80  TRP80       0.2264
      4  O        -24.6700  -39.9780  -29.0220 O.2    80  TRP80      -0.2867
      5  CB       -25.2570  -40.0970  -26.0210 C.3    80  TRP80       0.0550
      6  CG       -25.7090  -39.4260  -24.7810 C.ar   80  TRP80       0.0003
      7  CD1      -26.2940  -40.0050  -23.6890 C.ar   80  TRP80       0.0946
      8  CD2      -25.6540  -38.0150  -24.5090 C.ar   80  TRP80       0.0152
      9  NE1      -26.5920  -39.0400  -22.7490 N.ar   80  TRP80      -0.2442
     10  CE2      -26.2170  -37.8130  -23.2380 C.ar   80  TRP80       0.0810
     11  CE3      -25.1460  -36.9100  -25.2100 C.ar   80  TRP80       0.0012
     12  CZ2      -26.3010  -36.5500  -22.6550 C.ar   80  TRP80       0.0191
     13  CZ3      -25.2430  -35.6560  -24.6420 C.ar   80  TRP80       0.0001
     14  CH2      -25.8130  -35.4860  -23.3710 C.ar   80  TRP80       0.0015
     15  N        -18.6990  -33.4430  -27.4100 N.3   113  GLY113     -0.1210
     16  CA       -17.8930  -34.5190  -26.8900 C.3   113  GLY113      0.1956
     17  C        -18.2480  -35.9270  -27.3970 C.2   113  GLY113      0.2612
     18  O        -18.9870  -36.1110  -28.4120 O.2   113  GLY113     -0.2717
     19  N        -17.6590  -36.9150  -26.7300 N.am  114  GLY114     -0.1942
     20  CA       -17.6580  -38.2610  -27.2470 C.3   114  GLY114      0.2014
     21  C        -16.3290  -39.0090  -27.1060 C.2   114  GLY114      0.2639
     22  O        -16.0780  -39.9600  -27.8360 O.2   114  GLY114     -0.2714
     23  N        -15.4630  -38.5690  -26.1920 N.am  115  GLY115     -0.1954
     24  CA       -14.1630  -39.2210  -25.9820 C.3   115  GLY115      0.1869
     25  C        -13.2480  -39.1250  -27.1900 C.2   115  GLY115      0.2309
     26  O        -12.3050  -39.8570  -27.2960 O.2   115  GLY115     -0.2863
     27  N        -28.1510  -30.5990  -28.9750 N.3   126  TYR126     -0.1241
     28  CA       -27.2660  -29.5660  -29.5780 C.3   126  TYR126      0.1605
     29  C        -27.9700  -28.6360  -30.5570 C.2   126  TYR126      0.2264
     30  O        -27.3370  -27.9220  -31.3190 O.2   126  TYR126     -0.2867
     31  CB       -26.1000  -30.1900  -30.3530 C.3   126  TYR126      0.0534
     32  CG       -25.3070  -31.2190  -29.5770 C.ar  126  TYR126     -0.0201
     33  CD1      -25.1620  -31.1220  -28.1840 C.ar  126  TYR126     -0.0009
     34  CD2      -24.6350  -32.2680  -30.2410 C.ar  126  TYR126     -0.0009
     35  CE1      -24.3980  -32.0920  -27.4630 C.ar  126  TYR126      0.0417
     36  CE2      -23.8620  -33.2270  -29.5150 C.ar  126  TYR126      0.0417
     37  CZ       -23.7510  -33.1130  -28.1420 C.ar  126  TYR126      0.1957
     38  OH       -22.9970  -34.0260  -27.4350 O.3   126  TYR126     -0.2866
     39  N        -18.5290  -29.5500  -24.7480 N.3   195  GLU195     -0.1231
     40  CA       -18.5960  -30.3380  -23.5090 C.3   195  GLU195      0.1699
     41  C        -17.7100  -31.5820  -23.5870 C.2   195  GLU195      0.2593
     42  O        -17.4990  -32.1290  -24.6770 O.2   195  GLU195     -0.2718
     43  CB       -20.0570  -30.6790  -23.1580 C.3   195  GLU195      0.0402
     44  CG       -20.2920  -31.3900  -21.8170 C.3   195  GLU195      0.1161
     45  CD       -20.3830  -32.8990  -21.9270 C.2   195  GLU195      0.3649
     46  OE1      -20.3410  -33.4080  -23.0880 O.co2 195  GLU195     -0.2457
     47  OE2      -20.5400  -33.5680  -20.8680 O.co2 195  GLU195     -0.2457
     48  N        -17.1470  -32.0020  -22.4480 N.am  196  SER196     -0.1938
     49  CA       -16.3580  -33.2360  -22.3830 C.3   196  SER196      0.2055
     50  C        -15.2130  -33.1390  -23.3880 C.2   196  SER196      0.2642
     51  O        -14.4050  -32.2080  -23.3040 O.2   196  SER196     -0.2714
     52  CB       -17.2610  -34.4350  -22.6770 C.3   196  SER196      0.2130
     53  OG       -16.8080  -35.6110  -22.0090 O.3   196  SER196     -0.2179
     54  N        -15.1220  -34.0540  -24.3620 N.am  197  ALA197     -0.1977
     55  CA       -14.0270  -33.9710  -25.2970 C.3   197  ALA197      0.1597
     56  C        -14.1650  -32.7280  -26.1760 C.2   197  ALA197      0.2287
     57  O        -13.1690  -32.2630  -26.7970 O.2   197  ALA197     -0.2864
     58  CB       -13.9390  -35.2250  -26.1610 C.3   197  ALA197      0.0319
     59  N         -7.6810  -38.2630  -19.4810 N.3   229  TRP229     -0.1241
     60  CA        -8.0990  -38.9550  -20.7160 C.3   229  TRP229      0.1605
     61  C         -7.8750  -38.1450  -21.9840 C.2   229  TRP229      0.2264
     62  O         -8.2290  -38.6160  -23.0440 O.2   229  TRP229     -0.2867
     63  CB        -9.5990  -39.2890  -20.6490 C.3   229  TRP229      0.0550
     64  CG       -10.4520  -38.1540  -20.1440 C.ar  229  TRP229      0.0003
     65  CD1      -10.9100  -37.9830  -18.8510 C.ar  229  TRP229      0.0946
     66  CD2      -10.9490  -37.0300  -20.8850 C.ar  229  TRP229      0.0152
     67  NE1      -11.6460  -36.8300  -18.7510 N.ar  229  TRP229     -0.2442
     68  CE2      -11.6860  -36.2220  -19.9830 C.ar  229  TRP229      0.0810
     69  CE3      -10.8450  -36.6170  -22.2250 C.ar  229  TRP229      0.0012
     70  CZ2      -12.3290  -35.0200  -20.3830 C.ar  229  TRP229      0.0191
     71  CZ3      -11.5010  -35.3890  -22.6230 C.ar  229  TRP229      0.0001
     72  CH2      -12.2040  -34.6270  -21.7050 C.ar  229  TRP229      0.0015
     73  N        -13.9990  -47.4110  -19.0340 N.3   283  PRO283     -0.2102
     74  CA       -15.1580  -46.6980  -19.5900 C.3   283  PRO283      0.1504
     75  C        -14.8240  -45.2450  -19.9500 C.2   283  PRO283      0.2576
     76  O        -15.6570  -44.5070  -20.5070 O.2   283  PRO283     -0.2718
     77  CB       -16.1620  -46.7210  -18.4350 C.3   283  PRO283      0.0282
     78  CG       -15.7490  -47.9540  -17.6110 C.3   283  PRO283      0.0208
     79  CD       -14.2600  -47.9600  -17.6890 C.3   283  PRO283      0.0893
     80  N        -13.6160  -44.8220  -19.6100 N.am  284  LEU284     -0.1966
     81  CA       -13.1590  -43.4990  -20.0080 C.3   284  LEU284      0.1728
     82  C        -11.9910  -43.5540  -21.0030 C.2   284  LEU284      0.2617
     83  O        -11.3820  -42.5500  -21.3040 O.2   284  LEU284     -0.2715
     84  CB       -12.7870  -42.7040  -18.7910 C.3   284  LEU284      0.0311
     85  CG       -14.0350  -42.2190  -18.1000 C.3   284  LEU284      0.0022
     86  CD1      -14.2670  -43.1040  -16.9090 C.3   284  LEU284      0.0001
     87  CD2      -13.8090  -40.7820  -17.6790 C.3   284  LEU284      0.0001
     88  N        -11.7130  -44.7510  -21.5050 N.am  285  SER285     -0.1936
     89  CA       -10.6930  -44.9990  -22.5130 C.3   285  SER285      0.2055
     90  C        -10.8470  -44.0950  -23.7130 C.2   285  SER285      0.2642
     91  O        -11.9190  -43.9950  -24.2940 O.2   285  SER285     -0.2714
     92  CB       -10.8440  -46.4400  -23.0200 C.3   285  SER285      0.2130
     93  OG        -9.8770  -47.2760  -22.4330 O.3   285  SER285     -0.2179
     94  N         -9.7650  -43.4490  -24.0880 N.am  286  VAL286     -0.1977
     95  CA        -9.7220  -42.7020  -25.3290 C.3   286  VAL286      0.1596
     96  C         -8.6230  -43.3560  -26.1490 C.2   286  VAL286      0.2287
     97  O         -7.4770  -42.9490  -26.0850 O.2   286  VAL286     -0.2864
     98  CB        -9.4180  -41.1950  -25.0730 C.3   286  VAL286      0.0276
     99  CG1       -8.9930  -40.4980  -26.3140 C.3   286  VAL286      0.0022
    100  CG2      -10.6400  -40.5220  -24.4950 C.3   286  VAL286      0.0022
    101  N        -20.5080  -43.2440  -15.2440 N.3   327  PHE327     -0.1241
    102  CA       -19.5490  -44.2270  -15.7330 C.3   327  PHE327      0.1605
    103  C        -19.5300  -45.5140  -14.9600 C.2   327  PHE327      0.2264
    104  O        -19.0130  -46.5370  -15.4440 O.2   327  PHE327     -0.2867
    105  CB       -18.1590  -43.6130  -15.8550 C.3   327  PHE327      0.0534
    106  CG       -18.1720  -42.3700  -16.6570 C.ar  327  PHE327     -0.0203
    107  CD1      -18.3690  -41.1310  -16.0420 C.ar  327  PHE327     -0.0042
    108  CD2      -18.0800  -42.4290  -18.0310 C.ar  327  PHE327     -0.0042
    109  CE1      -18.4170  -39.9730  -16.7920 C.ar  327  PHE327     -0.0003
    110  CE2      -18.1400  -41.2670  -18.7760 C.ar  327  PHE327     -0.0003
    111  CZ       -18.2980  -40.0390  -18.1430 C.ar  327  PHE327     -0.0000
    112  N        -12.7190  -35.1450  -14.2330 N.3   396  PHE396     -0.1241
    113  CA       -13.2900  -33.8690  -14.6820 C.3   396  PHE396      0.1605
    114  C        -13.0230  -32.6180  -13.8010 C.2   396  PHE396      0.2264
    115  O        -12.5970  -31.5400  -14.2940 O.2   396  PHE396     -0.2867
    116  CB       -14.7940  -34.0390  -14.8390 C.3   396  PHE396      0.0534
    117  CG       -15.1600  -35.1550  -15.7730 C.ar  396  PHE396     -0.0203
    118  CD1      -15.4360  -36.4300  -15.2750 C.ar  396  PHE396     -0.0042
    119  CD2      -15.1530  -34.9390  -17.1540 C.ar  396  PHE396     -0.0042
    120  CE1      -15.7690  -37.4880  -16.1380 C.ar  396  PHE396     -0.0003
    121  CE2      -15.4750  -35.9920  -18.0340 C.ar  396  PHE396     -0.0003
    122  CZ       -15.7700  -37.2850  -17.5190 C.ar  396  PHE396     -0.0000
    123  N        -22.9870  -36.1470  -15.5690 N.3   436  HIS436     -0.1226
    124  CA       -22.2470  -35.6840  -16.7070 C.3   436  HIS436      0.1752
    125  C        -23.1840  -35.6360  -17.9230 C.2   436  HIS436      0.2596
    126  O        -23.9260  -36.6140  -18.1910 O.2   436  HIS436     -0.2718
    127  CB       -21.1310  -36.7060  -16.9570 C.3   436  HIS436      0.0759
    128  CG       -20.2550  -36.3760  -18.1310 C.ar  436  HIS436      0.0818
    129  ND1      -19.3300  -35.3580  -18.0990 N.ar  436  HIS436     -0.2268
    130  CD2      -20.1410  -36.9490  -19.3550 C.ar  436  HIS436      0.1154
    131  CE1      -18.7070  -35.2960  -19.2640 C.ar  436  HIS436      0.1986
    132  NE2      -19.1580  -36.2680  -20.0320 N.ar  436  HIS436     -0.2212
    133  N        -23.1460  -34.5030  -18.6370 N.am  437  GLY437     -0.1957
    134  CA       -23.7890  -34.3470  -19.9300 C.3   437  GLY437      0.1869
    135  C        -25.0900  -33.5710  -19.8400 C.2   437  GLY437      0.2309
    136  O        -25.5880  -33.0790  -20.8600 O.2   437  GLY437     -0.2863
@<TRIPOS>BOND
     1    30    29    2
     2    29    28    1
     3    31    28    1
     4    31    32    1
     5    34    32   ar
     6    34    36   ar
     7    28    27    1
     8    32    33   ar
     9    36    37   ar
    10     4     3    2
    11     3     2    1
    12    18    17    2
    13    33    35   ar
    14    37    35   ar
    15    37    38    1
    16    22    21    2
    17    15    16    1
    18    17    16    1
    19    17    19   am
    20    26    25    2
    21    20    21    1
    22    20    19    1
    23    25    24    1
    24     2     1    1
    25     2     5    1
    26    21    23   am
    27    57    56    2
    28    99    98    1
    29    23    24    1
    30    56    55    1
    31    58    55    1
    32    96    97    2
    33    96    95    1
    34     5     6    1
    35    95    98    1
    36    95    94    1
    37    55    54    1
    38    11    13   ar
    39    11     8   ar
    40    98   100    1
    41     6     8   ar
    42     6     7   ar
    43    39    40    1
    44    42    41    2
    45    13    14   ar
    46     8    10   ar
    47    54    50   am
    48    91    90    2
    49    94    90   am
    50    90    89    1
    51     7     9   ar
    52    41    40    1
    53    41    48   am
    54    40    43    1
    55    50    51    2
    56    50    49    1
    57    14    12   ar
    58    10     9   ar
    59    10    12   ar
    60    43    44    1
    61    46    45   ar
    62    62    61    2
    63    92    89    1
    64    92    93    1
    65    52    49    1
    66    52    53    1
    67    71    69   ar
    68    71    72   ar
    69    89    88    1
    70    48    49    1
    71    69    66   ar
    72    61    60    1
    73    45    44    1
    74    45    47   ar
    75    72    70   ar
    76    88    82   am
    77    83    82    2
    78    82    81    1
    79    66    64   ar
    80    66    68   ar
    81   136   135    2
    82    60    63    1
    83    60    59    1
    84    63    64    1
    85    76    75    2
    86    70    68   ar
    87    64    65   ar
    88   132   130   ar
    89   132   131   ar
    90    81    80    1
    91    81    84    1
    92    68    67   ar
    93    75    80   am
    94    75    74    1
    95   134   135    1
    96   134   133    1
    97    74    73    1
    98    74    77    1
    99   130   128   ar
   100   131   129   ar
   101    73    79    1
   102    65    67   ar
   103    84    85    1
   104   110   111   ar
   105   110   108   ar
   106   133   125   am
   107    77    78    1
   108   126   125    2
   109   111   109   ar
   110   128   129   ar
   111   128   127    1
   112    85    87    1
   113    85    86    1
   114   121   122   ar
   115   121   119   ar
   116   108   106   ar
   117   125   124    1
   118    79    78    1
   119   122   120   ar
   120   119   117   ar
   121   127   124    1
   122   109   107   ar
   123   124   123    1
   124   106   107   ar
   125   106   105    1
   126   120   118   ar
   127   105   102    1
   128   117   118   ar
   129   117   116    1
   130   102   101    1
   131   102   103    1
   132   104   103    2
   133   116   113    1
   134   113   112    1
   135   113   114    1
   136   115   114    2
