@<TRIPOS>MOLECULE
tmp/2wifA00.pdb
 102 101 0 0 0
SMALL
GASTEIGER

@<TRIPOS>ATOM
      1  N        -17.6510  -36.6710  -26.5580 N.3   114  GLY114     -0.1210
      2  CA       -17.7200  -38.0220  -26.9390 C.3   114  GLY114      0.1956
      3  C        -16.3830  -38.7400  -26.8680 C.2   114  GLY114      0.2612
      4  O        -16.0950  -39.6660  -27.6820 O.2   114  GLY114     -0.2717
      5  N        -15.5010  -38.2610  -25.9860 N.am  115  GLY115     -0.1956
      6  CA       -14.2290  -38.9660  -25.8090 C.3   115  GLY115      0.1869
      7  C        -13.3490  -38.8760  -27.0350 C.2   115  GLY115      0.2309
      8  O        -12.4750  -39.6240  -27.1530 O.2   115  GLY115     -0.2863
      9  N        -18.4600  -29.3650  -24.7630 N.3   195  GLU195     -0.1231
     10  CA       -18.5920  -30.1240  -23.5560 C.3   195  GLU195      0.1699
     11  C        -17.7050  -31.3670  -23.5880 C.2   195  GLU195      0.2593
     12  O        -17.5460  -31.9990  -24.6270 O.2   195  GLU195     -0.2718
     13  CB       -20.0830  -30.4000  -23.2350 C.3   195  GLU195      0.0402
     14  CG       -20.3220  -31.1550  -21.8520 C.3   195  GLU195      0.1161
     15  CD       -20.2720  -32.6850  -21.9350 C.2   195  GLU195      0.3649
     16  OE1      -20.1230  -33.1360  -23.0910 O.co2 195  GLU195     -0.2457
     17  OE2      -20.4340  -33.4240  -20.8660 O.co2 195  GLU195     -0.2457
     18  N        -17.0310  -31.6620  -22.4740 N.am  196  SER196     -0.1938
     19  CA       -16.2580  -32.8990  -22.2940 C.3   196  SER196      0.2055
     20  C        -15.1360  -32.8980  -23.3050 C.2   196  SER196      0.2639
     21  O        -14.2630  -31.9950  -23.2540 O.2   196  SER196     -0.2714
     22  CB       -17.1590  -34.1430  -22.4010 C.3   196  SER196      0.2130
     23  OG       -16.5340  -35.3290  -21.8400 O.3   196  SER196     -0.2179
     24  N        -15.0690  -33.8790  -24.2170 N.am  197  ALA197     -0.2030
     25  CA       -13.9410  -33.8280  -25.1520 C.3   197  ALA197      0.1283
     26  C        -14.0730  -32.6110  -26.0110 C.3   197  ALA197      0.2036
     27  O        -13.0850  -32.1700  -26.7110 O.3   197  ALA197     -0.2185
     28  CB       -13.9140  -35.1060  -26.0680 C.3   197  ALA197      0.0262
     29  N         -7.6090  -38.0770  -19.4950 N.3   229  TRP229     -0.1241
     30  CA        -8.0200  -38.7770  -20.7200 C.3   229  TRP229      0.1605
     31  C         -7.7560  -37.9600  -21.9560 C.2   229  TRP229      0.2264
     32  O         -8.1050  -38.3930  -22.9950 O.2   229  TRP229     -0.2867
     33  CB        -9.5270  -39.0720  -20.6650 C.3   229  TRP229      0.0550
     34  CG       -10.3620  -37.8800  -20.1940 C.ar  229  TRP229      0.0003
     35  CD1      -10.8210  -37.6950  -18.9170 C.ar  229  TRP229      0.0946
     36  CD2      -10.8740  -36.7640  -20.9490 C.ar  229  TRP229      0.0152
     37  NE1      -11.5370  -36.5580  -18.8230 N.ar  229  TRP229     -0.2442
     38  CE2      -11.5970  -35.9520  -20.0450 C.ar  229  TRP229      0.0810
     39  CE3      -10.8240  -36.3760  -22.2980 C.ar  229  TRP229      0.0012
     40  CZ2      -12.2600  -34.7440  -20.4400 C.ar  229  TRP229      0.0191
     41  CZ3      -11.4670  -35.1650  -22.6990 C.ar  229  TRP229      0.0001
     42  CH2      -12.1700  -34.3750  -21.7700 C.ar  229  TRP229      0.0015
     43  N        -14.0010  -47.3870  -18.9310 N.3   283  PRO283     -0.2102
     44  CA       -15.1480  -46.7120  -19.5200 C.3   283  PRO283      0.1504
     45  C        -14.7810  -45.2930  -19.9770 C.2   283  PRO283      0.2576
     46  O        -15.6250  -44.5650  -20.5500 O.2   283  PRO283     -0.2718
     47  CB       -16.1030  -46.6030  -18.3440 C.3   283  PRO283      0.0282
     48  CG       -15.6380  -47.8220  -17.4080 C.3   283  PRO283      0.0208
     49  CD       -14.1940  -47.7390  -17.5080 C.3   283  PRO283      0.0893
     50  N        -13.5790  -44.8450  -19.6350 N.am  284  LEU284     -0.1966
     51  CA       -13.1910  -43.4970  -19.9510 C.3   284  LEU284      0.1728
     52  C        -12.0160  -43.4670  -20.9160 C.2   284  LEU284      0.2617
     53  O        -11.4150  -42.4420  -21.1420 O.2   284  LEU284     -0.2715
     54  CB       -12.8440  -42.7780  -18.6970 C.3   284  LEU284      0.0311
     55  CG       -14.0470  -42.1840  -18.0030 C.3   284  LEU284      0.0022
     56  CD1      -14.0600  -42.6880  -16.5850 C.3   284  LEU284      0.0001
     57  CD2      -13.8660  -40.7020  -18.1020 C.3   284  LEU284      0.0001
     58  N        -11.7610  -44.6060  -21.5430 N.am  285  SER285     -0.1936
     59  CA       -10.6670  -44.7900  -22.5000 C.3   285  SER285      0.2055
     60  C        -10.7440  -43.8570  -23.6810 C.2   285  SER285      0.2642
     61  O        -11.7770  -43.7020  -24.2940 O.2   285  SER285     -0.2714
     62  CB       -10.7370  -46.2450  -23.0190 C.3   285  SER285      0.2130
     63  OG        -9.8720  -47.0570  -22.2410 O.3   285  SER285     -0.2179
     64  N         -9.6360  -43.2540  -24.0380 N.am  286  VAL286     -0.1977
     65  CA        -9.6050  -42.4620  -25.2260 C.3   286  VAL286      0.1596
     66  C         -8.5020  -43.0410  -26.1050 C.2   286  VAL286      0.2287
     67  O         -7.3780  -42.5950  -26.0710 O.2   286  VAL286     -0.2864
     68  CB        -9.3630  -40.9760  -24.9200 C.3   286  VAL286      0.0276
     69  CG1       -9.0930  -40.2070  -26.1860 C.3   286  VAL286      0.0022
     70  CG2      -10.6350  -40.3790  -24.1660 C.3   286  VAL286      0.0022
     71  N        -20.2250  -43.1060  -15.3510 N.3   327  PHE327     -0.1241
     72  CA       -19.2900  -44.1040  -15.8760 C.3   327  PHE327      0.1605
     73  C        -19.3090  -45.4310  -15.1740 C.2   327  PHE327      0.2264
     74  O        -18.7560  -46.4300  -15.6970 O.2   327  PHE327     -0.2867
     75  CB       -17.8850  -43.5290  -16.0570 C.3   327  PHE327      0.0534
     76  CG       -17.9300  -42.2690  -16.8380 C.ar  327  PHE327     -0.0203
     77  CD1      -17.9210  -41.0240  -16.2100 C.ar  327  PHE327     -0.0042
     78  CD2      -18.0870  -42.3140  -18.2240 C.ar  327  PHE327     -0.0042
     79  CE1      -18.0420  -39.8210  -16.9900 C.ar  327  PHE327     -0.0003
     80  CE2      -18.2130  -41.1090  -18.9640 C.ar  327  PHE327     -0.0003
     81  CZ       -18.1900  -39.8850  -18.3300 C.ar  327  PHE327     -0.0000
     82  N        -12.6780  -35.0290  -14.3580 N.3   396  PHE396     -0.1241
     83  CA       -13.2080  -33.7410  -14.7710 C.3   396  PHE396      0.1605
     84  C        -12.9640  -32.4990  -13.8470 C.2   396  PHE396      0.2264
     85  O        -12.5680  -31.4190  -14.3350 O.2   396  PHE396     -0.2867
     86  CB       -14.7280  -33.8880  -15.0240 C.3   396  PHE396      0.0534
     87  CG       -15.0350  -34.9790  -16.0580 C.ar  396  PHE396     -0.0203
     88  CD1      -15.2390  -36.3090  -15.6500 C.ar  396  PHE396     -0.0042
     89  CD2      -14.9830  -34.6820  -17.4140 C.ar  396  PHE396     -0.0042
     90  CE1      -15.4280  -37.3570  -16.5820 C.ar  396  PHE396     -0.0003
     91  CE2      -15.2130  -35.6980  -18.3600 C.ar  396  PHE396     -0.0003
     92  CZ       -15.4230  -37.0620  -17.9370 C.ar  396  PHE396     -0.0000
     93  N        -22.7830  -36.0660  -15.5960 N.3   436  HIS436     -0.1241
     94  CA       -22.0590  -35.5770  -16.7490 C.3   436  HIS436      0.1621
     95  C        -22.9440  -35.5340  -17.9650 C.2   436  HIS436      0.2264
     96  O        -23.5640  -36.5870  -18.3040 O.2   436  HIS436     -0.2867
     97  CB       -20.9660  -36.5870  -17.0220 C.3   436  HIS436      0.0745
     98  CG       -20.1200  -36.2590  -18.2110 C.ar  436  HIS436      0.0817
     99  ND1      -19.1430  -35.2950  -18.1720 N.ar  436  HIS436     -0.2268
    100  CD2      -20.0610  -36.8150  -19.4520 C.ar  436  HIS436      0.1154
    101  CE1      -18.5180  -35.2660  -19.3470 C.ar  436  HIS436      0.1986
    102  NE2      -19.0320  -36.2080  -20.1250 N.ar  436  HIS436     -0.2212
@<TRIPOS>BOND
     1     4     3    2
     2     8     7    2
     3     7     6    1
     4     2     3    1
     5     2     1    1
     6     3     5   am
     7    27    26    1
     8    69    68    1
     9    66    67    2
    10    66    65    1
    11    28    25    1
    12    26    25    1
    13     5     6    1
    14    65    68    1
    15    65    64    1
    16    25    24    1
    17    68    70    1
    18     9    10    1
    19    12    11    2
    20    61    60    2
    21    24    20   am
    22    64    60   am
    23    60    59    1
    24    11    10    1
    25    11    18   am
    26    10    13    1
    27    20    21    2
    28    20    19    1
    29    13    14    1
    30    16    15   ar
    31    62    59    1
    32    62    63    1
    33    32    31    2
    34    41    39   ar
    35    41    42   ar
    36    59    58    1
    37    18    19    1
    38    22    19    1
    39    22    23    1
    40    39    36   ar
    41    31    30    1
    42    15    14    1
    43    15    17   ar
    44    42    40   ar
    45    58    52   am
    46    53    52    2
    47    36    34   ar
    48    36    38   ar
    49    52    51    1
    50    30    33    1
    51    30    29    1
    52    33    34    1
    53    46    45    2
    54    40    38   ar
    55    34    35   ar
    56   102   100   ar
    57   102   101   ar
    58    38    37   ar
    59    45    50   am
    60    45    44    1
    61    51    50    1
    62    51    54    1
    63    44    43    1
    64    44    47    1
    65   100    98   ar
    66   101    99   ar
    67    80    81   ar
    68    80    78   ar
    69    43    49    1
    70    35    37   ar
    71    54    55    1
    72    91    92   ar
    73    91    89   ar
    74    47    48    1
    75    81    79   ar
    76    96    95    2
    77    78    76   ar
    78    98    99   ar
    79    98    97    1
    80    57    55    1
    81    55    56    1
    82    95    94    1
    83    92    90   ar
    84    49    48    1
    85    89    87   ar
    86    97    94    1
    87    79    77   ar
    88    76    77   ar
    89    76    75    1
    90    94    93    1
    91    90    88   ar
    92    87    88   ar
    93    87    86    1
    94    75    72    1
    95    72    71    1
    96    72    73    1
    97    74    73    2
    98    86    83    1
    99    83    82    1
   100    83    84    1
   101    85    84    2
