@<TRIPOS>MOLECULE
tmp/2wigA00.pdb
 86 84 0 0 0
SMALL
GASTEIGER

@<TRIPOS>ATOM
      1  N        -17.7740  -36.7450  -26.7400 N.3   114  GLY114     -0.1210
      2  CA       -17.8800  -38.1250  -27.0840 C.3   114  GLY114      0.1956
      3  C        -16.5160  -38.8140  -26.9890 C.2   114  GLY114      0.2612
      4  O        -16.2370  -39.7750  -27.7370 O.2   114  GLY114     -0.2717
      5  N        -15.6200  -38.3050  -26.1350 N.am  115  GLY115     -0.1956
      6  CA       -14.3710  -39.0780  -25.8440 C.3   115  GLY115      0.1869
      7  C        -13.3620  -39.0600  -26.9860 C.2   115  GLY115      0.2309
      8  O        -12.3930  -39.8140  -26.9680 O.2   115  GLY115     -0.2863
      9  N        -17.1460  -31.8330  -22.4420 N.3   196  SER196     -0.1202
     10  CA       -16.2730  -33.0090  -22.3390 C.3   196  SER196      0.2020
     11  C        -15.1500  -32.9660  -23.4020 C.2   196  SER196      0.2618
     12  O        -14.3690  -32.0140  -23.4620 O.2   196  SER196     -0.2717
     13  CB       -17.1270  -34.2660  -22.4870 C.3   196  SER196      0.2103
     14  OG       -16.4880  -35.4000  -21.9140 O.3   196  SER196     -0.2182
     15  N        -15.0390  -33.9640  -24.2670 N.am  197  ALA197     -0.1979
     16  CA       -13.9910  -33.9090  -25.2900 C.3   197  ALA197      0.1597
     17  C        -14.1370  -32.6700  -26.1670 C.2   197  ALA197      0.2287
     18  O        -13.1270  -32.1590  -26.7700 O.2   197  ALA197     -0.2864
     19  CB       -14.0320  -35.1990  -26.1660 C.3   197  ALA197      0.0319
     20  N         -7.7560  -38.3020  -19.4990 N.3   229  TRP229     -0.1241
     21  CA        -8.1470  -39.0010  -20.7530 C.3   229  TRP229      0.1605
     22  C         -7.9180  -38.1880  -22.0400 C.2   229  TRP229      0.2264
     23  O         -8.2660  -38.6540  -23.1470 O.2   229  TRP229     -0.2867
     24  CB        -9.6520  -39.2940  -20.6910 C.3   229  TRP229      0.0550
     25  CG       -10.4980  -38.1050  -20.1830 C.ar  229  TRP229      0.0003
     26  CD1      -10.9240  -37.8900  -18.8960 C.ar  229  TRP229      0.0946
     27  CD2      -10.9930  -36.9850  -20.9490 C.ar  229  TRP229      0.0152
     28  NE1      -11.6450  -36.7090  -18.8130 N.ar  229  TRP229     -0.2442
     29  CE2      -11.7170  -36.1480  -20.0610 C.ar  229  TRP229      0.0810
     30  CE3      -10.9360  -36.6330  -22.2990 C.ar  229  TRP229      0.0012
     31  CZ2      -12.3600  -34.9710  -20.4840 C.ar  229  TRP229      0.0191
     32  CZ3      -11.5660  -35.4340  -22.7200 C.ar  229  TRP229      0.0001
     33  CH2      -12.2580  -34.6310  -21.8190 C.ar  229  TRP229      0.0015
     34  N        -13.6430  -45.0520  -19.6510 N.3   284  LEU284     -0.1231
     35  CA       -13.2490  -43.6890  -19.9700 C.3   284  LEU284      0.1693
     36  C        -12.1070  -43.7010  -20.9480 C.2   284  LEU284      0.2593
     37  O        -11.5040  -42.6810  -21.1940 O.2   284  LEU284     -0.2718
     38  CB       -12.8290  -42.9450  -18.7190 C.3   284  LEU284      0.0284
     39  CG       -14.0260  -42.2220  -18.1010 C.3   284  LEU284      0.0019
     40  CD1      -13.8110  -41.9640  -16.6230 C.3   284  LEU284      0.0001
     41  CD2      -14.1870  -40.9310  -18.8380 C.3   284  LEU284      0.0001
     42  N        -11.8250  -44.8580  -21.5300 N.am  285  SER285     -0.1938
     43  CA       -10.7460  -44.9770  -22.5250 C.3   285  SER285      0.2055
     44  C        -10.9130  -44.0690  -23.7300 C.2   285  SER285      0.2642
     45  O        -12.0000  -43.9620  -24.2990 O.2   285  SER285     -0.2714
     46  CB       -10.6650  -46.4240  -23.0440 C.3   285  SER285      0.2130
     47  OG        -9.8950  -47.2250  -22.1640 O.3   285  SER285     -0.2179
     48  N         -9.8060  -43.4800  -24.1480 N.am  286  VAL286     -0.1977
     49  CA        -9.7630  -42.6170  -25.3140 C.3   286  VAL286      0.1596
     50  C         -8.6240  -43.1950  -26.1290 C.2   286  VAL286      0.2287
     51  O         -7.4820  -42.7740  -25.9980 O.2   286  VAL286     -0.2864
     52  CB        -9.5030  -41.1310  -24.9360 C.3   286  VAL286      0.0276
     53  CG1       -9.0400  -40.3230  -26.1110 C.3   286  VAL286      0.0022
     54  CG2      -10.8060  -40.4740  -24.4110 C.3   286  VAL286      0.0022
     55  N        -20.3450  -43.1700  -15.5880 N.3   327  PHE327     -0.1241
     56  CA       -19.4090  -44.1480  -16.1240 C.3   327  PHE327      0.1605
     57  C        -19.4150  -45.4640  -15.3730 C.2   327  PHE327      0.2264
     58  O        -18.8640  -46.4720  -15.8270 O.2   327  PHE327     -0.2867
     59  CB       -17.9910  -43.5430  -16.2360 C.3   327  PHE327      0.0534
     60  CG       -17.9910  -42.2810  -17.0310 C.ar  327  PHE327     -0.0203
     61  CD1      -18.1800  -41.0480  -16.4060 C.ar  327  PHE327     -0.0042
     62  CD2      -17.8830  -42.3240  -18.4140 C.ar  327  PHE327     -0.0042
     63  CE1      -18.2480  -39.8640  -17.1400 C.ar  327  PHE327     -0.0003
     64  CE2      -17.9330  -41.1450  -19.1570 C.ar  327  PHE327     -0.0003
     65  CZ       -18.1280  -39.9220  -18.5310 C.ar  327  PHE327     -0.0000
     66  N        -12.6670  -35.1760  -14.3360 N.3   396  PHE396     -0.1241
     67  CA       -13.2470  -33.9290  -14.8100 C.3   396  PHE396      0.1605
     68  C        -13.0060  -32.6830  -13.9110 C.2   396  PHE396      0.2264
     69  O        -12.5770  -31.5820  -14.4010 O.2   396  PHE396     -0.2867
     70  CB       -14.7710  -34.1490  -15.0300 C.3   396  PHE396      0.0534
     71  CG       -15.0650  -35.1730  -16.1110 C.ar  396  PHE396     -0.0203
     72  CD1      -15.3730  -36.5140  -15.7700 C.ar  396  PHE396     -0.0042
     73  CD2      -14.9480  -34.8260  -17.4470 C.ar  396  PHE396     -0.0042
     74  CE1      -15.5690  -37.5100  -16.7280 C.ar  396  PHE396     -0.0003
     75  CE2      -15.1730  -35.8130  -18.4510 C.ar  396  PHE396     -0.0003
     76  CZ       -15.4700  -37.1630  -18.0860 C.ar  396  PHE396     -0.0000
     77  N        -22.8520  -36.1610  -15.7240 N.3   436  HIS436     -0.1241
     78  CA       -22.1020  -35.6500  -16.8720 C.3   436  HIS436      0.1621
     79  C        -23.0380  -35.5820  -18.0910 C.2   436  HIS436      0.2264
     80  O        -23.7200  -36.5680  -18.4070 O.2   436  HIS436     -0.2867
     81  CB       -20.9970  -36.6640  -17.1430 C.3   436  HIS436      0.0745
     82  CG       -20.1070  -36.3320  -18.3090 C.ar  436  HIS436      0.0817
     83  ND1      -19.0890  -35.4230  -18.2200 N.ar  436  HIS436     -0.2268
     84  CD2      -20.0520  -36.8330  -19.5690 C.ar  436  HIS436      0.1154
     85  CE1      -18.4420  -35.3670  -19.3740 C.ar  436  HIS436      0.1986
     86  NE2      -19.0070  -36.2150  -20.2050 N.ar  436  HIS436     -0.2212
@<TRIPOS>BOND
     1     4     3    2
     2     2     3    1
     3     2     1    1
     4     3     5   am
     5     7     8    2
     6     7     6    1
     7    18    17    2
     8    17    16    1
     9    19    16    1
    10     5     6    1
    11    50    51    2
    12    50    49    1
    13    53    52    1
    14    49    52    1
    15    49    48    1
    16    16    15    1
    17    52    54    1
    18    45    44    2
    19    15    11   am
    20    48    44   am
    21    44    43    1
    22    12    11    2
    23    11    10    1
    24    23    22    2
    25    46    43    1
    26    46    47    1
    27    32    30   ar
    28    32    33   ar
    29    43    42    1
    30    13    10    1
    31    13    14    1
    32     9    10    1
    33    30    27   ar
    34    22    21    1
    35    33    31   ar
    36    42    36   am
    37    37    36    2
    38    27    25   ar
    39    27    29   ar
    40    36    35    1
    41    21    24    1
    42    21    20    1
    43    24    25    1
    44    31    29   ar
    45    86    84   ar
    46    86    85   ar
    47    25    26   ar
    48    29    28   ar
    49    35    34    1
    50    35    38    1
    51    84    82   ar
    52    85    83   ar
    53    64    65   ar
    54    64    62   ar
    55    26    28   ar
    56    41    39    1
    57    38    39    1
    58    65    63   ar
    59    75    76   ar
    60    75    73   ar
    61    62    60   ar
    62    80    79    2
    63    82    83   ar
    64    82    81    1
    65    39    40    1
    66    79    78    1
    67    76    74   ar
    68    73    71   ar
    69    81    78    1
    70    63    61   ar
    71    60    61   ar
    72    60    59    1
    73    78    77    1
    74    74    72   ar
    75    59    56    1
    76    56    55    1
    77    56    57    1
    78    71    72   ar
    79    71    70    1
    80    58    57    2
    81    70    67    1
    82    67    66    1
    83    67    68    1
    84    69    68    2
