@<TRIPOS>MOLECULE
tmp/2wihA00.pdb
 183 175 0 0 0
SMALL
GASTEIGER

@<TRIPOS>ATOM
      1  N         -3.7790  196.7760  112.2590 N.3    13  LYS13      -0.1231
      2  CA        -4.8790  197.0120  113.1770 C.3    13  LYS13       0.1693
      3  C         -4.9250  198.5070  113.4690 C.2    13  LYS13       0.2592
      4  O         -3.9090  199.1020  113.8020 O.2    13  LYS13      -0.2718
      5  CB        -4.6420  196.2140  114.4610 C.3    13  LYS13       0.0285
      6  CG        -5.6750  196.4280  115.5610 C.3    13  LYS13       0.0035
      7  CD        -5.9360  195.1410  116.3520 C.3    13  LYS13       0.0206
      8  CE        -4.6580  194.5790  116.9810 C.3    13  LYS13       0.1093
      9  NZ        -4.7930  193.1430  117.4160 N.3    13  LYS13      -0.1314
     10  N         -6.0930  199.1250  113.3200 N.am   14  ILE14      -0.1966
     11  CA        -6.2280  200.5380  113.6490 C.3    14  ILE14       0.1727
     12  C         -7.2320  200.7840  114.7670 C.2    14  ILE14       0.2616
     13  O         -7.3590  201.8970  115.2700 O.2    14  ILE14      -0.2715
     14  CB        -6.6370  201.3720  112.4120 C.3    14  ILE14       0.0290
     15  CG1       -7.8610  200.7400  111.7400 C.3    14  ILE14       0.0022
     16  CG2       -5.4560  201.4810  111.4430 C.3    14  ILE14       0.0023
     17  CD1       -8.3600  201.5090  110.5360 C.3    14  ILE14       0.0001
     18  N         -7.9490  199.7440  115.1600 N.am   15  GLY15      -0.1955
     19  CA        -8.9460  199.9190  116.1950 C.3    15  GLY15       0.1869
     20  C         -9.2930  198.6150  116.8720 C.2    15  GLY15       0.2309
     21  O         -9.2420  197.5460  116.2560 O.2    15  GLY15      -0.2863
     22  N        -16.4800  195.7290  120.7050 N.3    19  TYR19      -0.1241
     23  CA       -17.1900  195.4390  119.4650 C.3    19  TYR19       0.1605
     24  C        -16.4370  194.4100  118.6230 C.2    19  TYR19       0.2264
     25  O        -17.0450  193.6290  117.8870 O.2    19  TYR19      -0.2867
     26  CB       -17.3640  196.7240  118.6630 C.3    19  TYR19       0.0534
     27  CG       -16.0540  197.3920  118.3070 C.ar   19  TYR19      -0.0201
     28  CD1      -15.4290  197.1340  117.0900 C.ar   19  TYR19      -0.0009
     29  CD2      -15.4450  198.2900  119.1810 C.ar   19  TYR19      -0.0009
     30  CE1      -14.2350  197.7540  116.7490 C.ar   19  TYR19       0.0417
     31  CE2      -14.2490  198.9170  118.8480 C.ar   19  TYR19       0.0417
     32  CZ       -13.6510  198.6430  117.6270 C.ar   19  TYR19       0.1957
     33  OH       -12.4790  199.2650  117.2740 O.3    19  TYR19      -0.2866
     34  N        -10.8450  196.6260  114.1200 N.3    22  VAL22      -0.1245
     35  CA       -10.8230  197.3230  112.8390 C.3    22  VAL22       0.1561
     36  C         -9.4130  197.2630  112.2450 C.2    22  VAL22       0.2260
     37  O         -8.4290  197.5750  112.9230 O.2    22  VAL22      -0.2867
     38  CB       -11.2300  198.8130  113.0000 C.3    22  VAL22       0.0252
     39  CG1      -11.2660  199.4930  111.6430 C.3    22  VAL22       0.0019
     40  CG2      -12.5690  198.9180  113.6780 C.3    22  VAL22       0.0019
     41  N        -11.3550  200.4910  105.6610 N.3    35  ALA35      -0.1245
     42  CA       -11.3730  200.0730  107.0560 C.3    35  ALA35       0.1562
     43  C        -12.3010  198.8790  107.2040 C.2    35  ALA35       0.2260
     44  O        -13.4910  198.9710  106.9210 O.2    35  ALA35      -0.2867
     45  CB       -11.8470  201.2120  107.9490 C.3    35  ALA35       0.0290
     46  N        -14.0590  196.4220  109.6310 N.3    37  LYS37      -0.1245
     47  CA       -14.4200  196.0980  110.9980 C.3    37  LYS37       0.1561
     48  C        -14.8500  194.6460  111.0880 C.2    37  LYS37       0.2260
     49  O        -15.7470  194.2130  110.3730 O.2    37  LYS37      -0.2867
     50  CB       -15.5380  197.0040  111.5140 C.3    37  LYS37       0.0271
     51  CG       -16.0030  196.6020  112.9160 C.3    37  LYS37       0.0035
     52  CD       -16.4320  197.7990  113.7640 C.3    37  LYS37       0.0206
     53  CE       -17.7870  198.3320  113.3300 C.3    37  LYS37       0.1093
     54  NZ       -18.2410  199.4620  114.1880 N.3    37  LYS37      -0.1314
     55  N        -26.1140  199.8180  113.5780 N.3    55  GLU55      -0.1245
     56  CA       -25.0840  200.5440  112.8430 C.3    55  GLU55       0.1567
     57  C        -25.2360  200.3060  111.3410 C.2    55  GLU55       0.2260
     58  O        -25.2160  201.2470  110.5450 O.2    55  GLU55      -0.2867
     59  CB       -23.6850  200.1110  113.2940 C.3    55  GLU55       0.0388
     60  CG       -22.5630  200.7040  112.4410 C.3    55  GLU55       0.1160
     61  CD       -21.1800  200.5270  113.0610 C.2    55  GLU55       0.3649
     62  OE1      -20.9180  199.4390  113.6290 O.co2  55  GLU55      -0.2457
     63  OE2      -20.3620  201.4840  112.9760 O.co2  55  GLU55      -0.2457
     64  N        -18.7610  208.7840  107.9750 N.3    68  VAL68      -0.1245
     65  CA       -17.9170  207.7240  107.4410 C.3    68  VAL68       0.1561
     66  C        -18.7790  206.7070  106.7050 C.2    68  VAL68       0.2260
     67  O        -19.7260  206.1710  107.2590 O.2    68  VAL68      -0.2867
     68  CB       -17.1490  206.9930  108.5420 C.3    68  VAL68       0.0252
     69  CG1      -16.2220  205.9570  107.9140 C.3    68  VAL68       0.0019
     70  CG2      -16.3480  207.9820  109.3590 C.3    68  VAL68       0.0019
     71  N        -15.6740  199.9730  105.6730 N.3    84  PHE84      -0.1227
     72  CA       -15.8980  201.4140  105.7360 C.3    84  PHE84       0.1736
     73  C        -14.8580  202.1480  104.9220 C.2    84  PHE84       0.2595
     74  O        -13.7610  201.6410  104.7150 O.2    84  PHE84      -0.2718
     75  CB       -15.8200  201.9030  107.1780 C.3    84  PHE84       0.0547
     76  CG       -17.0100  201.5520  108.0080 C.ar   84  PHE84      -0.0202
     77  CD1      -17.0470  200.3670  108.7240 C.ar   84  PHE84      -0.0042
     78  CD2      -18.0660  202.4460  108.1390 C.ar   84  PHE84      -0.0042
     79  CE1      -18.1110  200.0840  109.5680 C.ar   84  PHE84      -0.0003
     80  CE2      -19.1360  202.1650  108.9830 C.ar   84  PHE84      -0.0003
     81  CZ       -19.1540  200.9840  109.6980 C.ar   84  PHE84      -0.0000
     82  N        -15.1910  203.3480  104.4690 N.am   85  GLU85      -0.1965
     83  CA       -14.1960  204.1830  103.8420 C.3    85  GLU85       0.1733
     84  C        -13.1270  204.3970  104.9060 C.2    85  GLU85       0.2616
     85  O        -13.4170  204.3770  106.1020 O.2    85  GLU85      -0.2715
     86  CB       -14.8070  205.5210  103.4060 C.3    85  GLU85       0.0429
     87  CG       -14.8740  206.5660  104.4900 C.3    85  GLU85       0.1163
     88  CD       -15.4980  207.8760  104.0280 C.2    85  GLU85       0.3649
     89  OE1      -16.7080  208.0790  104.2700 O.co2  85  GLU85      -0.2457
     90  OE2      -14.7790  208.7050  103.4360 O.co2  85  GLU85      -0.2457
     91  N        -11.8870  204.5780  104.4710 N.am   86  PHE86      -0.1960
     92  CA       -10.7650  204.6590  105.3910 C.3    86  PHE86       0.1771
     93  C        -10.3790  206.1120  105.6310 C.2    86  PHE86       0.2619
     94  O        -10.2130  206.8780  104.6840 O.2    86  PHE86      -0.2715
     95  CB        -9.5820  203.8850  104.8110 C.3    86  PHE86       0.0574
     96  CG        -8.3140  204.0370  105.5920 C.ar   86  PHE86      -0.0200
     97  CD1       -7.3150  204.8930  105.1510 C.ar   86  PHE86      -0.0042
     98  CD2       -8.1150  203.3220  106.7660 C.ar   86  PHE86      -0.0042
     99  CE1       -6.1360  205.0350  105.8650 C.ar   86  PHE86      -0.0003
    100  CE2       -6.9380  203.4600  107.4870 C.ar   86  PHE86      -0.0003
    101  CZ        -5.9450  204.3190  107.0350 C.ar   86  PHE86      -0.0000
    102  N        -10.2590  206.5020  106.8960 N.am   87  LEU87      -0.1963
    103  CA        -9.6950  207.8090  107.2210 C.3    87  LEU87       0.1728
    104  C         -8.3590  207.6980  107.9380 C.2    87  LEU87       0.2616
    105  O         -7.9170  206.5920  108.2730 O.2    87  LEU87      -0.2715
    106  CB       -10.6910  208.6380  108.0370 C.3    87  LEU87       0.0311
    107  CG       -11.7380  209.2420  107.0880 C.3    87  LEU87       0.0022
    108  CD1      -12.9410  208.3210  107.0220 C.3    87  LEU87       0.0001
    109  CD2      -12.1290  210.6290  107.5310 C.3    87  LEU87       0.0001
    110  N         -7.6960  208.8300  108.1520 N.am   88  HIS88      -0.1959
    111  CA        -6.2890  208.7860  108.5610 C.3    88  HIS88       0.1787
    112  C         -6.0410  208.7700  110.0570 C.2    88  HIS88       0.2620
    113  O         -5.0180  208.2660  110.5010 O.2    88  HIS88      -0.2715
    114  CB        -5.5180  209.9470  107.9350 C.3    88  HIS88       0.0785
    115  CG        -5.4970  209.9000  106.4450 C.ar   88  HIS88       0.0821
    116  ND1       -5.1210  208.7730  105.7480 N.ar   88  HIS88      -0.2267
    117  CD2       -5.8520  210.8160  105.5160 C.ar   88  HIS88       0.1154
    118  CE1       -5.2470  208.9970  104.4520 C.ar   88  HIS88       0.1986
    119  NE2       -5.6910  210.2290  104.2860 N.ar   88  HIS88      -0.2212
    120  N         -6.9810  209.3030  110.8270 N.am   89  GLN89      -0.1963
    121  CA        -6.7030  209.6930  112.1970 C.3    89  GLN89       0.1733
    122  C         -8.0140  210.0330  112.9100 C.2    89  GLN89       0.2616
    123  O         -8.9800  210.4580  112.2650 O.2    89  GLN89      -0.2715
    124  CB        -5.7830  210.9100  112.1630 C.3    89  GLN89       0.0408
    125  CG        -5.6130  211.6220  113.4660 C.3    89  GLN89       0.0908
    126  CD        -4.3790  211.1680  114.1770 C.2    89  GLN89       0.2608
    127  OE1       -3.3080  211.7760  114.0420 O.2    89  GLN89      -0.2717
    128  NE2       -4.5050  210.0820  114.9380 N.am   89  GLN89      -0.0878
    129  N         -8.0590  209.8570  114.2310 N.am   90  ASP90      -0.1971
    130  CA        -9.2040  210.3570  114.9930 C.3    90  ASP90       0.1709
    131  C         -8.8880  211.6590  115.7290 C.2    90  ASP90       0.2293
    132  O         -7.7280  211.9980  115.9450 O.2    90  ASP90      -0.2864
    133  CB        -9.7320  209.2860  115.9710 C.3    90  ASP90       0.1436
    134  CG        -8.8760  209.1310  117.2150 C.2    90  ASP90       0.3671
    135  OD1       -8.7390  210.1090  117.9810 O.co2  90  ASP90      -0.2456
    136  OD2       -8.3500  208.0180  117.4400 O.co2  90  ASP90      -0.2456
    137  N         -6.6900  211.7460  119.1550 N.3    93  LYS93      -0.1245
    138  CA        -5.2550  211.6920  118.9340 C.3    93  LYS93       0.1561
    139  C         -4.7380  212.9980  118.3460 C.2    93  LYS93       0.2260
    140  O         -3.7040  213.5020  118.7570 O.2    93  LYS93      -0.2867
    141  CB        -4.9100  210.5450  117.9900 C.3    93  LYS93       0.0271
    142  CG        -3.4300  210.3750  117.7720 C.3    93  LYS93       0.0035
    143  CD        -2.7410  210.1340  119.1030 C.3    93  LYS93       0.0206
    144  CE        -1.2720  209.7880  118.9170 C.3    93  LYS93       0.1093
    145  NZ        -0.7510  209.0660  120.1180 N.3    93  LYS93      -0.1314
    146  N        -12.7380  210.7510  119.9250 N.3   135  GLN135     -0.1231
    147  CA       -12.2170  209.5340  119.3310 C.3   135  GLN135      0.1698
    148  C        -13.1200  208.9330  118.2440 C.2   135  GLN135      0.2592
    149  O        -12.6630  208.1210  117.4450 O.2   135  GLN135     -0.2718
    150  CB       -11.9440  208.4790  120.3990 C.3   135  GLN135      0.0381
    151  CG       -11.2840  207.2490  119.8080 C.3   135  GLN135      0.0905
    152  CD       -10.8820  206.2110  120.8400 C.2   135  GLN135      0.2608
    153  OE1      -11.2680  206.2930  122.0080 O.2   135  GLN135     -0.2717
    154  NE2      -10.0980  205.2210  120.4060 N.am  135  GLN135     -0.0878
    155  N        -14.3950  209.3120  118.2130 N.am  136  ASN136     -0.1974
    156  CA       -15.3100  208.7720  117.2080 C.3   136  ASN136      0.1688
    157  C        -15.4400  209.7270  116.0270 C.2   136  ASN136      0.2292
    158  O        -16.2610  209.5210  115.1280 O.2   136  ASN136     -0.2864
    159  CB       -16.6960  208.5210  117.8160 C.3   136  ASN136      0.1181
    160  CG       -16.7260  207.3100  118.7290 C.2   136  ASN136      0.2629
    161  OD1      -15.7840  206.5090  118.7560 O.2   136  ASN136     -0.2716
    162  ND2      -17.8120  207.1680  119.4870 N.am  136  ASN136     -0.0877
    163  N        -13.4110  211.2310  112.8530 N.3   138  LEU138     -0.1245
    164  CA       -12.2600  210.8360  112.0550 C.3   138  LEU138      0.1561
    165  C        -11.8910  211.8830  111.0230 C.2   138  LEU138      0.2260
    166  O        -12.7560  212.5400  110.4480 O.2   138  LEU138     -0.2867
    167  CB       -12.5380  209.5120  111.3600 C.3   138  LEU138      0.0270
    168  CG       -12.9090  208.4010  112.3290 C.3   138  LEU138      0.0019
    169  CD1      -12.9440  207.0870  111.5990 C.3   138  LEU138      0.0001
    170  CD2      -11.9110  208.3570  113.4550 C.3   138  LEU138      0.0001
    171  N        -18.2580  208.9330  112.9800 N.3   148  ALA148     -0.1231
    172  CA       -18.0640  207.4990  112.9110 C.3   148  ALA148      0.1694
    173  C        -18.5540  206.8380  114.1930 C.2   148  ALA148      0.2592
    174  O        -18.9180  207.5120  115.1540 O.2   148  ALA148     -0.2718
    175  CB       -16.5980  207.1930  112.7040 C.3   148  ALA148      0.0304
    176  N        -18.5330  205.5120  114.1990 N.am  149  ASP149     -0.1974
    177  CA       -18.9640  204.7220  115.3390 C.3   149  ASP149      0.1709
    178  C        -20.4400  204.9410  115.6740 C.2   149  ASP149      0.2293
    179  O        -20.7750  205.6650  116.6070 O.2   149  ASP149     -0.2864
    180  CB       -18.1110  205.0300  116.5720 C.3   149  ASP149      0.1436
    181  CG       -18.2670  203.9720  117.6550 C.2   149  ASP149      0.3671
    182  OD1      -19.1860  203.1370  117.5190 O.co2 149  ASP149     -0.2456
    183  OD2      -17.4770  203.9580  118.6270 O.co2 149  ASP149     -0.2456
@<TRIPOS>BOND
     1    86    83    1
     2    86    87    1
     3    90    88   ar
     4    83    82    1
     5    83    84    1
     6    88    89   ar
     7    88    87    1
     8   119   118   ar
     9   119   117   ar
    10   118   116   ar
    11    82    73   am
    12    91    84   am
    13    91    92    1
    14    94    93    2
    15    74    73    2
    16    95    92    1
    17    95    96    1
    18    84    85    2
    19    73    72    1
    20    97    96   ar
    21    97    99   ar
    22    92    93    1
    23   117   115   ar
    24    96    98   ar
    25    93   102   am
    26    41    42    1
    27    71    72    1
    28    72    75    1
    29   116   115   ar
    30    99   101   ar
    31   115   114    1
    32    66    67    2
    33    66    65    1
    34    98   100   ar
    35   102   103    1
    36    44    43    2
    37   108   107    1
    38   101   100   ar
    39    42    43    1
    40    42    45    1
    41   107   109    1
    42   107   106    1
    43    75    76    1
    44   103   104    1
    45   103   106    1
    46    65    64    1
    47    65    68    1
    48    69    68    1
    49   114   111    1
    50   104   110   am
    51   104   105    2
    52    76    78   ar
    53    76    77   ar
    54    78    80   ar
    55   110   111    1
    56    68    70    1
    57   111   112    1
    58    77    79   ar
    59    80    81   ar
    60    79    81   ar
    61    46    47    1
    62   112   113    2
    63   112   120   am
    64    49    48    2
    65   166   165    2
    66    17    15    1
    67    58    57    2
    68   120   121    1
    69    47    48    1
    70    47    50    1
    71   165   164    1
    72    57    56    1
    73   167   164    1
    74   167   168    1
    75    16    14    1
    76    50    51    1
    77   169   168    1
    78    39    38    1
    79    15    14    1
    80   164   163    1
    81   124   121    1
    82   124   125    1
    83   121   122    1
    84    36    35    1
    85    36    37    2
    86     1     2    1
    87   123   122    2
    88   168   170    1
    89    14    11    1
    90    60    61    1
    91    60    59    1
    92   175   172    1
    93    35    38    1
    94    35    34    1
    95    56    59    1
    96    56    55    1
    97   122   129   am
    98   172   171    1
    99   172   173    1
   100    51    52    1
   101    63    61   ar
   102    38    40    1
   103    61    62   ar
   104     2     3    1
   105     2     5    1
   106    10     3   am
   107    10    11    1
   108    53    52    1
   109    53    54    1
   110   125   126    1
   111     3     4    2
   112    11    12    1
   113   127   126    2
   114   126   128   am
   115   173   176   am
   116   173   174    2
   117   176   177    1
   118   129   130    1
   119     5     6    1
   120    12    18   am
   121    12    13    2
   122   130   131    1
   123   130   133    1
   124   158   157    2
   125    18    19    1
   126   177   178    1
   127   177   180    1
   128     6     7    1
   129   178   179    2
   130   131   132    2
   131   133   134    1
   132   157   156    1
   133    19    20    1
   134    21    20    2
   135     7     8    1
   136   180   181    1
   137    30    28   ar
   138    30    32   ar
   139     8     9    1
   140    28    27   ar
   141   156   159    1
   142   156   155    1
   143   134   136   ar
   144   134   135   ar
   145    33    32    1
   146   149   148    2
   147   182   181   ar
   148    32    31   ar
   149   181   183   ar
   150   142   141    1
   151   142   143    1
   152   159   160    1
   153    25    24    2
   154   141   138    1
   155   155   148   am
   156   148   147    1
   157    27    26    1
   158    27    29   ar
   159   139   140    2
   160   139   138    1
   161    24    23    1
   162    26    23    1
   163   160   161    2
   164   160   162   am
   165    31    29   ar
   166   144   143    1
   167   144   145    1
   168   138   137    1
   169   147   146    1
   170   147   150    1
   171    23    22    1
   172   151   150    1
   173   151   152    1
   174   154   152   am
   175   152   153    2
