@<TRIPOS>MOLECULE
tmp/2wijA00.pdb
 95 93 0 0 0
SMALL
GASTEIGER

@<TRIPOS>ATOM
      1  N        -17.7260  -36.7670  -26.7710 N.3   114  GLY114     -0.1210
      2  CA       -17.8410  -38.1290  -27.1640 C.3   114  GLY114      0.1956
      3  C        -16.5120  -38.8350  -27.0650 C.2   114  GLY114      0.2612
      4  O        -16.2560  -39.8050  -27.7810 O.2   114  GLY114     -0.2717
      5  N        -15.6190  -38.3380  -26.2150 N.am  115  GLY115     -0.1956
      6  CA       -14.3820  -39.0970  -25.9410 C.3   115  GLY115      0.1869
      7  C        -13.3760  -39.0930  -27.0690 C.2   115  GLY115      0.2309
      8  O        -12.4160  -39.8360  -27.0430 O.2   115  GLY115     -0.2863
      9  N        -18.4430  -29.4830  -24.8000 N.3   195  GLU195     -0.1231
     10  CA       -18.5540  -30.2700  -23.5770 C.3   195  GLU195      0.1699
     11  C        -17.6670  -31.5100  -23.5790 C.2   195  GLU195      0.2593
     12  O        -17.3990  -32.1070  -24.6280 O.2   195  GLU195     -0.2718
     13  CB       -20.0150  -30.6220  -23.2910 C.3   195  GLU195      0.0402
     14  CG       -20.2360  -31.3210  -22.0060 C.3   195  GLU195      0.1161
     15  CD       -20.3200  -32.8090  -22.1470 C.2   195  GLU195      0.3649
     16  OE1      -20.1180  -33.2690  -23.3090 O.co2 195  GLU195     -0.2457
     17  OE2      -20.6040  -33.5230  -21.1240 O.co2 195  GLU195     -0.2457
     18  N        -17.1560  -31.9120  -22.4020 N.am  196  SER196     -0.1938
     19  CA       -16.3300  -33.0970  -22.3670 C.3   196  SER196      0.2055
     20  C        -15.1800  -33.0460  -23.4250 C.2   196  SER196      0.2642
     21  O        -14.3900  -32.0940  -23.4480 O.2   196  SER196     -0.2714
     22  CB       -17.1710  -34.3990  -22.4930 C.3   196  SER196      0.2130
     23  OG       -16.3140  -35.3120  -21.9980 O.3   196  SER196     -0.2179
     24  N        -15.0200  -34.0500  -24.2960 N.am  197  ALA197     -0.1977
     25  CA       -13.9540  -33.9420  -25.3020 C.3   197  ALA197      0.1597
     26  C        -14.0620  -32.7120  -26.1430 C.2   197  ALA197      0.2287
     27  O        -13.0490  -32.2510  -26.7770 O.2   197  ALA197     -0.2864
     28  CB       -13.8930  -35.1950  -26.1940 C.3   197  ALA197      0.0319
     29  N         -7.6830  -38.2890  -19.6020 N.3   229  TRP229     -0.1241
     30  CA        -8.1080  -39.0030  -20.8550 C.3   229  TRP229      0.1605
     31  C         -7.8890  -38.2070  -22.1450 C.2   229  TRP229      0.2264
     32  O         -8.2020  -38.7090  -23.2380 O.2   229  TRP229     -0.2867
     33  CB        -9.5980  -39.3190  -20.7630 C.3   229  TRP229      0.0550
     34  CG       -10.4600  -38.1460  -20.2790 C.ar  229  TRP229      0.0003
     35  CD1      -10.8850  -37.9280  -19.0090 C.ar  229  TRP229      0.0946
     36  CD2      -10.9680  -37.0490  -21.0590 C.ar  229  TRP229      0.0152
     37  NE1      -11.6110  -36.7600  -18.9340 N.ar  229  TRP229     -0.2442
     38  CE2      -11.7010  -36.2200  -20.1910 C.ar  229  TRP229      0.0810
     39  CE3      -10.9100  -36.7110  -22.4100 C.ar  229  TRP229      0.0012
     40  CZ2      -12.3440  -35.0420  -20.6320 C.ar  229  TRP229      0.0191
     41  CZ3      -11.5480  -35.5310  -22.8530 C.ar  229  TRP229      0.0001
     42  CH2      -12.2350  -34.7120  -21.9560 C.ar  229  TRP229      0.0015
     43  N        -13.6540  -45.0530  -19.6380 N.3   284  LEU284     -0.1231
     44  CA       -13.2030  -43.7050  -19.9920 C.3   284  LEU284      0.1693
     45  C        -12.0370  -43.7350  -20.9750 C.2   284  LEU284      0.2593
     46  O        -11.3690  -42.7410  -21.1790 O.2   284  LEU284     -0.2718
     47  CB       -12.7890  -42.9620  -18.7220 C.3   284  LEU284      0.0284
     48  CG       -13.9880  -42.3920  -17.9720 C.3   284  LEU284      0.0019
     49  CD1      -13.8190  -42.4600  -16.4700 C.3   284  LEU284      0.0001
     50  CD2      -14.1560  -40.9380  -18.4030 C.3   284  LEU284      0.0001
     51  N        -11.7780  -44.8760  -21.5980 N.am  285  SER285     -0.1938
     52  CA       -10.6680  -44.9660  -22.5580 C.3   285  SER285      0.2055
     53  C        -10.8070  -44.0240  -23.7130 C.2   285  SER285      0.2642
     54  O        -11.8810  -43.8980  -24.2730 O.2   285  SER285     -0.2714
     55  CB       -10.6160  -46.3770  -23.1650 C.3   285  SER285      0.2130
     56  OG        -9.8340  -47.2280  -22.3300 O.3   285  SER285     -0.2179
     57  N         -9.6990  -43.4420  -24.1380 N.am  286  VAL286     -0.1977
     58  CA        -9.6390  -42.6540  -25.3510 C.3   286  VAL286      0.1596
     59  C         -8.5040  -43.2180  -26.1720 C.2   286  VAL286      0.2287
     60  O         -7.3720  -42.7650  -26.0870 O.2   286  VAL286     -0.2864
     61  CB        -9.4040  -41.1720  -25.0140 C.3   286  VAL286      0.0276
     62  CG1       -9.0060  -40.3940  -26.2230 C.3   286  VAL286      0.0022
     63  CG2      -10.6810  -40.6000  -24.3550 C.3   286  VAL286      0.0022
     64  N        -20.3390  -43.3030  -15.6670 N.3   327  PHE327     -0.1241
     65  CA       -19.3900  -44.2760  -16.1950 C.3   327  PHE327      0.1605
     66  C        -19.4060  -45.5490  -15.3860 C.2   327  PHE327      0.2264
     67  O        -18.8480  -46.5480  -15.7760 O.2   327  PHE327     -0.2867
     68  CB       -17.9750  -43.6590  -16.2480 C.3   327  PHE327      0.0534
     69  CG       -17.9380  -42.3830  -17.0340 C.ar  327  PHE327     -0.0203
     70  CD1      -18.1350  -41.1640  -16.4110 C.ar  327  PHE327     -0.0042
     71  CD2      -17.7520  -42.4120  -18.4150 C.ar  327  PHE327     -0.0042
     72  CE1      -18.1580  -39.9940  -17.1330 C.ar  327  PHE327     -0.0003
     73  CE2      -17.7560  -41.2400  -19.1430 C.ar  327  PHE327     -0.0003
     74  CZ       -17.9620  -40.0240  -18.5030 C.ar  327  PHE327     -0.0000
     75  N        -12.7020  -35.2000  -14.4190 N.3   396  PHE396     -0.1241
     76  CA       -13.2230  -33.9210  -14.8820 C.3   396  PHE396      0.1605
     77  C        -13.0270  -32.6890  -13.9580 C.2   396  PHE396      0.2264
     78  O        -12.6130  -31.5990  -14.4260 O.2   396  PHE396     -0.2867
     79  CB       -14.7350  -34.0930  -15.1230 C.3   396  PHE396      0.0534
     80  CG       -15.0370  -35.2040  -16.1090 C.ar  396  PHE396     -0.0203
     81  CD1      -15.4100  -36.4640  -15.6550 C.ar  396  PHE396     -0.0042
     82  CD2      -14.9440  -34.9690  -17.4520 C.ar  396  PHE396     -0.0042
     83  CE1      -15.6500  -37.5420  -16.5350 C.ar  396  PHE396     -0.0003
     84  CE2      -15.2200  -36.0150  -18.3610 C.ar  396  PHE396     -0.0003
     85  CZ       -15.5620  -37.3090  -17.8860 C.ar  396  PHE396     -0.0000
     86  N        -22.8020  -36.2270  -15.7590 N.3   436  HIS436     -0.1241
     87  CA       -22.0470  -35.7220  -16.9100 C.3   436  HIS436      0.1621
     88  C        -22.9870  -35.6060  -18.0860 C.2   436  HIS436      0.2264
     89  O        -23.7300  -36.5630  -18.3750 O.2   436  HIS436     -0.2867
     90  CB       -20.9790  -36.7630  -17.2260 C.3   436  HIS436      0.0745
     91  CG       -20.0510  -36.4080  -18.3460 C.ar  436  HIS436      0.0817
     92  ND1      -19.0130  -35.5200  -18.1850 N.ar  436  HIS436     -0.2268
     93  CD2      -19.9540  -36.8830  -19.6200 C.ar  436  HIS436      0.1154
     94  CE1      -18.3460  -35.4240  -19.3290 C.ar  436  HIS436      0.1986
     95  NE2      -18.8690  -36.2750  -20.1930 N.ar  436  HIS436     -0.2212
@<TRIPOS>BOND
     1     4     3    2
     2     2     3    1
     3     2     1    1
     4     7     8    2
     5     7     6    1
     6     3     5   am
     7    27    26    2
     8    62    61    1
     9     5     6    1
    10    28    25    1
    11    59    60    2
    12    59    58    1
    13    26    25    1
    14    58    61    1
    15    58    57    1
    16    25    24    1
    17    61    63    1
    18     9    10    1
    19    12    11    2
    20    24    20   am
    21    54    53    2
    22    57    53   am
    23    53    52    1
    24    11    10    1
    25    11    18   am
    26    10    13    1
    27    21    20    2
    28    20    19    1
    29    16    15   ar
    30    13    14    1
    31    32    31    2
    32    55    52    1
    33    55    56    1
    34    41    39   ar
    35    41    42   ar
    36    52    51    1
    37    22    19    1
    38    22    23    1
    39    39    36   ar
    40    18    19    1
    41    15    14    1
    42    15    17   ar
    43    31    30    1
    44    42    40   ar
    45    51    45   am
    46    46    45    2
    47    36    34   ar
    48    36    38   ar
    49    45    44    1
    50    30    33    1
    51    30    29    1
    52    33    34    1
    53    40    38   ar
    54    34    35   ar
    55    95    93   ar
    56    95    94   ar
    57    38    37   ar
    58    44    43    1
    59    44    47    1
    60    93    91   ar
    61    94    92   ar
    62    73    74   ar
    63    73    71   ar
    64    35    37   ar
    65    47    48    1
    66    74    72   ar
    67    71    69   ar
    68    50    48    1
    69    89    88    2
    70    84    85   ar
    71    84    82   ar
    72    91    92   ar
    73    91    90    1
    74    88    87    1
    75    48    49    1
    76    85    83   ar
    77    82    80   ar
    78    90    87    1
    79    72    70   ar
    80    69    70   ar
    81    69    68    1
    82    87    86    1
    83    83    81   ar
    84    68    65    1
    85    65    64    1
    86    65    66    1
    87    80    81   ar
    88    80    79    1
    89    67    66    2
    90    79    76    1
    91    76    75    1
    92    76    77    1
    93    78    77    2
