@<TRIPOS>MOLECULE
tmp/2wikA00.pdb
 93 92 0 0 0
SMALL
GASTEIGER

@<TRIPOS>ATOM
      1  N        -17.8220  -36.7700  -26.8120 N.3   114  GLY114     -0.1210
      2  CA       -17.9600  -38.0610  -27.3540 C.3   114  GLY114      0.1956
      3  C        -16.6600  -38.8090  -27.1140 C.2   114  GLY114      0.2612
      4  O        -16.3860  -39.7850  -27.8010 O.2   114  GLY114     -0.2717
      5  N        -15.8440  -38.4020  -26.1420 N.am  115  GLY115     -0.1956
      6  CA       -14.5590  -39.1610  -25.9400 C.3   115  GLY115      0.1869
      7  C        -13.4920  -39.1500  -27.0640 C.2   115  GLY115      0.2309
      8  O        -12.4580  -39.8590  -26.9940 O.2   115  GLY115     -0.2863
      9  N        -17.1480  -31.9290  -22.4530 N.3   196  SER196     -0.1202
     10  CA       -16.2820  -33.1020  -22.3400 C.3   196  SER196      0.2020
     11  C        -15.1850  -33.0320  -23.4160 C.2   196  SER196      0.2615
     12  O        -14.3580  -32.0680  -23.4080 O.2   196  SER196     -0.2717
     13  CB       -17.1620  -34.3670  -22.4060 C.3   196  SER196      0.2103
     14  OG       -16.4640  -35.5070  -21.9820 O.3   196  SER196     -0.2182
     15  N        -15.1020  -33.9740  -24.3540 N.am  197  ALA197     -0.2032
     16  CA       -14.0050  -33.8870  -25.3950 C.3   197  ALA197      0.1283
     17  C        -14.1480  -32.6880  -26.2390 C.3   197  ALA197      0.2036
     18  O        -13.1370  -32.1810  -26.9030 O.3   197  ALA197     -0.2185
     19  CB       -13.9910  -35.1640  -26.2660 C.3   197  ALA197      0.0262
     20  N         -7.7590  -38.3220  -19.6190 N.3   229  TRP229     -0.1241
     21  CA        -8.1140  -39.0740  -20.8310 C.3   229  TRP229      0.1605
     22  C         -7.8880  -38.1850  -22.0460 C.2   229  TRP229      0.2264
     23  O         -8.2110  -38.6030  -23.1090 O.2   229  TRP229     -0.2867
     24  CB        -9.6330  -39.3980  -20.8010 C.3   229  TRP229      0.0550
     25  CG       -10.5010  -38.2320  -20.3340 C.ar  229  TRP229      0.0003
     26  CD1      -10.9520  -38.0390  -19.0040 C.ar  229  TRP229      0.0946
     27  CD2      -11.0190  -37.1040  -21.0840 C.ar  229  TRP229      0.0152
     28  NE1      -11.6460  -36.8770  -18.9240 N.ar  229  TRP229     -0.2442
     29  CE2      -11.7450  -36.2880  -20.1610 C.ar  229  TRP229      0.0810
     30  CE3      -11.0190  -36.7130  -22.4360 C.ar  229  TRP229      0.0012
     31  CZ2      -12.4300  -35.1100  -20.5600 C.ar  229  TRP229      0.0191
     32  CZ3      -11.7130  -35.4460  -22.8210 C.ar  229  TRP229      0.0001
     33  CH2      -12.3510  -34.6970  -21.8800 C.ar  229  TRP229      0.0015
     34  N        -13.7840  -47.7110  -18.9320 N.3   283  PRO283     -0.2102
     35  CA       -14.9930  -47.0590  -19.4730 C.3   283  PRO283      0.1504
     36  C        -14.6930  -45.6470  -19.9000 C.2   283  PRO283      0.2576
     37  O        -15.5580  -45.0280  -20.4910 O.2   283  PRO283     -0.2718
     38  CB       -15.9700  -47.0280  -18.3150 C.3   283  PRO283      0.0282
     39  CG       -15.3920  -48.2480  -17.3100 C.3   283  PRO283      0.0208
     40  CD       -13.9140  -48.2570  -17.5610 C.3   283  PRO283      0.0893
     41  N        -13.5200  -45.1150  -19.5770 N.am  284  LEU284     -0.1966
     42  CA       -13.1920  -43.8060  -19.9680 C.3   284  LEU284      0.1728
     43  C        -12.0500  -43.8670  -20.9220 C.2   284  LEU284      0.2617
     44  O        -11.4550  -42.8380  -21.1230 O.2   284  LEU284     -0.2715
     45  CB       -12.7370  -42.9700  -18.8080 C.3   284  LEU284      0.0311
     46  CG       -13.9440  -42.4340  -18.0620 C.3   284  LEU284      0.0022
     47  CD1      -13.7370  -42.6240  -16.6110 C.3   284  LEU284      0.0001
     48  CD2      -14.0690  -40.9420  -18.4710 C.3   284  LEU284      0.0001
     49  N        -11.7890  -45.0120  -21.5680 N.am  285  SER285     -0.1936
     50  CA       -10.7130  -45.0520  -22.6060 C.3   285  SER285      0.2055
     51  C        -10.8270  -44.1160  -23.7930 C.2   285  SER285      0.2642
     52  O        -11.9250  -43.9810  -24.4070 O.2   285  SER285     -0.2714
     53  CB       -10.6540  -46.4340  -23.2470 C.3   285  SER285      0.2130
     54  OG        -9.8700  -47.3040  -22.4790 O.3   285  SER285     -0.2179
     55  N         -9.7050  -43.5550  -24.1930 N.am  286  VAL286     -0.1977
     56  CA        -9.6690  -42.7810  -25.3610 C.3   286  VAL286      0.1596
     57  C         -8.5460  -43.3230  -26.2170 C.2   286  VAL286      0.2287
     58  O         -7.4130  -42.8850  -26.0730 O.2   286  VAL286     -0.2864
     59  CB        -9.4430  -41.2630  -25.1050 C.3   286  VAL286      0.0276
     60  CG1       -9.2200  -40.5840  -26.3480 C.3   286  VAL286      0.0022
     61  CG2      -10.7190  -40.6450  -24.4420 C.3   286  VAL286      0.0022
     62  N        -20.3690  -43.4520  -15.5810 N.3   327  PHE327     -0.1241
     63  CA       -19.4220  -44.4330  -16.2150 C.3   327  PHE327      0.1605
     64  C        -19.4040  -45.6540  -15.3790 C.2   327  PHE327      0.2264
     65  O        -18.8040  -46.6570  -15.7690 O.2   327  PHE327     -0.2867
     66  CB       -17.9580  -43.9280  -16.5460 C.3   327  PHE327      0.0534
     67  CG       -17.9360  -42.5390  -17.1760 C.ar  327  PHE327     -0.0203
     68  CD1      -18.1340  -41.4060  -16.3840 C.ar  327  PHE327     -0.0042
     69  CD2      -17.7160  -42.3720  -18.5440 C.ar  327  PHE327     -0.0042
     70  CE1      -18.2100  -40.1450  -16.9640 C.ar  327  PHE327     -0.0003
     71  CE2      -17.7950  -41.1320  -19.1210 C.ar  327  PHE327     -0.0003
     72  CZ       -18.0690  -40.0130  -18.3180 C.ar  327  PHE327     -0.0000
     73  N        -12.6480  -35.2640  -14.3870 N.3   396  PHE396     -0.1241
     74  CA       -13.2270  -34.0000  -14.8300 C.3   396  PHE396      0.1605
     75  C        -13.0260  -32.7490  -13.8920 C.2   396  PHE396      0.2264
     76  O        -12.6960  -31.6230  -14.3730 O.2   396  PHE396     -0.2867
     77  CB       -14.7380  -34.1980  -15.0830 C.3   396  PHE396      0.0534
     78  CG       -15.0220  -35.2670  -16.1740 C.ar  396  PHE396     -0.0203
     79  CD1      -15.3890  -36.5760  -15.7920 C.ar  396  PHE396     -0.0042
     80  CD2      -14.9330  -34.9370  -17.5340 C.ar  396  PHE396     -0.0042
     81  CE1      -15.4950  -37.6730  -16.7110 C.ar  396  PHE396     -0.0003
     82  CE2      -15.1090  -35.9270  -18.5510 C.ar  396  PHE396     -0.0003
     83  CZ       -15.4890  -37.3670  -18.1070 C.ar  396  PHE396     -0.0000
     84  N        -22.9550  -36.2790  -15.8050 N.3   436  HIS436     -0.1241
     85  CA       -22.2810  -35.8320  -16.9540 C.3   436  HIS436      0.1621
     86  C        -23.1610  -35.7000  -18.1850 C.2   436  HIS436      0.2264
     87  O        -23.8270  -36.6770  -18.5760 O.2   436  HIS436     -0.2867
     88  CB       -21.2000  -36.8590  -17.2290 C.3   436  HIS436      0.0745
     89  CG       -20.2330  -36.4800  -18.3200 C.ar  436  HIS436      0.0817
     90  ND1      -19.2170  -35.5610  -18.1230 N.ar  436  HIS436     -0.2268
     91  CD2      -20.0050  -37.0330  -19.5290 C.ar  436  HIS436      0.1154
     92  CE1      -18.5270  -35.4350  -19.2480 C.ar  436  HIS436      0.1986
     93  NE2      -18.9580  -36.3590  -20.0980 N.ar  436  HIS436     -0.2212
@<TRIPOS>BOND
     1     4     3    2
     2     2     3    1
     3     2     1    1
     4     3     5   am
     5     7     8    2
     6     7     6    1
     7    18    17    1
     8    60    59    1
     9    19    16    1
    10    17    16    1
    11    57    58    2
    12    57    56    1
    13     5     6    1
    14    16    15    1
    15    56    59    1
    16    56    55    1
    17    59    61    1
    18    52    51    2
    19    15    11   am
    20    55    51   am
    21    51    50    1
    22    11    12    2
    23    11    10    1
    24    53    50    1
    25    53    54    1
    26    23    22    2
    27    32    30   ar
    28    32    33   ar
    29    50    49    1
    30     9    10    1
    31    30    27   ar
    32    13    10    1
    33    13    14    1
    34    22    21    1
    35    33    31   ar
    36    49    43   am
    37    44    43    2
    38    27    25   ar
    39    27    29   ar
    40    43    42    1
    41    21    24    1
    42    21    20    1
    43    24    25    1
    44    31    29   ar
    45    37    36    2
    46    25    26   ar
    47    29    28   ar
    48    93    91   ar
    49    93    92   ar
    50    42    41    1
    51    42    45    1
    52    36    41   am
    53    36    35    1
    54    91    89   ar
    55    35    34    1
    56    35    38    1
    57    92    90   ar
    58    71    69   ar
    59    71    72   ar
    60    26    28   ar
    61    34    40    1
    62    45    46    1
    63    87    86    2
    64    82    83   ar
    65    82    80   ar
    66    69    67   ar
    67    48    46    1
    68    89    90   ar
    69    89    88    1
    70    72    70   ar
    71    38    39    1
    72    86    85    1
    73    83    81   ar
    74    46    47    1
    75    40    39    1
    76    80    78   ar
    77    88    85    1
    78    67    66    1
    79    67    68   ar
    80    70    68   ar
    81    85    84    1
    82    81    79   ar
    83    66    63    1
    84    63    62    1
    85    63    64    1
    86    78    79   ar
    87    78    77    1
    88    65    64    2
    89    77    74    1
    90    74    73    1
    91    74    75    1
    92    76    75    2
