@<TRIPOS>MOLECULE
tmp/2winE01.pdb
 93 88 0 0 0
SMALL
GASTEIGER

@<TRIPOS>ATOM
      1  N         52.5530   64.6590   45.0290 N.3   142  ASN142     -0.1226
      2  CA        52.9620   63.3120   44.6520 C.3   142  ASN142      0.1770
      3  C         51.7560   62.3730   44.6060 C.2   142  ASN142      0.2439
      4  O         50.6530   62.7670   44.9810 O.2   142  ASN142     -0.2733
      5  CB        54.0270   62.7890   45.6220 C.3   142  ASN142      0.1168
      6  CG        53.5200   62.6790   47.0460 C.2   142  ASN142      0.2627
      7  OD1       52.3310   62.8520   47.3100 O.2   142  ASN142     -0.2716
      8  ND2       54.4240   62.3870   47.9740 N.am  142  ASN142     -0.0877
      9  N         51.9590   61.1310   44.1340 N.am  143  PRO143     -0.2718
     10  CA        50.8640   60.1570   44.0510 C.3   143  PRO143      0.1535
     11  C         50.0210   60.0750   45.3230 C.2   143  PRO143      0.2598
     12  O         48.8110   59.8630   45.2370 O.2   143  PRO143     -0.2715
     13  CB        51.5990   58.8370   43.8190 C.3   143  PRO143      0.0310
     14  CG        52.8140   59.2320   43.0610 C.3   143  PRO143      0.0237
     15  CD        53.2120   60.5930   43.5740 C.3   143  PRO143      0.0939
     16  N         50.6490   60.2390   46.4830 N.am  144  GLU144     -0.1964
     17  CA        49.9360   60.1450   47.7540 C.3   144  GLU144      0.1733
     18  C         49.4010   61.4970   48.2230 C.2   144  GLU144      0.2616
     19  O         49.1620   61.7000   49.4130 O.2   144  GLU144     -0.2715
     20  CB        50.8280   59.5220   48.8310 C.3   144  GLU144      0.0429
     21  CG        52.1580   60.2280   49.0260 C.3   144  GLU144      0.1163
     22  CD        53.0130   59.5740   50.0940 C.2   144  GLU144      0.3649
     23  OE1       54.2160   59.8980   50.1760 O.co2 144  GLU144     -0.2457
     24  OE2       52.4810   58.7350   50.8520 O.co2 144  GLU144     -0.2457
     25  N         49.2130   62.4150   47.2800 N.am  145  GLY145     -0.1955
     26  CA        48.6610   63.7240   47.5780 C.3   145  GLY145      0.1869
     27  C         49.4480   64.5000   48.6170 C.2   145  GLY145      0.2309
     28  O         48.9070   64.8970   49.6490 O.2   145  GLY145     -0.2863
     29  N         58.6860   58.3210   44.5620 N.3   173  ASN173     -0.1225
     30  CA        57.6560   57.3330   44.2620 C.3   173  ASN173      0.1785
     31  C         57.0810   57.4890   42.8590 C.2   173  ASN173      0.2597
     32  O         56.7460   58.5950   42.4350 O.2   173  ASN173     -0.2718
     33  CB        56.5290   57.4110   45.2940 C.3   173  ASN173      0.1169
     34  CG        57.0160   57.1790   46.7100 C.2   173  ASN173      0.2627
     35  OD1       58.0840   56.6070   46.9250 O.2   173  ASN173     -0.2716
     36  ND2       56.2320   57.6220   47.6850 N.am  173  ASN173     -0.0877
     37  N         56.9690   56.3750   42.1420 N.am  174  MET174     -0.1965
     38  CA        56.3660   56.3780   40.8150 C.3   174  MET174      0.1736
     39  C         54.8470   56.2940   40.9120 C.2   174  MET174      0.2617
     40  O         54.3040   55.8620   41.9290 O.2   174  MET174     -0.2715
     41  CB        56.9040   55.2220   39.9680 C.3   174  MET174      0.0427
     42  CG        58.2760   55.4750   39.3620 C.3   174  MET174      0.0599
     43  SD        59.6000   55.5220   40.5840 S.3   174  MET174     -0.1393
     44  CE        59.5800   53.8290   41.1690 C.3   174  MET174      0.0692
     45  N         54.1660   56.7110   39.8500 N.am  175  GLY175     -0.1940
     46  CA        52.7150   56.6870   39.8200 C.3   175  GLY175      0.2014
     47  C         52.1310   57.8950   39.1140 C.2   175  GLY175      0.2638
     48  O         52.6710   58.3600   38.1100 O.2   175  GLY175     -0.2714
     49  N         51.0240   58.4050   39.6430 N.am  176  GLN176     -0.1977
     50  CA        50.3540   59.5560   39.0500 C.3   176  GLN176      0.1601
     51  C         50.6220   60.8330   39.8390 C.2   176  GLN176      0.2287
     52  O         50.2200   60.9550   40.9960 O.2   176  GLN176     -0.2864
     53  CB        48.8470   59.3070   38.9510 C.3   176  GLN176      0.0394
     54  CG        48.4660   58.1650   38.0230 C.3   176  GLN176      0.0908
     55  CD        48.8040   58.4540   36.5730 C.2   176  GLN176      0.2608
     56  OE1       49.0440   59.6010   36.1950 O.2   176  GLN176     -0.2717
     57  NE2       48.8190   57.4110   35.7500 N.am  176  GLN176     -0.0878
     58  N         50.4450   65.1750   40.1830 N.3   178  LYS178     -0.1245
     59  CA        49.4670   66.2170   39.8980 C.3   178  LYS178      0.1561
     60  C         50.0410   67.6140   40.1150 C.2   178  LYS178      0.2260
     61  O         50.7830   67.8510   41.0680 O.2   178  LYS178     -0.2867
     62  CB        48.2220   66.0260   40.7680 C.3   178  LYS178      0.0271
     63  CG        47.0830   66.9780   40.4460 C.3   178  LYS178      0.0035
     64  CD        45.9940   66.9110   41.5040 C.3   178  LYS178      0.0206
     65  CE        45.4910   65.4900   41.6950 C.3   178  LYS178      0.1093
     66  NZ        44.4680   65.4080   42.7750 N.3   178  LYS178     -0.1314
     67  N         47.4930   66.1740   35.4700 N.3   194  GLU194     -0.1245
     68  CA        48.3010   65.0500   35.9310 C.3   194  GLU194      0.1567
     69  C         49.3620   64.6140   34.9240 C.2   194  GLU194      0.2260
     70  O         49.1500   64.6720   33.7130 O.2   194  GLU194     -0.2867
     71  CB        47.4060   63.8610   36.2900 C.3   194  GLU194      0.0388
     72  CG        46.4630   64.1190   37.4520 C.3   194  GLU194      0.1160
     73  CD        45.6140   62.9100   37.7930 C.2   194  GLU194      0.3649
     74  OE1       44.9070   62.9490   38.8220 O.co2 194  GLU194     -0.2457
     75  OE2       45.6560   61.9200   37.0320 O.co2 194  GLU194     -0.2457
     76  N         52.2600   61.2920   34.5880 N.3   196  GLU196     -0.1245
     77  CA        52.7290   60.0360   35.1630 C.3   196  GLU196      0.1567
     78  C         54.2510   59.9740   35.2610 C.2   196  GLU196      0.2260
     79  O         54.9600   60.4180   34.3590 O.2   196  GLU196     -0.2867
     80  CB        52.2060   58.8490   34.3500 C.3   196  GLU196      0.0388
     81  CG        52.6100   57.4910   34.9020 C.3   196  GLU196      0.1160
     82  CD        52.0650   56.3410   34.0780 C.2   196  GLU196      0.3649
     83  OE1       51.3880   56.6050   33.0610 O.co2 196  GLU196     -0.2457
     84  OE2       52.3130   55.1740   34.4460 O.co2 196  GLU196     -0.2457
     85  N         57.2910   57.2430   35.6760 N.3   198  LYS198     -0.1245
     86  CA        57.5820   55.8190   35.5690 C.3   198  LYS198      0.1561
     87  C         58.9140   55.5780   34.8670 C.2   198  LYS198      0.2260
     88  O         59.3180   56.3540   34.0010 O.2   198  LYS198     -0.2867
     89  CB        56.4550   55.1140   34.8100 C.3   198  LYS198      0.0271
     90  CG        56.6270   53.6110   34.6680 C.3   198  LYS198      0.0035
     91  CD        55.5520   53.0240   33.7660 C.3   198  LYS198      0.0206
     92  CE        55.6640   51.5110   33.6750 C.3   198  LYS198      0.1093
     93  NZ        55.4140   50.8580   34.9890 N.3   198  LYS198     -0.1314
@<TRIPOS>BOND
     1    83    82   ar
     2    92    91    1
     3    92    93    1
     4    70    69    2
     5    91    90    1
     6    88    87    2
     7    82    84   ar
     8    82    81    1
     9    80    81    1
    10    80    77    1
    11    79    78    2
    12    76    77    1
    13    90    89    1
    14    89    86    1
    15    87    86    1
    16    69    68    1
    17    77    78    1
    18    67    68    1
    19    86    85    1
    20    57    55   am
    21    68    71    1
    22    56    55    2
    23    71    72    1
    24    55    54    1
    25    75    73   ar
    26    72    73    1
    27    73    74   ar
    28    54    53    1
    29    48    47    2
    30    53    50    1
    31    50    49    1
    32    50    51    1
    33    47    49   am
    34    47    46    1
    35    42    41    1
    36    42    43    1
    37    46    45    1
    38    51    52    2
    39    45    39   am
    40    59    60    1
    41    59    58    1
    42    59    62    1
    43    41    38    1
    44    60    61    2
    45    63    62    1
    46    63    64    1
    47    43    44    1
    48    38    39    1
    49    38    37    1
    50    39    40    2
    51    64    65    1
    52    65    66    1
    53    37    31   am
    54    32    31    2
    55    31    30    1
    56    14    15    1
    57    14    13    1
    58    15     9    1
    59    13    10    1
    60    10     9    1
    61    10    11    1
    62     9     3   am
    63    30    29    1
    64    30    33    1
    65     3     2    1
    66     3     4    2
    67     2     1    1
    68     2     5    1
    69    12    11    2
    70    33    34    1
    71    11    16   am
    72     5     6    1
    73    16    17    1
    74    34    35    2
    75    34    36   am
    76     6     7    2
    77     6     8   am
    78    25    26    1
    79    25    18   am
    80    26    27    1
    81    17    18    1
    82    17    20    1
    83    18    19    2
    84    27    28    2
    85    20    21    1
    86    21    22    1
    87    22    23   ar
    88    22    24   ar
