@<TRIPOS>MOLECULE
tmp/2wipC00.pdb
 154 146 0 0 0
SMALL
GASTEIGER

@<TRIPOS>ATOM
      1  N        -31.7350  166.7120   90.0940 N.3    11  ILE11      -0.1231
      2  CA       -32.8190  166.6650   89.1250 C.3    11  ILE11       0.1692
      3  C        -32.2830  166.9860   87.7390 C.2    11  ILE11       0.2592
      4  O        -33.0300  166.9610   86.7560 O.2    11  ILE11      -0.2718
      5  CB       -33.9760  167.6440   89.4940 C.3    11  ILE11       0.0266
      6  CG1      -33.4900  169.0920   89.5150 C.3    11  ILE11       0.0019
      7  CG2      -34.5310  167.2920   90.8610 C.3    11  ILE11       0.0020
      8  CD1      -34.5440  170.0620   90.0150 C.3    11  ILE11       0.0001
      9  N        -30.9800  166.8180   87.5060 N.am   12  GLY12      -0.1957
     10  CA       -30.4170  166.9800   86.1730 C.3    12  GLY12       0.1869
     11  C        -28.9910  167.4800   86.1640 C.2    12  GLY12       0.2309
     12  O        -28.5170  167.9540   87.1850 O.2    12  GLY12      -0.2863
     13  N        -28.1030  170.5170   88.6120 N.3    14  VAL14      -0.1245
     14  CA       -29.2430  171.0980   89.3290 C.3    14  VAL14       0.1561
     15  C        -29.7610  170.1580   90.4350 C.2    14  VAL14       0.2260
     16  O        -29.9620  168.9680   90.2100 O.2    14  VAL14      -0.2867
     17  CB       -30.4140  171.4080   88.3560 C.3    14  VAL14       0.0252
     18  CG1      -31.5490  172.0900   89.1050 C.3    14  VAL14       0.0019
     19  CG2      -29.9290  172.2840   87.2010 C.3    14  VAL14       0.0019
     20  N        -34.7830  174.9460   93.2150 N.3    27  ALA27      -0.1245
     21  CA       -33.8130  174.2530   92.3790 C.3    27  ALA27       0.1562
     22  C        -32.4880  175.0200   92.3840 C.2    27  ALA27       0.2260
     23  O        -32.4440  176.1940   92.0190 O.2    27  ALA27      -0.2867
     24  CB       -34.3520  174.1390   90.9580 C.3    27  ALA27       0.0290
     25  N        -28.9750  175.3620   90.5850 N.3    29  LYS29      -0.1245
     26  CA       -28.0610  175.0400   89.4950 C.3    29  LYS29       0.1561
     27  C        -26.6400  175.3510   89.9370 C.2    29  LYS29       0.2260
     28  O        -26.2610  176.5110   90.0630 O.2    29  LYS29      -0.2867
     29  CB       -28.3990  175.8390   88.2330 C.3    29  LYS29       0.0271
     30  CG       -27.4190  175.6020   87.0890 C.3    29  LYS29       0.0035
     31  CD       -28.1080  175.3900   85.7440 C.3    29  LYS29       0.0206
     32  CE       -28.4790  176.7040   85.0630 C.3    29  LYS29       0.1093
     33  NZ       -28.7980  176.4920   83.6130 N.3    29  LYS29      -0.1314
     34  N        -27.4930  183.9630   81.0400 N.3    47  GLU47      -0.1245
     35  CA       -28.6780  183.4380   81.6930 C.3    47  GLU47       0.1567
     36  C        -29.0750  184.3490   82.8490 C.2    47  GLU47       0.2260
     37  O        -30.2180  184.7930   82.9300 O.2    47  GLU47      -0.2867
     38  CB       -28.4460  182.0190   82.2170 C.3    47  GLU47       0.0388
     39  CG       -29.5910  181.5220   83.1000 C.3    47  GLU47       0.1160
     40  CD       -29.7180  180.0050   83.1570 C.2    47  GLU47       0.3649
     41  OE1      -28.6920  179.3150   83.3350 O.co2  47  GLU47      -0.2457
     42  OE2      -30.8550  179.4970   83.0280 O.co2  47  GLU47      -0.2457
     43  N        -39.3690  180.5720   84.1180 N.3    60  VAL60      -0.1245
     44  CA       -38.8600  180.0820   85.3870 C.3    60  VAL60       0.1561
     45  C        -38.2170  181.2300   86.1570 C.2    60  VAL60       0.2260
     46  O        -37.4760  182.0430   85.5910 O.2    60  VAL60      -0.2867
     47  CB       -37.8190  178.9530   85.1960 C.3    60  VAL60       0.0252
     48  CG1      -36.5850  179.4750   84.4470 C.3    60  VAL60       0.0019
     49  CG2      -37.4230  178.3910   86.5620 C.3    60  VAL60       0.0019
     50  N        -33.3970  178.8290   91.7130 N.3    76  PHE76      -0.1227
     51  CA       -34.6380  178.9900   90.9690 C.3    76  PHE76       0.1736
     52  C        -35.8060  178.5350   91.8250 C.2    76  PHE76       0.2595
     53  O        -35.6260  177.7780   92.7850 O.2    76  PHE76      -0.2718
     54  CB       -34.6190  178.1300   89.7120 C.3    76  PHE76       0.0547
     55  CG       -33.6040  178.5440   88.6920 C.ar   76  PHE76      -0.0202
     56  CD1      -32.3230  178.0110   88.7160 C.ar   76  PHE76      -0.0042
     57  CD2      -33.9560  179.4060   87.6590 C.ar   76  PHE76      -0.0042
     58  CE1      -31.4080  178.3240   87.7190 C.ar   76  PHE76      -0.0003
     59  CE2      -33.0540  179.7270   86.6600 C.ar   76  PHE76      -0.0003
     60  CZ       -31.7760  179.1830   86.6870 C.ar   76  PHE76      -0.0000
     61  N        -37.0060  178.9750   91.4690 N.am   77  GLU77      -0.1965
     62  CA       -38.2090  178.3430   92.0020 C.3    77  GLU77       0.1733
     63  C        -38.1370  176.8760   91.5970 C.2    77  GLU77       0.2616
     64  O        -37.4390  176.5330   90.6470 O.2    77  GLU77      -0.2715
     65  CB       -39.4580  178.9780   91.4000 C.3    77  GLU77       0.0429
     66  CG       -39.4750  178.9580   89.8880 C.3    77  GLU77       0.1163
     67  CD       -40.8030  179.3850   89.3200 C.2    77  GLU77       0.3649
     68  OE1      -40.8160  180.1490   88.3330 O.co2  77  GLU77      -0.2457
     69  OE2      -41.8400  178.9540   89.8610 O.co2  77  GLU77      -0.2457
     70  N        -38.8430  176.0090   92.3150 N.am   78  PHE78      -0.1960
     71  CA       -38.8550  174.5900   91.9760 C.3    78  PHE78       0.1771
     72  C        -40.1370  174.1710   91.2700 C.2    78  PHE78       0.2619
     73  O        -41.2370  174.5260   91.6930 O.2    78  PHE78      -0.2715
     74  CB       -38.6730  173.7370   93.2280 C.3    78  PHE78       0.0574
     75  CG       -38.7950  172.2630   92.9730 C.ar   78  PHE78      -0.0200
     76  CD1      -39.9720  171.5900   93.2630 C.ar   78  PHE78      -0.0042
     77  CD2      -37.7410  171.5490   92.4270 C.ar   78  PHE78      -0.0042
     78  CE1      -40.0950  170.2290   93.0110 C.ar   78  PHE78      -0.0003
     79  CE2      -37.8600  170.1880   92.1730 C.ar   78  PHE78      -0.0003
     80  CZ       -39.0360  169.5310   92.4650 C.ar   78  PHE78      -0.0000
     81  N        -39.9910  173.4150   90.1850 N.am   79  LEU79      -0.1963
     82  CA       -41.1390  172.8120   89.5250 C.3    79  LEU79       0.1728
     83  C        -41.0210  171.2940   89.5240 C.2    79  LEU79       0.2616
     84  O        -39.9820  170.7460   89.8940 O.2    79  LEU79      -0.2715
     85  CB       -41.2750  173.3490   88.1020 C.3    79  LEU79       0.0311
     86  CG       -41.9510  174.7240   88.0390 C.3    79  LEU79       0.0022
     87  CD1      -40.8960  175.8230   88.0920 C.3    79  LEU79       0.0001
     88  CD2      -42.7780  174.8400   86.7610 C.3    79  LEU79       0.0001
     89  N        -42.0880  170.6120   89.1190 N.am   80  HIS80      -0.1959
     90  CA       -42.2230  169.1880   89.4140 C.3    80  HIS80       0.1787
     91  C        -41.6600  168.2580   88.3430 C.2    80  HIS80       0.2620
     92  O        -41.3040  167.1160   88.6330 O.2    80  HIS80      -0.2715
     93  CB       -43.6930  168.8510   89.6730 C.3    80  HIS80       0.0785
     94  CG       -44.3010  169.6430   90.7890 C.ar   80  HIS80       0.0821
     95  ND1      -45.1080  170.7390   90.5720 N.ar   80  HIS80      -0.2267
     96  CD2      -44.2020  169.5080   92.1330 C.ar   80  HIS80       0.1154
     97  CE1      -45.4810  171.2460   91.7330 C.ar   80  HIS80       0.1986
     98  NE2      -44.9440  170.5180   92.6970 N.ar   80  HIS80      -0.2212
     99  N        -41.5720  168.7470   87.1120 N.am   81  GLN81      -0.1963
    100  CA       -41.0910  167.9270   86.0140 C.3    81  GLN81       0.1733
    101  C        -40.9580  168.7380   84.7280 C.2    81  GLN81       0.2616
    102  O        -41.4800  169.8530   84.6320 O.2    81  GLN81      -0.2715
    103  CB       -42.0610  166.7740   85.7930 C.3    81  GLN81       0.0408
    104  CG       -41.6000  165.7670   84.7830 C.3    81  GLN81       0.0908
    105  CD       -42.5700  164.6290   84.6620 C.2    81  GLN81       0.2608
    106  OE1      -43.7800  164.8150   84.8010 O.2    81  GLN81      -0.2717
    107  NE2      -42.0510  163.4370   84.4110 N.am   81  GLN81      -0.0878
    108  N        -40.2690  168.1730   83.7370 N.am   82  ASP82      -0.1971
    109  CA       -40.1950  168.7930   82.4160 C.3    82  ASP82       0.1709
    110  C        -41.1130  168.1290   81.3760 C.2    82  ASP82       0.2293
    111  O        -41.4930  166.9670   81.5120 O.2    82  ASP82      -0.2864
    112  CB       -38.7480  168.7890   81.9190 C.3    82  ASP82       0.1436
    113  CG       -38.2750  167.4140   81.5130 C.2    82  ASP82       0.3671
    114  OD1      -38.8160  166.8720   80.5260 O.co2  82  ASP82      -0.2456
    115  OD2      -37.3610  166.8760   82.1720 O.co2  82  ASP82      -0.2456
    116  N        -40.3010  164.5630   79.7950 N.3    85  LYS85      -0.1245
    117  CA       -40.6720  163.4320   80.6390 C.3    85  LYS85       0.1561
    118  C        -42.1830  163.2260   80.6410 C.2    85  LYS85       0.2260
    119  O        -42.6610  162.0950   80.5820 O.2    85  LYS85      -0.2867
    120  CB       -40.1930  163.6510   82.0750 C.3    85  LYS85       0.0271
    121  CG       -38.6990  163.4940   82.2720 C.3    85  LYS85       0.0035
    122  CD       -38.2850  163.9130   83.6810 C.3    85  LYS85       0.0206
    123  CE       -36.7780  163.7840   83.8840 C.3    85  LYS85       0.1093
    124  NZ       -36.0070  164.5290   82.8480 N.3    85  LYS85      -0.1314
    125  N        -37.5670  169.3100   76.9320 N.3   127  GLN127     -0.1245
    126  CA       -36.9100  169.1470   78.2230 C.3   127  GLN127      0.1566
    127  C        -36.5270  170.4680   78.8880 C.2   127  GLN127      0.2260
    128  O        -36.1820  170.4930   80.0690 O.2   127  GLN127     -0.2867
    129  CB       -35.6740  168.2670   78.0840 C.3   127  GLN127      0.0367
    130  CG       -34.7330  168.7010   76.9960 C.3   127  GLN127      0.0905
    131  CD       -33.5990  167.7240   76.8160 C.2   127  GLN127      0.2608
    132  OE1      -32.7890  167.5250   77.7220 O.2   127  GLN127     -0.2717
    133  NE2      -33.5340  167.1000   75.6440 N.am  127  GLN127     -0.0878
    134  N        -40.7450  173.5090   81.7890 N.3   130  LEU130     -0.1245
    135  CA       -41.0910  172.9590   83.0940 C.3   130  LEU130      0.1561
    136  C        -42.5680  173.1240   83.4380 C.2   130  LEU130      0.2260
    137  O        -43.1810  174.1590   83.1640 O.2   130  LEU130     -0.2867
    138  CB       -40.2390  173.6200   84.1720 C.3   130  LEU130      0.0270
    139  CG       -38.7350  173.4810   83.9550 C.3   130  LEU130      0.0019
    140  CD1      -38.0140  174.2520   85.0340 C.3   130  LEU130      0.0001
    141  CD2      -38.3270  172.0210   83.9830 C.3   130  LEU130      0.0001
    142  N        -37.6750  177.5920   80.5750 N.3   140  ALA140     -0.1231
    143  CA       -36.4770  177.4990   81.3910 C.3   140  ALA140      0.1694
    144  C        -35.2380  177.2510   80.5380 C.2   140  ALA140      0.2592
    145  O        -35.3100  177.1740   79.3080 O.2   140  ALA140     -0.2718
    146  CB       -36.6400  176.3960   82.4280 C.3   140  ALA140      0.0304
    147  N        -34.0980  177.1420   81.2080 N.am  141  ASP141     -0.1974
    148  CA       -32.8080  176.9900   80.5510 C.3   141  ASP141      0.1709
    149  C        -32.5180  178.0720   79.5170 C.2   141  ASP141      0.2293
    150  O        -32.7230  177.8770   78.3200 O.2   141  ASP141     -0.2864
    151  CB       -32.7060  175.6220   79.8980 C.3   141  ASP141      0.1436
    152  CG       -31.2790  175.2450   79.5990 C.2   141  ASP141      0.3671
    153  OD1      -30.4470  176.1680   79.4320 O.co2 141  ASP141     -0.2456
    154  OD2      -30.9860  174.0320   79.5440 O.co2 141  ASP141     -0.2456
@<TRIPOS>BOND
     1   133   131   am
     2   131   130    1
     3   131   132    2
     4   125   126    1
     5   130   129    1
     6   129   126    1
     7   126   127    1
     8   150   149    2
     9   127   128    2
    10   145   144    2
    11   153   152   ar
    12   149   148    1
    13   154   152   ar
    14   152   151    1
    15   116   117    1
    16   151   148    1
    17   114   113   ar
    18   144   147   am
    19   144   143    1
    20   148   147    1
    21   142   143    1
    22   119   118    2
    23   117   118    1
    24   117   120    1
    25    34    35    1
    26   110   111    2
    27   110   109    1
    28   143   146    1
    29   113   112    1
    30   113   115   ar
    31    35    38    1
    32    35    36    1
    33   134   135    1
    34   112   109    1
    35   120   121    1
    36    38    39    1
    37   121   122    1
    38   109   108    1
    39   124   123    1
    40    36    37    2
    41    42    40   ar
    42   135   136    1
    43   135   138    1
    44    39    40    1
    45    40    41   ar
    46   137   136    2
    47    33    32    1
    48   122   123    1
    49   108   101   am
    50   139   141    1
    51   139   138    1
    52   139   140    1
    53    43    44    1
    54   107   105   am
    55    48    47    1
    56   102   101    2
    57   105   104    1
    58   105   106    2
    59   101   100    1
    60   104   103    1
    61    32    31    1
    62    47    44    1
    63    47    49    1
    64    44    45    1
    65    46    45    2
    66    31    30    1
    67   103   100    1
    68   100    99    1
    69    11    10    1
    70    11    12    2
    71    10     9    1
    72    59    60   ar
    73    59    57   ar
    74    60    58   ar
    75     4     3    2
    76    88    86    1
    77    30    29    1
    78    99    91   am
    79    19    17    1
    80     9     3   am
    81    57    55   ar
    82    58    56   ar
    83     3     2    1
    84    86    87    1
    85    86    85    1
    86    85    82    1
    87    29    26    1
    88    68    67   ar
    89    91    92    2
    90    91    90    1
    91    17    18    1
    92    17    14    1
    93    13    14    1
    94    55    56   ar
    95    55    54    1
    96    89    90    1
    97    89    83   am
    98     2     5    1
    99     2     1    1
   100    67    69   ar
   101    67    66    1
   102    14    15    1
   103    90    93    1
   104     5     6    1
   105     5     7    1
   106    26    27    1
   107    26    25    1
   108     6     8    1
   109    83    82    1
   110    83    84    2
   111    82    81    1
   112    93    94    1
   113    54    51    1
   114    66    65    1
   115    27    28    2
   116    81    72   am
   117    16    15    2
   118    95    94   ar
   119    95    97   ar
   120    64    63    2
   121    94    96   ar
   122    24    21    1
   123    51    50    1
   124    51    52    1
   125    72    73    2
   126    72    71    1
   127    65    62    1
   128    61    52   am
   129    61    62    1
   130    63    62    1
   131    63    70   am
   132    97    98   ar
   133    52    53    2
   134    71    70    1
   135    71    74    1
   136    23    22    2
   137    96    98   ar
   138    79    77   ar
   139    79    80   ar
   140    21    22    1
   141    21    20    1
   142    77    75   ar
   143    80    78   ar
   144    75    74    1
   145    75    76   ar
   146    78    76   ar
