@<TRIPOS>MOLECULE
tmp/2wiwA01.pdb
 92 85 0 0 0
SMALL
GASTEIGER

@<TRIPOS>ATOM
      1  N         -3.5930   10.1430  -46.6740 N.3    60  ALA60      -0.1245
      2  CA        -4.6660   11.0090  -46.2210 C.3    60  ALA60       0.1562
      3  C         -5.0740   10.6290  -44.8030 C.2    60  ALA60       0.2260
      4  O         -5.3970   11.4940  -44.0050 O.2    60  ALA60      -0.2867
      5  CB        -5.8730   10.8920  -47.1460 C.3    60  ALA60       0.0290
      6  N         -2.4990   11.9980  -42.2400 N.3    63  VAL63      -0.1231
      7  CA        -2.6320   13.4460  -42.0830 C.3    63  VAL63       0.1692
      8  C         -3.9430   13.8140  -41.3510 C.2    63  VAL63       0.2591
      9  O         -3.9620   14.7440  -40.5120 O.2    63  VAL63      -0.2718
     10  CB        -2.5460   14.1570  -43.4410 C.3    63  VAL63       0.0266
     11  CG1       -2.8270   15.6270  -43.3040 C.3    63  VAL63       0.0020
     12  CG2       -1.1580   13.9080  -44.0810 C.3    63  VAL63       0.0020
     13  N         -5.0200   13.0930  -41.6440 N.am   64  GLU64      -0.1979
     14  CA        -6.3010   13.3730  -40.9910 C.3    64  GLU64       0.1602
     15  C         -6.1780   13.1190  -39.4800 C.2    64  GLU64       0.2287
     16  O         -6.6380   13.9080  -38.6740 O.2    64  GLU64      -0.2864
     17  CB        -7.4330   12.5150  -41.5490 C.3    64  GLU64       0.0415
     18  CG        -8.6860   12.6350  -40.6900 C.3    64  GLU64       0.1163
     19  CD        -9.9090   11.9960  -41.3160 C.2    64  GLU64       0.3649
     20  OE1      -10.0320   12.0550  -42.5510 O.co2  64  GLU64      -0.2457
     21  OE2      -10.7500   11.4490  -40.5690 O.co2  64  GLU64      -0.2457
     22  N         -4.0590   15.9430  -37.8440 N.3    67  VAL67      -0.1231
     23  CA        -4.7980   17.1910  -37.7480 C.3    67  VAL67       0.1692
     24  C         -5.9020   17.0670  -36.6720 C.2    67  VAL67       0.2592
     25  O         -6.1640   17.9940  -35.9200 O.2    67  VAL67      -0.2718
     26  CB        -5.3900   17.5750  -39.1310 C.3    67  VAL67       0.0266
     27  CG1       -6.4060   18.6830  -39.0080 C.3    67  VAL67       0.0020
     28  CG2       -4.2480   17.9950  -40.0580 C.3    67  VAL67       0.0020
     29  N         -6.5370   15.9160  -36.5990 N.am   68  THR68      -0.1953
     30  CA        -7.6330   15.7360  -35.6470 C.3    68  THR68       0.1897
     31  C         -7.0720   15.7730  -34.2360 C.2    68  THR68       0.2313
     32  O         -7.6420   16.3920  -33.3470 O.2    68  THR68      -0.2863
     33  CB        -8.3730   14.4210  -35.9080 C.3    68  THR68       0.1794
     34  OG1       -8.9970   14.4930  -37.2020 O.3    68  THR68      -0.2208
     35  CG2       -9.4540   14.1660  -34.8430 C.3    68  THR68       0.0378
     36  N         -6.0690   19.4300  -33.3570 N.3    71  ARG71      -0.1245
     37  CA        -7.2280   20.2590  -33.0450 C.3    71  ARG71       0.1563
     38  C         -7.8160   19.9050  -31.6560 C.2    71  ARG71       0.2260
     39  O         -8.2100   20.7920  -30.8800 O.2    71  ARG71      -0.2867
     40  CB        -8.3020   20.0800  -34.1370 C.3    71  ARG71       0.0307
     41  CG        -9.5690   20.8810  -33.8830 C.3    71  ARG71       0.0489
     42  CD       -10.4500   20.9750  -35.1350 C.3    71  ARG71       0.2205
     43  NE        -9.7880   21.6750  -36.2390 N.pl3  71  ARG71      -0.0865
     44  CZ        -9.4530   21.1220  -37.4050 C.cat  71  ARG71       0.5346
     45  NH1       -9.7230   19.8450  -37.6600 N.pl3  71  ARG71       0.1354
     46  NH2       -8.8570   21.8600  -38.3330 N.pl3  71  ARG71       0.1354
     47  N          1.6010   21.3090  -41.2290 N.3    93  VAL93      -0.1231
     48  CA         0.7630   20.5110  -42.1130 C.3    93  VAL93       0.1692
     49  C          0.2490   21.3510  -43.2870 C.2    93  VAL93       0.2591
     50  O          0.0290   20.8360  -44.3760 O.2    93  VAL93      -0.2718
     51  CB        -0.3830   19.8550  -41.3150 C.3    93  VAL93       0.0266
     52  CG1       -1.4290   19.2780  -42.2250 C.3    93  VAL93       0.0020
     53  CG2        0.1850   18.7740  -40.4100 C.3    93  VAL93       0.0020
     54  N          0.0720   22.6450  -43.0700 N.am   94  GLN94      -0.1979
     55  CA        -0.4070   23.5240  -44.1470 C.3    94  GLN94       0.1601
     56  C          0.5400   23.6080  -45.3690 C.2    94  GLN94       0.2287
     57  O          0.1160   24.0080  -46.4470 O.2    94  GLN94      -0.2864
     58  CB        -0.6740   24.9340  -43.6150 C.3    94  GLN94       0.0394
     59  CG        -1.8460   25.0110  -42.6170 C.3    94  GLN94       0.0908
     60  CD        -1.4440   24.8360  -41.1340 C.2    94  GLN94       0.2608
     61  OE1       -0.3700   24.3130  -40.8010 O.2    94  GLN94      -0.2717
     62  NE2       -2.3330   25.2740  -40.2380 N.am   94  GLN94      -0.0878
     63  N          2.0600   20.9200  -46.7100 N.3    96  LEU96      -0.1245
     64  CA         2.0390   19.6840  -47.4770 C.3    96  LEU96       0.1561
     65  C          1.3540   19.9580  -48.8200 C.2    96  LEU96       0.2260
     66  O          0.4630   20.8050  -48.8950 O.2    96  LEU96      -0.2867
     67  CB         1.2530   18.5980  -46.7540 C.3    96  LEU96       0.0270
     68  CG         1.7970   18.1750  -45.3790 C.3    96  LEU96       0.0019
     69  CD1        0.9270   17.0950  -44.7910 C.3    96  LEU96       0.0001
     70  CD2        3.2400   17.7050  -45.5210 C.3    96  LEU96       0.0001
     71  N         -0.8430   18.2190  -52.0880 N.3    98  ARG98      -0.1245
     72  CA        -1.7090   17.0730  -52.3200 C.3    98  ARG98       0.1563
     73  C         -1.3140   16.2820  -53.5520 C.2    98  ARG98       0.2260
     74  O         -0.8450   16.8440  -54.5620 O.2    98  ARG98      -0.2867
     75  CB        -3.1650   17.5080  -52.4470 C.3    98  ARG98       0.0307
     76  CG        -3.7070   18.0970  -51.1800 C.3    98  ARG98       0.0489
     77  CD        -5.1290   18.5560  -51.3670 C.3    98  ARG98       0.2205
     78  NE        -5.6640   19.0900  -50.1220 N.pl3  98  ARG98      -0.0865
     79  CZ        -6.3850   18.3890  -49.2560 C.cat  98  ARG98       0.5346
     80  NH1       -6.6770   17.1170  -49.4980 N.pl3  98  ARG98       0.1354
     81  NH2       -6.8160   18.9680  -48.1470 N.pl3  98  ARG98       0.1354
     82  N         -0.8180   12.9840  -49.7040 N.3   103  PHE103     -0.1241
     83  CA        -0.0110   14.1850  -49.4630 C.3   103  PHE103      0.1605
     84  C          1.4710   13.9100  -49.6930 C.2   103  PHE103      0.2264
     85  O          1.8970   12.7600  -49.6960 O.2   103  PHE103     -0.2867
     86  CB        -0.1870   14.6830  -48.0180 C.3   103  PHE103      0.0534
     87  CG        -1.5740   15.1460  -47.7110 C.ar  103  PHE103     -0.0203
     88  CD1       -1.9000   16.4840  -47.7910 C.ar  103  PHE103     -0.0042
     89  CD2       -2.5630   14.2350  -47.3810 C.ar  103  PHE103     -0.0042
     90  CE1       -3.1780   16.9110  -47.5190 C.ar  103  PHE103     -0.0003
     91  CE2       -3.8470   14.6670  -47.1110 C.ar  103  PHE103     -0.0003
     92  CZ        -4.1470   16.0020  -47.1840 C.ar  103  PHE103     -0.0000
@<TRIPOS>BOND
     1    74    73    2
     2    73    72    1
     3    75    72    1
     4    75    76    1
     5    72    71    1
     6    77    76    1
     7    77    78    1
     8    78    79    2
     9    82    83    1
    10    85    84    2
    11    84    83    1
    12    80    79    1
    13    83    86    1
    14    79    81    1
    15    66    65    2
    16    65    64    1
    17    86    87    1
    18    88    87   ar
    19    88    90   ar
    20    87    89   ar
    21    90    92   ar
    22    64    67    1
    23    64    63    1
    24    89    91   ar
    25    92    91   ar
    26     5     2    1
    27    67    68    1
    28     1     2    1
    29    57    56    2
    30     2     3    1
    31    70    68    1
    32    68    69    1
    33    56    55    1
    34     3     4    2
    35    50    49    2
    36    55    58    1
    37    55    54    1
    38    12    10    1
    39    58    59    1
    40    10    11    1
    41    10     7    1
    42    49    54   am
    43    49    48    1
    44    59    60    1
    45    20    19   ar
    46     6     7    1
    47    52    51    1
    48    48    51    1
    49    48    47    1
    50     7     8    1
    51    13     8   am
    52    13    14    1
    53    17    14    1
    54    17    18    1
    55     8     9    2
    56    19    18    1
    57    19    21   ar
    58    51    53    1
    59    60    61    2
    60    60    62   am
    61    14    15    1
    62    28    26    1
    63    15    16    2
    64    26    27    1
    65    26    23    1
    66    46    44    1
    67    22    23    1
    68    23    24    1
    69    45    44    1
    70    44    43    2
    71    34    33    1
    72    24    29   am
    73    24    25    2
    74    29    30    1
    75    43    42    1
    76    33    30    1
    77    33    35    1
    78    30    31    1
    79    42    41    1
    80    31    32    2
    81    40    41    1
    82    40    37    1
    83    36    37    1
    84    37    38    1
    85    38    39    2
