@<TRIPOS>MOLECULE
tmp/2wj1A00.pdb
 218 206 0 0 0
SMALL
GASTEIGER

@<TRIPOS>ATOM
      1  N          7.4060  -30.7820   -3.9290 N.3   109  LYS109     -0.1245
      2  CA         6.3280  -31.0030   -2.9760 C.3   109  LYS109      0.1561
      3  C          5.5540  -29.6980   -2.8120 C.2   109  LYS109      0.2260
      4  O          6.1390  -28.6050   -2.8620 O.2   109  LYS109     -0.2867
      5  CB         6.9110  -31.4880   -1.6480 C.3   109  LYS109      0.0271
      6  CG         5.9000  -31.9560   -0.5920 C.3   109  LYS109      0.0035
      7  CD         6.5930  -32.5960    0.5680 C.3   109  LYS109      0.0206
      8  CE         5.6660  -33.0180    1.6970 C.3   109  LYS109      0.1093
      9  NZ         6.4040  -33.8530    2.7190 N.3   109  LYS109     -0.1314
     10  N         -2.6830  -31.8310    5.5360 N.3   157  SER157     -0.1202
     11  CA        -1.7940  -31.3670    6.6420 C.3   157  SER157      0.2020
     12  C         -0.3120  -31.7700    6.5160 C.2   157  SER157      0.2619
     13  O          0.5210  -31.2200    7.2350 O.2   157  SER157     -0.2717
     14  CB        -2.3240  -31.7660    8.0240 C.3   157  SER157      0.2103
     15  OG        -1.9130  -33.0680    8.4310 O.3   157  SER157     -0.2182
     16  N         -0.0190  -32.7090    5.6130 N.am  158  MET158     -0.1965
     17  CA         1.2920  -33.3660    5.4060 C.3   158  MET158      0.1736
     18  C          1.7310  -34.3880    6.4720 C.2   158  MET158      0.2616
     19  O          2.7680  -35.0740    6.2760 O.2   158  MET158     -0.2715
     20  CB         2.4140  -32.3270    5.1970 C.3   158  MET158      0.0427
     21  CG         2.2890  -31.5130    3.9030 C.3   158  MET158      0.0599
     22  SD         3.8480  -30.6420    3.6630 S.3   158  MET158     -0.1393
     23  CE         3.8160  -29.5040    5.0580 C.3   158  MET158      0.0692
     24  N          0.9830  -34.4900    7.5640 N.am  159  PHE159     -0.1960
     25  CA         1.3410  -35.3470    8.6840 C.3   159  PHE159      0.1771
     26  C          0.6910  -36.7200    8.5210 C.2   159  PHE159      0.2620
     27  O         -0.3020  -37.0390    9.1570 O.2   159  PHE159     -0.2715
     28  CB         1.0040  -34.7000   10.0330 C.3   159  PHE159      0.0574
     29  CG         1.6990  -35.3670   11.2000 C.ar  159  PHE159     -0.0200
     30  CD1        0.9860  -36.0640   12.1510 C.ar  159  PHE159     -0.0042
     31  CD2        3.0930  -35.2920   11.3300 C.ar  159  PHE159     -0.0042
     32  CE1        1.6390  -36.6980   13.2080 C.ar  159  PHE159     -0.0003
     33  CE2        3.7490  -35.9160   12.3900 C.ar  159  PHE159     -0.0003
     34  CZ         3.0130  -36.6300   13.3220 C.ar  159  PHE159     -0.0000
     35  N          1.3020  -37.5220    7.6570 N.am  160  SER160     -0.1936
     36  CA         0.7170  -38.7970    7.2050 C.3   160  SER160      0.2055
     37  C          1.6990  -39.4210    6.2500 C.2   160  SER160      0.2643
     38  O          2.4190  -38.6860    5.5520 O.2   160  SER160     -0.2714
     39  CB        -0.6210  -38.5370    6.4850 C.3   160  SER160      0.2130
     40  OG        -1.1370  -39.6740    5.7760 O.3   160  SER160     -0.2179
     41  N          1.7890  -40.7500    6.2250 N.am  161  TYR161     -0.1973
     42  CA         2.5600  -41.4210    5.1750 C.3   161  TYR161      0.1639
     43  C          1.6860  -42.0650    4.0880 C.2   161  TYR161      0.2290
     44  O          2.1300  -42.9660    3.3930 O.2   161  TYR161     -0.2864
     45  CB         3.7020  -42.3360    5.7170 C.3   161  TYR161      0.0560
     46  CG         3.3270  -43.6160    6.4390 C.ar  161  TYR161     -0.0198
     47  CD1        3.4340  -44.8600    5.8080 C.ar  161  TYR161     -0.0009
     48  CD2        2.8740  -43.5910    7.7580 C.ar  161  TYR161     -0.0009
     49  CE1        3.0850  -46.0570    6.4760 C.ar  161  TYR161      0.0417
     50  CE2        2.5640  -44.7630    8.4330 C.ar  161  TYR161      0.0417
     51  CZ         2.6740  -46.0050    7.7940 C.ar  161  TYR161      0.1957
     52  OH         2.2950  -47.1670    8.4780 O.3   161  TYR161     -0.2866
     53  N          4.1390  -41.2400    1.6720 N.3   183  GLY183     -0.1210
     54  CA         4.1490  -39.8170    1.7740 C.3   183  GLY183      0.1956
     55  C          4.6400  -39.3400    3.1160 C.2   183  GLY183      0.2612
     56  O          5.2940  -40.1310    3.8530 O.2   183  GLY183     -0.2717
     57  N          4.7970  -38.0340    3.1080 N.am  184  SER184     -0.1952
     58  CA         3.7630  -37.1140    2.8070 C.3   184  SER184      0.1924
     59  C          4.2870  -36.5670    1.4370 C.2   184  SER184      0.2314
     60  O          3.5360  -35.9200    0.7130 O.2   184  SER184     -0.2863
     61  CB         3.5470  -36.0140    3.8530 C.3   184  SER184      0.2116
     62  OG         4.7140  -35.3310    4.2190 O.3   184  SER184     -0.2180
     63  N         10.0460  -33.1780    1.9650 N.3   203  THR203     -0.1218
     64  CA        10.3470  -32.8500    3.3520 C.3   203  THR203      0.1862
     65  C          9.9940  -34.0710    4.2170 C.2   203  THR203      0.2287
     66  O          9.2040  -34.9570    3.7930 O.2   203  THR203     -0.2866
     67  CB         9.6220  -31.6220    3.8410 C.3   203  THR203      0.1770
     68  OG1        8.2200  -31.8710    3.8920 O.3   203  THR203     -0.2211
     69  CG2        9.9230  -30.4120    2.9400 C.3   203  THR203      0.0375
     70  N          9.5930  -35.3090    8.4960 N.3   205  ILE205     -0.1231
     71  CA         9.6090  -35.1670    9.9430 C.3   205  ILE205      0.1692
     72  C          9.4580  -36.5270   10.6890 C.2   205  ILE205      0.2592
     73  O          9.7840  -36.6380   11.8840 O.2   205  ILE205     -0.2718
     74  CB         8.5200  -34.1500   10.4140 C.3   205  ILE205      0.0266
     75  CG1        8.9770  -33.4410   11.6880 C.3   205  ILE205      0.0019
     76  CG2        7.1430  -34.8100   10.5520 C.3   205  ILE205      0.0020
     77  CD1        7.9860  -32.3230   12.1980 C.3   205  ILE205      0.0001
     78  N          8.9190  -37.5320   10.0090 N.am  206  GLY206     -0.1957
     79  CA         8.7550  -38.8730   10.5790 C.3   206  GLY206      0.1869
     80  C          9.0000  -39.9880    9.5720 C.2   206  GLY206      0.2309
     81  O          8.7530  -41.1420    9.8900 O.2   206  GLY206     -0.2863
     82  N          8.7160  -38.8750    5.7830 N.3   208  SER208     -0.1217
     83  CA         8.0210  -38.3640    4.5770 C.3   208  SER208      0.1889
     84  C          8.8150  -38.2100    3.2580 C.2   208  SER208      0.2288
     85  O          8.2250  -38.0320    2.2250 O.2   208  SER208     -0.2866
     86  CB         7.3290  -37.0520    4.9380 C.3   208  SER208      0.2089
     87  OG         6.1870  -37.3130    5.7570 O.3   208  SER208     -0.2183
     88  N          9.4870  -42.8760    3.0800 N.3   211  PHE211     -0.1241
     89  CA         8.3310  -43.7150    2.7080 C.3   211  PHE211      0.1605
     90  C          8.0120  -43.6760    1.2280 C.2   211  PHE211      0.2264
     91  O          7.9510  -44.7230    0.5910 O.2   211  PHE211     -0.2867
     92  CB         7.0600  -43.3720    3.4840 C.3   211  PHE211      0.0534
     93  CG         7.1470  -43.6320    4.9330 C.ar  211  PHE211     -0.0203
     94  CD1        7.2920  -44.9270    5.4160 C.ar  211  PHE211     -0.0042
     95  CD2        7.0170  -42.5860    5.8490 C.ar  211  PHE211     -0.0042
     96  CE1        7.3480  -45.1760    6.7700 C.ar  211  PHE211     -0.0003
     97  CE2        7.0520  -42.8370    7.2090 C.ar  211  PHE211     -0.0003
     98  CZ         7.2100  -44.1230    7.6710 C.ar  211  PHE211     -0.0000
     99  N          5.9510  -23.7870    3.4630 N.3   234  LYS234     -0.1231
    100  CA         4.6270  -23.7260    4.0800 C.3   234  LYS234      0.1693
    101  C          4.5070  -24.8560    5.0790 C.2   234  LYS234      0.2593
    102  O          4.8360  -25.9960    4.7830 O.2   234  LYS234     -0.2718
    103  CB         3.5250  -23.8570    3.0180 C.3   234  LYS234      0.0285
    104  CG         2.1020  -23.8490    3.5310 C.3   234  LYS234      0.0035
    105  CD         1.7690  -22.6100    4.3290 C.3   234  LYS234      0.0206
    106  CE         0.2750  -22.6250    4.7010 C.3   234  LYS234      0.1093
    107  NZ        -0.1780  -21.4340    5.4560 N.3   234  LYS234     -0.1314
    108  N          4.0270  -24.5430    6.2710 N.am  235  GLY235     -0.1942
    109  CA         3.8450  -25.5670    7.2940 C.3   235  GLY235      0.2014
    110  C          2.4850  -25.4530    7.9310 C.2   235  GLY235      0.2639
    111  O          1.6310  -24.7200    7.4640 O.2   235  GLY235     -0.2714
    112  N          2.2580  -26.2190    8.9810 N.am  236  CYS236     -0.1953
    113  CA         1.0110  -26.0720    9.6970 C.3   236  CYS236      0.1843
    114  C          1.1250  -26.1140   11.2280 C.2   236  CYS236      0.2625
    115  O          0.1320  -25.8610   11.9200 O.2   236  CYS236     -0.2714
    116  CB        -0.0040  -27.0750    9.1690 C.3   236  CYS236      0.0997
    117  SG         0.2840  -28.6950    9.6700 S.3   236  CYS236     -0.0797
    118  N          2.3210  -26.3950   11.7530 N.am  237  VAL237     -0.1977
    119  CA         2.6020  -26.2450   13.1780 C.3   237  VAL237      0.1596
    120  C          3.8400  -25.3220   13.2470 C.2   237  VAL237      0.2287
    121  O          4.7840  -25.5060   12.4880 O.2   237  VAL237     -0.2864
    122  CB         2.8530  -27.6200   13.8610 C.3   237  VAL237      0.0276
    123  CG1        3.1120  -27.4630   15.3580 C.3   237  VAL237      0.0022
    124  CG2        1.6510  -28.5490   13.6470 C.3   237  VAL237      0.0022
    125  N         11.9460  -30.5410   11.2290 N.3   245  LEU245     -0.1245
    126  CA        11.6220  -30.9060    9.8890 C.3   245  LEU245      0.1561
    127  C         12.9190  -30.8510    9.1020 C.2   245  LEU245      0.2260
    128  O         13.7500  -30.0320    9.3870 O.2   245  LEU245     -0.2867
    129  CB        10.6860  -29.8240    9.3630 C.3   245  LEU245      0.0270
    130  CG        10.1740  -30.0110    7.9610 C.3   245  LEU245      0.0019
    131  CD1        9.3420  -31.2800    7.9240 C.3   245  LEU245      0.0001
    132  CD2        9.3800  -28.7760    7.5690 C.3   245  LEU245      0.0001
    133  N          6.8220  -38.8080   19.9170 N.3   344  THR344     -0.1218
    134  CA         5.3990  -38.4780   20.0330 C.3   344  THR344      0.1862
    135  C          5.1870  -37.2510   20.9160 C.2   344  THR344      0.2287
    136  O          4.3880  -36.3570   20.5870 O.2   344  THR344     -0.2866
    137  CB         4.5920  -39.6810   20.5810 C.3   344  THR344      0.1770
    138  OG1        4.8410  -40.8220   19.7580 O.3   344  THR344     -0.2211
    139  CG2        3.1280  -39.3820   20.5790 C.3   344  THR344      0.0375
    140  N          6.3790  -34.0440   19.0100 N.3   347  LEU347     -0.1231
    141  CA         5.3980  -33.6810   17.9910 C.3   347  LEU347      0.1693
    142  C          4.0790  -33.1690   18.5530 C.2   347  LEU347      0.2592
    143  O          3.4710  -32.3060   17.9420 O.2   347  LEU347     -0.2718
    144  CB         5.1410  -34.8690   17.0640 C.3   347  LEU347      0.0284
    145  CG         6.4200  -35.3010   16.3140 C.3   347  LEU347      0.0019
    146  CD1        6.1920  -36.6390   15.6570 C.3   347  LEU347      0.0001
    147  CD2        6.8880  -34.2750   15.3070 C.3   347  LEU347      0.0001
    148  N          3.6500  -33.6970   19.6960 N.am  348  PHE348     -0.1976
    149  CA         2.3530  -33.3370   20.3040 C.3   348  PHE348      0.1639
    150  C          2.4190  -32.8350   21.7440 C.2   348  PHE348      0.2290
    151  O          1.4970  -33.1020   22.5600 O.2   348  PHE348     -0.2864
    152  CB         1.3940  -34.5210   20.1940 C.3   348  PHE348      0.0560
    153  CG         1.0100  -34.8340   18.7630 C.ar  348  PHE348     -0.0200
    154  CD1        0.2580  -33.9170   18.0230 C.ar  348  PHE348     -0.0042
    155  CD2        1.4250  -36.0060   18.1500 C.ar  348  PHE348     -0.0042
    156  CE1       -0.0770  -34.1770   16.6990 C.ar  348  PHE348     -0.0003
    157  CE2        1.0850  -36.2760   16.8180 C.ar  348  PHE348     -0.0003
    158  CZ         0.3430  -35.3510   16.1000 C.ar  348  PHE348     -0.0000
    159  N         -1.9680  -28.1610   15.9610 N.3   355  PHE355     -0.1241
    160  CA        -2.2560  -28.9560   14.7630 C.3   355  PHE355      0.1605
    161  C         -3.7450  -28.9240   14.4200 C.2   355  PHE355      0.2264
    162  O         -4.0920  -28.7200   13.2750 O.2   355  PHE355     -0.2867
    163  CB        -1.7630  -30.3940   14.9710 C.3   355  PHE355      0.0534
    164  CG        -1.9410  -31.3250   13.7790 C.ar  355  PHE355     -0.0203
    165  CD1       -1.2240  -31.1460   12.6050 C.ar  355  PHE355     -0.0042
    166  CD2       -2.7470  -32.4310   13.8820 C.ar  355  PHE355     -0.0042
    167  CE1       -1.3620  -32.0440   11.5300 C.ar  355  PHE355     -0.0003
    168  CE2       -2.8840  -33.3230   12.8420 C.ar  355  PHE355     -0.0003
    169  CZ        -2.1920  -33.1270   11.6530 C.ar  355  PHE355     -0.0000
    170  N         -6.6940  -40.0770   13.7840 N.3   371  LEU371     -0.1245
    171  CA        -5.7280  -39.1870   14.4350 C.3   371  LEU371      0.1561
    172  C         -6.4020  -37.9140   14.9470 C.2   371  LEU371      0.2260
    173  O         -6.1490  -37.5220   16.0700 O.2   371  LEU371     -0.2867
    174  CB        -4.5410  -38.8430   13.5160 C.3   371  LEU371      0.0270
    175  CG        -3.5170  -37.8530   14.1160 C.3   371  LEU371      0.0019
    176  CD1       -2.9020  -38.4420   15.3700 C.3   371  LEU371      0.0001
    177  CD2       -2.4240  -37.4270   13.1280 C.3   371  LEU371      0.0001
    178  N          1.5280  -44.1850   23.3130 N.3   399  PHE399     -0.1241
    179  CA         1.2400  -43.1160   22.3510 C.3   399  PHE399      0.1605
    180  C          0.1610  -42.1870   22.8870 C.2   399  PHE399      0.2264
    181  O          0.3100  -40.9740   22.8010 O.2   399  PHE399     -0.2867
    182  CB         0.8460  -43.6830   20.9840 C.3   399  PHE399      0.0534
    183  CG         2.0220  -43.9020   20.0460 C.ar  399  PHE399     -0.0203
    184  CD1        2.2340  -43.0420   18.9730 C.ar  399  PHE399     -0.0042
    185  CD2        2.9080  -44.9670   20.2210 C.ar  399  PHE399     -0.0042
    186  CE1        3.3100  -43.2230   18.0900 C.ar  399  PHE399     -0.0003
    187  CE2        4.0020  -45.1530   19.3300 C.ar  399  PHE399     -0.0003
    188  CZ         4.1940  -44.2740   18.2730 C.ar  399  PHE399     -0.0000
    189  N          0.5890  -37.9790   23.9030 N.3   403  MET403     -0.1245
    190  CA        -0.0950  -36.9920   23.0470 C.3   403  MET403      0.1570
    191  C         -0.9490  -36.0220   23.8650 C.2   403  MET403      0.2261
    192  O         -1.8220  -35.3730   23.3200 O.2   403  MET403     -0.2867
    193  CB        -0.9970  -37.7050   22.0390 C.3   403  MET403      0.0387
    194  CG        -0.2390  -38.3750   20.8780 C.3   403  MET403      0.0595
    195  SD        -1.2520  -39.5360   19.9460 S.3   403  MET403     -0.1393
    196  CE        -1.2440  -38.7130   18.3490 C.3   403  MET403      0.0692
    197  N          0.2520  -46.7120   12.6520 N.3   455  THR455     -0.1218
    198  CA         1.1960  -45.6650   13.0790 C.3   455  THR455      0.1862
    199  C          2.4950  -46.2430   13.6350 C.2   455  THR455      0.2287
    200  O          3.5250  -45.6160   13.5010 O.2   455  THR455     -0.2866
    201  CB         0.5580  -44.7360   14.0920 C.3   455  THR455      0.1770
    202  OG1       -0.4410  -43.9620   13.4310 O.3   455  THR455     -0.2211
    203  CG2        1.5830  -43.7930   14.6890 C.3   455  THR455      0.0375
    204  N          6.0470  -46.4040   11.5880 N.3   458  VAL458     -0.1245
    205  CA         6.9750  -45.3020   11.3850 C.3   458  VAL458      0.1561
    206  C          8.2430  -45.4720   12.2320 C.2   458  VAL458      0.2260
    207  O          9.1730  -44.6460   12.1390 O.2   458  VAL458     -0.2867
    208  CB         6.3720  -43.9190   11.7120 C.3   458  VAL458      0.0252
    209  CG1        5.0840  -43.6850   10.9240 C.3   458  VAL458      0.0019
    210  CG2        6.1620  -43.7820   13.2320 C.3   458  VAL458      0.0019
    211  N         11.1570  -42.6930   11.9270 N.3   462  MET462     -0.1245
    212  CA        11.0300  -41.6030   12.8790 C.3   462  MET462      0.1570
    213  C         12.1830  -41.5180   13.8970 C.2   462  MET462      0.2261
    214  O         12.5000  -40.4340   14.3500 O.2   462  MET462     -0.2867
    215  CB         9.6740  -41.6190   13.6050 C.3   462  MET462      0.0387
    216  CG         9.3790  -40.3100   14.3520 C.3   462  MET462      0.0595
    217  SD         7.6600  -40.2540   14.8180 S.3   462  MET462     -0.1393
    218  CE         7.5820  -41.5020   16.1340 C.3   462  MET462      0.0692
@<TRIPOS>BOND
     1     1     2    1
     2     2     3    1
     3     2     5    1
     4     4     3    2
     5     5     6    1
     6     6     7    1
     7     7     8    1
     8    91    90    2
     9    60    59    2
    10    90    89    1
    11    59    58    1
    12    53    54    1
    13     8     9    1
    14    54    55    1
    15    63    64    1
    16    85    84    2
    17    89    88    1
    18    89    92    1
    19    58    57    1
    20    58    61    1
    21    69    67    1
    22   103   104    1
    23   103   100    1
    24    57    55   am
    25    55    56    2
    26    84    83    1
    27    64    67    1
    28    64    65    1
    29    44    43    2
    30    99   100    1
    31    92    93    1
    32   104   105    1
    33    22    21    1
    34    22    23    1
    35    66    65    2
    36    67    68    1
    37    61    62    1
    38    21    20    1
    39   100   101    1
    40    43    42    1
    41   105   106    1
    42    83    86    1
    43    83    82    1
    44   106   107    1
    45   102   101    2
    46    93    94   ar
    47    93    95   ar
    48    86    87    1
    49   101   108   am
    50    42    45    1
    51    42    41    1
    52    20    17    1
    53    17    16    1
    54    17    18    1
    55    94    96   ar
    56    10    11    1
    57    38    37    2
    58    16    12   am
    59    45    46    1
    60    40    39    1
    61    47    46   ar
    62    47    49   ar
    63    95    97   ar
    64    41    37   am
    65    37    36    1
    66   108   109    1
    67    19    18    2
    68    46    48   ar
    69    18    24   am
    70    49    51   ar
    71    39    36    1
    72    12    11    1
    73    12    13    2
    74    11    14    1
    75    96    98   ar
    76    36    35    1
    77    97    98   ar
    78   109   110    1
    79   111   110    2
    80    24    25    1
    81   132   130    1
    82    35    26   am
    83    48    50   ar
    84    51    50   ar
    85    51    52    1
    86   131   130    1
    87   110   112   am
    88   130   129    1
    89    14    15    1
    90    70    71    1
    91    26    25    1
    92    26    27    2
    93    25    28    1
    94   112   113    1
    95   127   128    2
    96   127   126    1
    97   116   117    1
    98   116   113    1
    99   129   126    1
   100    80    81    2
   101    80    79    1
   102   113   114    1
   103   126   125    1
   104    71    74    1
   105    71    72    1
   106    78    79    1
   107    78    72   am
   108    28    29    1
   109    74    76    1
   110    74    75    1
   111    72    73    2
   112   209   208    1
   113    29    31   ar
   114    29    30   ar
   115   114   118   am
   116   114   115    2
   117    31    33   ar
   118   205   204    1
   119   205   208    1
   120   205   206    1
   121   167   169   ar
   122   167   165   ar
   123   169   168   ar
   124    75    77    1
   125   208   210    1
   126   118   119    1
   127   211   212    1
   128   207   206    2
   129    30    32   ar
   130    33    34   ar
   131   121   120    2
   132   165   164   ar
   133   197   198    1
   134   168   166   ar
   135   212   215    1
   136   212   213    1
   137   198   199    1
   138   198   201    1
   139   177   175    1
   140   119   120    1
   141   119   122    1
   142    32    34   ar
   143   162   161    2
   144   202   201    1
   145   200   199    2
   146   174   175    1
   147   174   171    1
   148   215   216    1
   149   124   122    1
   150   164   166   ar
   151   164   163    1
   152   170   171    1
   153   122   123    1
   154   213   214    2
   155   201   203    1
   156   175   176    1
   157   216   217    1
   158   161   160    1
   159   171   172    1
   160   160   163    1
   161   160   159    1
   162   217   218    1
   163   172   173    2
   164   147   145    1
   165   146   145    1
   166   158   156   ar
   167   158   157   ar
   168   145   144    1
   169   156   154   ar
   170   157   155   ar
   171   144   141    1
   172   143   142    2
   173   141   142    1
   174   141   140    1
   175   154   153   ar
   176   186   188   ar
   177   186   184   ar
   178   155   153   ar
   179   188   187   ar
   180   196   195    1
   181   142   148   am
   182   153   152    1
   183   184   183   ar
   184   187   185   ar
   185   148   149    1
   186   138   137    1
   187   133   134    1
   188   195   194    1
   189   134   137    1
   190   134   135    1
   191   183   185   ar
   192   183   182    1
   193   152   149    1
   194   149   150    1
   195   139   137    1
   196   136   135    2
   197   194   193    1
   198   182   179    1
   199   150   151    2
   200   193   190    1
   201   179   180    1
   202   179   178    1
   203   181   180    2
   204   190   191    1
   205   190   189    1
   206   192   191    2
