@<TRIPOS>MOLECULE
tmp/2wj4C00.pdb
 160 159 0 0 0
SMALL
GASTEIGER

@<TRIPOS>ATOM
      1  N         21.1750  103.8720   41.9900 N.3    34  GLY34      -0.1210
      2  CA        20.1430  104.3570   42.8740 C.3    34  GLY34       0.1956
      3  C         20.6640  105.5950   43.5560 C.2    34  GLY34       0.2611
      4  O         21.6300  106.2100   43.0780 O.2    34  GLY34      -0.2717
      5  N         20.0400  105.9270   44.6730 N.am   35  TRP35      -0.1976
      6  CA        20.3640  107.1170   45.4730 C.3    35  TRP35       0.1640
      7  C         21.4650  106.9260   46.4890 C.2    35  TRP35       0.2290
      8  O         21.4900  105.9530   47.2500 O.2    35  TRP35      -0.2864
      9  CB        19.1030  107.6540   46.1940 C.3    35  TRP35       0.0576
     10  CG        18.2200  108.3700   45.2630 C.ar   35  TRP35       0.0006
     11  CD1       17.1630  107.8600   44.5630 C.ar   35  TRP35       0.0946
     12  CD2       18.2960  109.7600   44.9150 C.ar   35  TRP35       0.0152
     13  NE1       16.5940  108.8320   43.8010 N.ar   35  TRP35      -0.2442
     14  CE2       17.2730  110.0100   43.9860 C.ar   35  TRP35       0.0810
     15  CE3       19.1560  110.8180   45.2880 C.ar   35  TRP35       0.0012
     16  CZ2       17.0460  111.2920   43.4330 C.ar   35  TRP35       0.0191
     17  CZ3       18.9300  112.1090   44.7250 C.ar   35  TRP35       0.0001
     18  CH2       17.8800  112.3200   43.8200 C.ar   35  TRP35       0.0015
     19  N         24.6010  106.4770   46.1470 N.3    37  HIS37      -0.1241
     20  CA        25.7900  105.7460   45.8240 C.3    37  HIS37       0.1621
     21  C         26.1160  106.0230   44.3770 C.2    37  HIS37       0.2264
     22  O         25.3870  106.7320   43.6750 O.2    37  HIS37      -0.2867
     23  CB        25.6320  104.2340   46.1800 C.3    37  HIS37       0.0745
     24  CG        24.6810  103.4980   45.3020 C.ar   37  HIS37       0.0817
     25  ND1       24.5700  102.1130   45.3260 N.ar   37  HIS37      -0.2268
     26  CD2       23.8020  103.9360   44.3650 C.ar   37  HIS37       0.1154
     27  CE1       23.6680  101.7380   44.4360 C.ar   37  HIS37       0.1986
     28  NE2       23.1870  102.8150   43.8370 N.ar   37  HIS37      -0.2212
     29  N         19.2660  100.0750   39.2980 N.3    99  HIS99      -0.1226
     30  CA        19.2850   99.5140   40.6180 C.3    99  HIS99       0.1752
     31  C         18.3450  100.2260   41.5420 C.2    99  HIS99       0.2597
     32  O         18.3800  101.4830   41.6500 O.2    99  HIS99      -0.2718
     33  CB        20.6810   99.4820   41.2380 C.3    99  HIS99       0.0759
     34  CG        20.6420   99.1690   42.6910 C.ar   99  HIS99       0.0818
     35  ND1       20.3760   97.9070   43.1630 N.ar   99  HIS99      -0.2268
     36  CD2       20.7080   99.9670   43.7790 C.ar   99  HIS99       0.1154
     37  CE1       20.3290   97.9270   44.4790 C.ar   99  HIS99       0.1986
     38  NE2       20.5200   99.1680   44.8850 N.ar   99  HIS99      -0.2212
     39  N         17.5240   99.4350   42.2370 N.am  100  SER100     -0.1938
     40  CA        16.5510   99.9210   43.1510 C.3   100  SER100      0.2055
     41  C         15.8870  101.2130   42.5490 C.2   100  SER100      0.2643
     42  O         15.4460  101.1860   41.3790 O.2   100  SER100     -0.2714
     43  CB        17.1390  100.1050   44.5110 C.3   100  SER100      0.2130
     44  OG        16.1020  100.3520   45.4310 O.3   100  SER100     -0.2179
     45  N         15.8350  102.2930   43.3450 N.am  101  HIS101     -0.1973
     46  CA        15.0440  103.5120   42.9720 C.3   101  HIS101      0.1656
     47  C         15.6580  104.3560   41.8280 C.2   101  HIS101      0.2291
     48  O         15.0650  105.3820   41.3960 O.2   101  HIS101     -0.2864
     49  CB        14.7720  104.3160   44.2160 C.3   101  HIS101      0.0771
     50  CG        13.9200  103.5730   45.1850 C.ar  101  HIS101      0.0820
     51  ND1       12.5850  103.3330   44.9470 N.ar  101  HIS101     -0.2267
     52  CD2       14.2220  102.9470   46.3470 C.ar  101  HIS101      0.1154
     53  CE1       12.0860  102.6430   45.9560 C.ar  101  HIS101      0.1986
     54  NE2       13.0690  102.3580   46.7970 N.ar  101  HIS101     -0.2212
     55  N          9.1600  100.5300   55.4970 N.3   135  PHE135     -0.1241
     56  CA         9.8680  101.3330   54.4900 C.3   135  PHE135      0.1605
     57  C          9.4230  102.8210   54.4960 C.2   135  PHE135      0.2264
     58  O         10.2320  103.7130   54.2850 O.2   135  PHE135     -0.2867
     59  CB         9.6540  100.7700   53.0990 C.3   135  PHE135      0.0534
     60  CG        10.4450  101.4830   52.0350 C.ar  135  PHE135     -0.0203
     61  CD1       11.8180  101.5090   52.0750 C.ar  135  PHE135     -0.0042
     62  CD2        9.8050  102.1100   50.9970 C.ar  135  PHE135     -0.0042
     63  CE1       12.5480  102.1380   51.0810 C.ar  135  PHE135     -0.0003
     64  CE2       10.5130  102.7580   50.0360 C.ar  135  PHE135     -0.0003
     65  CZ        11.8900  102.7680   50.0640 C.ar  135  PHE135     -0.0000
     66  N         11.8460  106.0840   55.1470 N.3   139  LEU139     -0.1245
     67  CA        11.8800  107.3020   54.3570 C.3   139  LEU139      0.1561
     68  C         11.7470  108.5350   55.2950 C.2   139  LEU139      0.2260
     69  O         12.4740  109.5380   55.1180 O.2   139  LEU139     -0.2867
     70  CB        10.7900  107.3030   53.2960 C.3   139  LEU139      0.0270
     71  CG        10.9360  106.2360   52.2210 C.3   139  LEU139      0.0019
     72  CD1        9.7160  106.2000   51.3020 C.3   139  LEU139      0.0001
     73  CD2       12.1980  106.4310   51.4210 C.3   139  LEU139      0.0001
     74  N         15.0670  109.2200   56.9840 N.3   142  LEU142     -0.1245
     75  CA        16.0610  109.7680   56.0770 C.3   142  LEU142      0.1561
     76  C         15.8670  111.2970   55.8630 C.2   142  LEU142      0.2260
     77  O         16.8260  112.0460   55.6490 O.2   142  LEU142     -0.2867
     78  CB        15.9760  109.1010   54.6840 C.3   142  LEU142      0.0270
     79  CG        16.4650  107.6460   54.5310 C.3   142  LEU142      0.0019
     80  CD1       16.2710  107.1280   53.0810 C.3   142  LEU142      0.0001
     81  CD2       17.9020  107.5410   54.9870 C.3   142  LEU142      0.0001
     82  N         17.9450  100.5670   56.9450 N.3   155  LEU155     -0.1245
     83  CA        17.9360  100.1660   55.5610 C.3   155  LEU155      0.1561
     84  C         19.0800   99.1720   55.3010 C.2   155  LEU155      0.2260
     85  O         18.8570   98.1620   54.6690 O.2   155  LEU155     -0.2867
     86  CB        18.0410  101.3500   54.5960 C.3   155  LEU155      0.0270
     87  CG        16.7730  102.1730   54.3920 C.3   155  LEU155      0.0019
     88  CD1       17.1230  103.4050   53.5900 C.3   155  LEU155      0.0001
     89  CD2       15.6430  101.3520   53.6890 C.3   155  LEU155      0.0001
     90  N         18.7000   95.3240   53.7860 N.3   159  TRP159     -0.1241
     91  CA        19.3700   95.0100   52.5460 C.3   159  TRP159      0.1605
     92  C         20.3350   93.8280   52.6690 C.2   159  TRP159      0.2264
     93  O         20.5060   93.0530   51.7310 O.2   159  TRP159     -0.2867
     94  CB        20.1410   96.2570   52.0220 C.3   159  TRP159      0.0550
     95  CG        19.2360   97.4070   51.6200 C.ar  159  TRP159      0.0003
     96  CD1       17.9100   97.3550   51.3470 C.ar  159  TRP159      0.0946
     97  CD2       19.6300   98.7830   51.4350 C.ar  159  TRP159      0.0152
     98  NE1       17.4270   98.6270   51.0560 N.ar  159  TRP159     -0.2442
     99  CE2       18.4740   99.5080   51.0750 C.ar  159  TRP159      0.0810
    100  CE3       20.8350   99.4650   51.6020 C.ar  159  TRP159      0.0012
    101  CZ2       18.4840  100.9180   50.8660 C.ar  159  TRP159      0.0191
    102  CZ3       20.8710  100.8250   51.3450 C.ar  159  TRP159      0.0001
    103  CH2       19.6730  101.5540   50.9860 C.ar  159  TRP159      0.0015
    104  N         29.5950  103.9230   50.5250 N.3   176  MET176     -0.1245
    105  CA        28.5810  104.9610   50.8070 C.3   176  MET176      0.1570
    106  C         28.9230  105.8440   52.0370 C.2   176  MET176      0.2261
    107  O         28.0840  106.6520   52.4820 O.2   176  MET176     -0.2867
    108  CB        27.2090  104.3350   51.0570 C.3   176  MET176      0.0387
    109  CG        26.5550  103.6510   49.8550 C.3   176  MET176      0.0595
    110  SD        24.9990  102.9060   50.4290 S.3   176  MET176     -0.1393
    111  CE        24.1720  102.5680   48.9110 C.3   176  MET176      0.0692
    112  N         20.9960  111.7980   51.4870 N.3   184  TRP184     -0.1241
    113  CA        20.0450  110.8820   52.1030 C.3   184  TRP184      0.1605
    114  C         18.6790  111.5220   52.3160 C.2   184  TRP184      0.2264
    115  O         17.6420  110.9380   51.9910 O.2   184  TRP184     -0.2867
    116  CB        20.6180  110.2820   53.3970 C.3   184  TRP184      0.0550
    117  CG        21.6770  109.2630   53.1090 C.ar  184  TRP184      0.0003
    118  CD1       23.0060  109.3990   53.2610 C.ar  184  TRP184      0.0946
    119  CD2       21.4730  107.9410   52.5740 C.ar  184  TRP184      0.0152
    120  NE1       23.6720  108.2490   52.8620 N.ar  184  TRP184     -0.2442
    121  CE2       22.7490  107.3370   52.4440 C.ar  184  TRP184      0.0810
    122  CE3       20.3360  107.2000   52.2190 C.ar  184  TRP184      0.0012
    123  CZ2       22.9210  106.0050   51.9760 C.ar  184  TRP184      0.0191
    124  CZ3       20.5170  105.8760   51.7500 C.ar  184  TRP184      0.0001
    125  CH2       21.8080  105.3090   51.6380 C.ar  184  TRP184      0.0015
    126  N         16.9830  111.7720   48.8650 N.3   187  SER187     -0.1217
    127  CA        16.4980  110.4430   48.3900 C.3   187  SER187      0.1889
    128  C         15.1180  110.1780   49.0380 C.2   187  SER187      0.2288
    129  O         14.1330  109.8510   48.3750 O.2   187  SER187     -0.2866
    130  CB        17.5450  109.3380   48.6900 C.3   187  SER187      0.2089
    131  OG        17.6810  109.0580   50.0540 O.3   187  SER187     -0.2183
    132  N         11.8640  109.8900   46.7190 N.3   191  ILE191     -0.1245
    133  CA        11.2840  108.5160   46.6350 C.3   191  ILE191      0.1561
    134  C          9.8570  108.5190   47.1890 C.2   191  ILE191      0.2260
    135  O          8.9510  107.9890   46.6010 O.2   191  ILE191     -0.2867
    136  CB        12.1620  107.4480   47.3800 C.3   191  ILE191      0.0252
    137  CG1       13.4750  107.2240   46.6120 C.3   191  ILE191      0.0019
    138  CG2       11.3720  106.1420   47.4490 C.3   191  ILE191      0.0019
    139  CD1       14.5570  106.4690   47.3830 C.3   191  ILE191      0.0001
    140  N         19.9130   92.9200   48.7910 N.3   250  HIS250     -0.1226
    141  CA        19.2890   93.9510   47.9570 C.3   250  HIS250      0.1752
    142  C         20.1250   94.3470   46.7660 C.2   250  HIS250      0.2596
    143  O         19.6000   94.9640   45.8570 O.2   250  HIS250     -0.2718
    144  CB        19.0050   95.1520   48.8770 C.3   250  HIS250      0.0759
    145  CG        18.4840   96.3610   48.1830 C.ar  250  HIS250      0.0818
    146  ND1       17.3160   96.3520   47.4620 N.ar  250  HIS250     -0.2268
    147  CD2       18.9630   97.6320   48.1300 C.ar  250  HIS250      0.1154
    148  CE1       17.1220   97.5620   46.9520 C.ar  250  HIS250      0.1986
    149  NE2       18.0890   98.3640   47.3710 N.ar  250  HIS250     -0.2212
    150  N         21.4050   93.9300   46.7280 N.am  251  PHE251     -0.1976
    151  CA        22.3450   94.2600   45.6540 C.3   251  PHE251      0.1639
    152  C         22.8270   93.0750   44.7730 C.2   251  PHE251      0.2290
    153  O         23.9640   92.6430   44.9100 O.2   251  PHE251     -0.2864
    154  CB        23.5590   94.9470   46.2770 C.3   251  PHE251      0.0560
    155  CG        23.2010   96.2220   47.0090 C.ar  251  PHE251     -0.0200
    156  CD1       22.7810   96.1950   48.3150 C.ar  251  PHE251     -0.0042
    157  CD2       23.2890   97.4450   46.3600 C.ar  251  PHE251     -0.0042
    158  CE1       22.4640   97.4020   48.9900 C.ar  251  PHE251     -0.0003
    159  CE2       22.9550   98.6310   47.0230 C.ar  251  PHE251     -0.0003
    160  CZ        22.5300   98.6010   48.3060 C.ar  251  PHE251     -0.0000
@<TRIPOS>BOND
     1    29    30    1
     2    30    33    1
     3    30    31    1
     4    33    34    1
     5    42    41    2
     6    48    47    2
     7    31    32    2
     8    31    39   am
     9    47    46    1
    10     1     2    1
    11    39    40    1
    12    41    40    1
    13    41    45   am
    14    34    35   ar
    15    34    36   ar
    16     2     3    1
    17    46    45    1
    18    46    49    1
    19     4     3    2
    20    40    43    1
    21    35    37   ar
    22    16    18   ar
    23    16    14   ar
    24     3     5   am
    25    22    21    2
    26    36    38   ar
    27    13    14   ar
    28    13    11   ar
    29    18    17   ar
    30    28    26   ar
    31    28    27   ar
    32    14    12   ar
    33    49    50    1
    34    26    24   ar
    35    21    20    1
    36    27    25   ar
    37    37    38   ar
    38    43    44    1
    39    11    10   ar
    40     5     6    1
    41    17    15   ar
    42   152   153    2
    43   152   151    1
    44    12    10   ar
    45    12    15   ar
    46    51    50   ar
    47    51    53   ar
    48    50    52   ar
    49    10     9    1
    50    24    25   ar
    51    24    23    1
    52     6     9    1
    53     6     7    1
    54   151   154    1
    55   151   150    1
    56    20    19    1
    57    20    23    1
    58   143   142    2
    59    53    54   ar
    60   154   155    1
    61    52    54   ar
    62   157   155   ar
    63   157   159   ar
    64     7     8    2
    65   135   134    2
    66   137   136    1
    67   137   139    1
    68   133   132    1
    69   133   134    1
    70   133   136    1
    71   150   142   am
    72   142   141    1
    73   148   149   ar
    74   148   146   ar
    75   155   156   ar
    76   159   160   ar
    77   149   147   ar
    78   136   138    1
    79   146   145   ar
    80   141   140    1
    81   141   144    1
    82   147   145   ar
    83   145   144    1
    84   160   158   ar
    85   156   158   ar
    86   129   128    2
    87   127   130    1
    88   127   126    1
    89   127   128    1
    90   130   131    1
    91   111   110    1
    92   109   110    1
    93   109   108    1
    94    64    65   ar
    95    64    62   ar
    96    65    63   ar
    97   104   105    1
    98   105   108    1
    99   105   106    1
   100   101   103   ar
   101   101    99   ar
   102   103   102   ar
   103    62    60   ar
   104    98    99   ar
   105    98    96   ar
   106    99    97   ar
   107    63    61   ar
   108    72    71    1
   109   102   100   ar
   110    96    95   ar
   111    73    71    1
   112    97   100   ar
   113    97    95   ar
   114   112   113    1
   115    95    94    1
   116   125   124   ar
   117   125   123   ar
   118    93    92    2
   119   124   122   ar
   120   123   121   ar
   121   115   114    2
   122    94    91    1
   123    60    61   ar
   124    60    59    1
   125   106   107    2
   126   113   114    1
   127   113   116    1
   128   122   119   ar
   129    71    70    1
   130   121   119   ar
   131   121   120   ar
   132    91    92    1
   133    91    90    1
   134   119   117   ar
   135   120   118   ar
   136    80    79    1
   137    59    56    1
   138   117   118   ar
   139   117   116    1
   140    70    67    1
   141    88    87    1
   142    89    87    1
   143    58    57    2
   144    67    66    1
   145    67    68    1
   146    87    86    1
   147    56    57    1
   148    56    55    1
   149    79    78    1
   150    79    81    1
   151    86    83    1
   152    85    84    2
   153    78    75    1
   154    69    68    2
   155    84    83    1
   156    83    82    1
   157    77    76    2
   158    76    75    1
   159    75    74    1
