@<TRIPOS>MOLECULE
tmp/2wj6C00.pdb
 160 159 0 0 0
SMALL
GASTEIGER

@<TRIPOS>ATOM
      1  N         20.9610  103.9500   41.9800 N.3    34  GLY34      -0.1210
      2  CA        19.9640  104.4960   42.8820 C.3    34  GLY34       0.1956
      3  C         20.4660  105.7690   43.5170 C.2    34  GLY34       0.2611
      4  O         21.5060  106.3000   43.1130 O.2    34  GLY34      -0.2717
      5  N         19.7340  106.2300   44.5260 N.am   35  TRP35      -0.1976
      6  CA        20.1410  107.3620   45.3660 C.3    35  TRP35       0.1640
      7  C         21.2320  107.0470   46.3480 C.2    35  TRP35       0.2290
      8  O         21.1990  106.0220   47.0230 O.2    35  TRP35      -0.2864
      9  CB        18.9560  107.8940   46.1720 C.3    35  TRP35       0.0576
     10  CG        18.0280  108.6240   45.2680 C.ar   35  TRP35       0.0006
     11  CD1       16.9320  108.1260   44.6220 C.ar   35  TRP35       0.0946
     12  CD2       18.1490  109.9920   44.8720 C.ar   35  TRP35       0.0152
     13  NE1       16.3500  109.1080   43.8610 N.ar   35  TRP35      -0.2442
     14  CE2       17.0860  110.2630   43.9860 C.ar   35  TRP35       0.0810
     15  CE3       19.0420  111.0180   45.2020 C.ar   35  TRP35       0.0012
     16  CZ2       16.8920  111.5220   43.4130 C.ar   35  TRP35       0.0191
     17  CZ3       18.8570  112.2790   44.6340 C.ar   35  TRP35       0.0001
     18  CH2       17.7900  112.5180   43.7510 C.ar   35  TRP35       0.0015
     19  N         24.3600  106.5200   46.2020 N.3    37  HIS37      -0.1241
     20  CA        25.5370  105.7570   45.8730 C.3    37  HIS37       0.1621
     21  C         25.9310  106.0730   44.4390 C.2    37  HIS37       0.2264
     22  O         25.2950  106.8780   43.7670 O.2    37  HIS37      -0.2867
     23  CB        25.3640  104.2500   46.1770 C.3    37  HIS37       0.0745
     24  CG        24.5070  103.5070   45.2080 C.ar   37  HIS37       0.0817
     25  ND1       24.4310  102.1240   45.2060 N.ar   37  HIS37      -0.2268
     26  CD2       23.6910  103.9330   44.2110 C.ar   37  HIS37       0.1154
     27  CE1       23.6130  101.7310   44.2390 C.ar   37  HIS37       0.1986
     28  NE2       23.1460  102.8100   43.6240 N.ar   37  HIS37      -0.2212
     29  N         19.1900  100.2460   39.3640 N.3    99  HIS99      -0.1226
     30  CA        19.1390   99.8140   40.7500 C.3    99  HIS99       0.1752
     31  C         18.0590  100.4920   41.5810 C.2    99  HIS99       0.2597
     32  O         18.1240  101.7040   41.8890 O.2    99  HIS99      -0.2718
     33  CB        20.4560  100.0020   41.4880 C.3    99  HIS99       0.0759
     34  CG        20.3540   99.6170   42.9190 C.ar   99  HIS99       0.0818
     35  ND1       20.2690   98.3070   43.3230 N.ar   99  HIS99      -0.2268
     36  CD2       20.2030  100.3620   44.0320 C.ar   99  HIS99       0.1154
     37  CE1       20.1130   98.2590   44.6310 C.ar   99  HIS99       0.1986
     38  NE2       20.0780   99.4970   45.0890 N.ar   99  HIS99      -0.2212
     39  N         17.1090   99.6530   42.0070 N.am  100  SER100     -0.1938
     40  CA        16.0640  100.0090   42.9090 C.3   100  SER100      0.2055
     41  C         15.4090  101.3470   42.5010 C.2   100  SER100      0.2643
     42  O         14.9270  101.4350   41.3930 O.2   100  SER100     -0.2714
     43  CB        16.5770   99.9500   44.3210 C.3   100  SER100      0.2130
     44  OG        15.5520  100.1950   45.2430 O.3   100  SER100     -0.2179
     45  N         15.4660  102.3860   43.3420 N.am  101  HIS101     -0.1973
     46  CA        14.6940  103.6020   43.0380 C.3   101  HIS101      0.1656
     47  C         15.3200  104.4760   41.9940 C.2   101  HIS101      0.2291
     48  O         14.7680  105.5010   41.6310 O.2   101  HIS101     -0.2864
     49  CB        14.3510  104.3350   44.2930 C.3   101  HIS101      0.0771
     50  CG        13.4330  103.5690   45.1580 C.ar  101  HIS101      0.0820
     51  ND1       12.1020  103.3790   44.8400 N.ar  101  HIS101     -0.2267
     52  CD2       13.6640  102.8580   46.2810 C.ar  101  HIS101      0.1154
     53  CE1       11.5490  102.6270   45.7680 C.ar  101  HIS101      0.1986
     54  NE2       12.4740  102.3020   46.6510 N.ar  101  HIS101     -0.2212
     55  N          8.9490  100.3570   55.3300 N.3   135  PHE135     -0.1241
     56  CA         9.6060  101.1920   54.3450 C.3   135  PHE135      0.1605
     57  C          9.1150  102.6610   54.4140 C.2   135  PHE135      0.2264
     58  O          9.8870  103.6010   54.2590 O.2   135  PHE135     -0.2867
     59  CB         9.3560  100.6500   52.9500 C.3   135  PHE135      0.0534
     60  CG        10.0920  101.3930   51.8940 C.ar  135  PHE135     -0.0203
     61  CD1       11.4690  101.4650   51.9330 C.ar  135  PHE135     -0.0042
     62  CD2        9.4220  102.0150   50.8620 C.ar  135  PHE135     -0.0042
     63  CE1       12.1680  102.1360   50.9720 C.ar  135  PHE135     -0.0003
     64  CE2       10.1220  102.7170   49.8840 C.ar  135  PHE135     -0.0003
     65  CZ        11.5020  102.7730   49.9510 C.ar  135  PHE135     -0.0000
     66  N         11.5600  106.0290   55.0250 N.3   139  LEU139     -0.1245
     67  CA        11.5950  107.2730   54.2610 C.3   139  LEU139      0.1561
     68  C         11.3940  108.5050   55.1880 C.2   139  LEU139      0.2260
     69  O         12.0590  109.5490   55.0340 O.2   139  LEU139     -0.2867
     70  CB        10.5590  107.2560   53.1570 C.3   139  LEU139      0.0270
     71  CG        10.6750  106.1790   52.0820 C.3   139  LEU139      0.0019
     72  CD1        9.4400  106.2000   51.1940 C.3   139  LEU139      0.0001
     73  CD2       11.9440  106.3690   51.2360 C.3   139  LEU139      0.0001
     74  N         14.7510  109.0670   57.0020 N.3   142  LEU142     -0.1245
     75  CA        15.7430  109.7090   56.1180 C.3   142  LEU142      0.1561
     76  C         15.4850  111.2260   55.9430 C.2   142  LEU142      0.2260
     77  O         16.4250  112.0370   55.7740 O.2   142  LEU142     -0.2867
     78  CB        15.7590  109.0410   54.7390 C.3   142  LEU142      0.0270
     79  CG        16.1490  107.5490   54.6960 C.3   142  LEU142      0.0019
     80  CD1       15.9560  107.0410   53.2880 C.3   142  LEU142      0.0001
     81  CD2       17.5760  107.3610   55.1650 C.3   142  LEU142      0.0001
     82  N         17.5530  100.5950   56.8810 N.3   155  LEU155     -0.1245
     83  CA        17.5890  100.1910   55.4920 C.3   155  LEU155      0.1561
     84  C         18.7480   99.2260   55.2230 C.2   155  LEU155      0.2260
     85  O         18.5570   98.2370   54.5210 O.2   155  LEU155     -0.2867
     86  CB        17.6460  101.3890   54.5520 C.3   155  LEU155      0.0270
     87  CG        16.3250  102.1690   54.3490 C.3   155  LEU155      0.0019
     88  CD1       16.5720  103.4580   53.5800 C.3   155  LEU155      0.0001
     89  CD2       15.2880  101.3490   53.5900 C.3   155  LEU155      0.0001
     90  N         18.3920   95.3980   53.7670 N.3   159  TRP159     -0.1241
     91  CA        19.0620   95.1510   52.5000 C.3   159  TRP159      0.1605
     92  C         20.0430   93.9850   52.5680 C.2   159  TRP159      0.2264
     93  O         20.2190   93.2680   51.5830 O.2   159  TRP159     -0.2867
     94  CB        19.8230   96.4020   52.0220 C.3   159  TRP159      0.0550
     95  CG        18.9330   97.5530   51.6610 C.ar  159  TRP159      0.0003
     96  CD1       17.5640   97.5090   51.4690 C.ar  159  TRP159      0.0946
     97  CD2       19.3180   98.9180   51.4700 C.ar  159  TRP159      0.0152
     98  NE1       17.0990   98.7580   51.1680 N.ar  159  TRP159     -0.2442
     99  CE2       18.1430   99.6450   51.1700 C.ar  159  TRP159      0.0810
    100  CE3       20.5340   99.5990   51.5160 C.ar  159  TRP159      0.0012
    101  CZ2       18.1540  101.0300   50.8990 C.ar  159  TRP159      0.0191
    102  CZ3       20.5490  100.9780   51.2570 C.ar  159  TRP159      0.0001
    103  CH2       19.3620  101.6800   50.9530 C.ar  159  TRP159      0.0015
    104  N         29.4660  103.9310   50.5210 N.3   176  MET176     -0.1245
    105  CA        28.4050  104.9240   50.7490 C.3   176  MET176      0.1570
    106  C         28.6270  105.7620   52.0320 C.2   176  MET176      0.2261
    107  O         27.7820  106.5740   52.3800 O.2   176  MET176     -0.2867
    108  CB        27.0140  104.2470   50.7630 C.3   176  MET176      0.0387
    109  CG        26.5770  103.7100   49.3810 C.3   176  MET176      0.0595
    110  SD        25.1750  102.5070   49.4000 S.3   176  MET176     -0.1393
    111  CE        23.9860  103.3620   50.3960 C.3   176  MET176      0.0692
    112  N         20.6330  111.8660   51.5920 N.3   184  TRP184     -0.1241
    113  CA        19.6980  110.8890   52.1650 C.3   184  TRP184      0.1605
    114  C         18.3150  111.4790   52.3830 C.2   184  TRP184      0.2264
    115  O         17.3130  110.8440   52.0450 O.2   184  TRP184     -0.2867
    116  CB        20.2580  110.2820   53.4550 C.3   184  TRP184      0.0550
    117  CG        21.3440  109.2290   53.2170 C.ar  184  TRP184      0.0003
    118  CD1       22.6660  109.3810   53.4110 C.ar  184  TRP184      0.0946
    119  CD2       21.1570  107.8860   52.7280 C.ar  184  TRP184      0.0152
    120  NE1       23.3500  108.2170   53.0910 N.ar  184  TRP184     -0.2442
    121  CE2       22.4400  107.2740   52.6850 C.ar  184  TRP184      0.0810
    122  CE3       20.0390  107.1270   52.3750 C.ar  184  TRP184      0.0012
    123  CZ2       22.6280  105.9540   52.2780 C.ar  184  TRP184      0.0191
    124  CZ3       20.2350  105.7870   51.9830 C.ar  184  TRP184      0.0001
    125  CH2       21.5140  105.2290   51.9290 C.ar  184  TRP184      0.0015
    126  N         16.7650  111.7380   49.0910 N.3   187  SER187     -0.1217
    127  CA        16.3040  110.4350   48.6270 C.3   187  SER187      0.1889
    128  C         14.9430  110.1210   49.2220 C.2   187  SER187      0.2288
    129  O         14.0760  109.6610   48.5270 O.2   187  SER187     -0.2866
    130  CB        17.3390  109.3350   48.9300 C.3   187  SER187      0.2089
    131  OG        17.3620  108.9820   50.2980 O.3   187  SER187     -0.2183
    132  N         11.5530  109.7850   46.7780 N.3   191  ILE191     -0.1245
    133  CA        10.9780  108.4370   46.6260 C.3   191  ILE191      0.1561
    134  C          9.5430  108.4780   47.1480 C.2   191  ILE191      0.2260
    135  O          8.6490  108.0030   46.4840 O.2   191  ILE191     -0.2867
    136  CB        11.8090  107.3490   47.3680 C.3   191  ILE191      0.0252
    137  CG1       13.1440  107.1240   46.6760 C.3   191  ILE191      0.0019
    138  CG2       11.0610  106.0080   47.4120 C.3   191  ILE191      0.0019
    139  CD1       14.1530  106.3730   47.5830 C.3   191  ILE191      0.0001
    140  N         19.6190   93.0950   48.6980 N.3   250  HIS250     -0.1226
    141  CA        19.0020   94.1610   47.8590 C.3   250  HIS250      0.1752
    142  C         19.8790   94.5810   46.6700 C.2   250  HIS250      0.2596
    143  O         19.3770   95.2660   45.7850 O.2   250  HIS250     -0.2718
    144  CB        18.7340   95.3510   48.7800 C.3   250  HIS250      0.0759
    145  CG        18.1700   96.5600   48.1150 C.ar  250  HIS250      0.0818
    146  ND1       17.1180   96.5070   47.2280 N.ar  250  HIS250     -0.2268
    147  CD2       18.4610   97.8730   48.2760 C.ar  250  HIS250      0.1154
    148  CE1       16.8170   97.7320   46.8400 C.ar  250  HIS250      0.1986
    149  NE2       17.6000   98.5850   47.4800 N.ar  250  HIS250     -0.2212
    150  N         21.1500   94.1370   46.6120 N.am  251  PHE251     -0.1976
    151  CA        22.0960   94.5410   45.5490 C.3   251  PHE251      0.1639
    152  C         22.5580   93.3940   44.6330 C.2   251  PHE251      0.2290
    153  O         23.7450   92.9490   44.6730 O.2   251  PHE251     -0.2864
    154  CB        23.3050   95.2350   46.1750 C.3   251  PHE251      0.0560
    155  CG        22.9550   96.4790   46.9240 C.ar  251  PHE251     -0.0200
    156  CD1       22.4390   96.4070   48.1940 C.ar  251  PHE251     -0.0042
    157  CD2       23.2000   97.7280   46.3670 C.ar  251  PHE251     -0.0042
    158  CE1       22.0620   97.5280   48.8840 C.ar  251  PHE251     -0.0003
    159  CE2       22.8390   98.8880   47.0680 C.ar  251  PHE251     -0.0003
    160  CZ        22.2920   98.7760   48.3330 C.ar  251  PHE251     -0.0000
@<TRIPOS>BOND
     1    29    30    1
     2    30    33    1
     3    30    31    1
     4    42    41    2
     5    33    34    1
     6    31    32    2
     7    31    39   am
     8    48    47    2
     9     1     2    1
    10    47    46    1
    11    39    40    1
    12    41    40    1
    13    41    45   am
    14     2     3    1
    15    40    43    1
    16    34    35   ar
    17    34    36   ar
    18    46    45    1
    19    46    49    1
    20     4     3    2
    21    35    37   ar
    22    16    18   ar
    23    16    14   ar
    24     3     5   am
    25    28    26   ar
    26    28    27   ar
    27    18    17   ar
    28    22    21    2
    29    13    14   ar
    30    13    11   ar
    31    14    12   ar
    32    36    38   ar
    33    26    24   ar
    34    27    25   ar
    35    49    50    1
    36    43    44    1
    37    21    20    1
    38     5     6    1
    39    11    10   ar
    40    37    38   ar
    41   152   153    2
    42   152   151    1
    43    17    15   ar
    44    51    50   ar
    45    51    53   ar
    46    12    15   ar
    47    12    10   ar
    48    50    52   ar
    49    25    24   ar
    50    24    23    1
    51    10     9    1
    52     6     9    1
    53     6     7    1
    54   151   154    1
    55   151   150    1
    56    53    54   ar
    57   143   142    2
    58    20    23    1
    59    20    19    1
    60   154   155    1
    61    52    54   ar
    62     7     8    2
    63   157   155   ar
    64   157   159   ar
    65   135   134    2
    66   150   142   am
    67   133   132    1
    68   133   134    1
    69   133   136    1
    70   142   141    1
    71   137   136    1
    72   137   139    1
    73   148   146   ar
    74   148   149   ar
    75   155   156   ar
    76   159   160   ar
    77   146   145   ar
    78   136   138    1
    79   149   147   ar
    80   141   140    1
    81   141   144    1
    82   145   147   ar
    83   145   144    1
    84   156   158   ar
    85   160   158   ar
    86   129   128    2
    87   127   130    1
    88   127   126    1
    89   127   128    1
    90   130   131    1
    91   109   110    1
    92   109   108    1
    93   110   111    1
    94    64    65   ar
    95    64    62   ar
    96    65    63   ar
    97   104   105    1
    98   105   108    1
    99   105   106    1
   100    62    60   ar
   101   101   103   ar
   102   101    99   ar
   103   103   102   ar
   104    63    61   ar
   105    98    99   ar
   106    98    96   ar
   107    99    97   ar
   108    72    71    1
   109    73    71    1
   110   102   100   ar
   111    96    95   ar
   112    97   100   ar
   113    97    95   ar
   114    93    92    2
   115   112   113    1
   116    95    94    1
   117    60    61   ar
   118    60    59    1
   119   125   124   ar
   120   125   123   ar
   121   124   122   ar
   122    94    91    1
   123   106   107    2
   124   115   114    2
   125    71    70    1
   126   113   114    1
   127   113   116    1
   128   123   121   ar
   129   122   119   ar
   130    91    92    1
   131    91    90    1
   132   121   119   ar
   133   121   120   ar
   134   119   117   ar
   135    59    56    1
   136   120   118   ar
   137    70    67    1
   138   117   118   ar
   139   117   116    1
   140    80    79    1
   141    88    87    1
   142    89    87    1
   143    58    57    2
   144    67    66    1
   145    67    68    1
   146    56    57    1
   147    56    55    1
   148    87    86    1
   149    85    84    2
   150    86    83    1
   151    79    78    1
   152    79    81    1
   153    78    75    1
   154    69    68    2
   155    84    83    1
   156    83    82    1
   157    77    76    2
   158    76    75    1
   159    75    74    1
