@<TRIPOS>MOLECULE
tmp/2wjgA00.pdb
 114 110 0 0 0
SMALL
GASTEIGER

@<TRIPOS>ATOM
      1  N         -7.0230   22.0370  -14.3090 N.3    16  PRO16      -0.2102
      2  CA        -6.3730   23.1590  -14.9920 C.3    16  PRO16       0.1504
      3  C         -5.7960   22.7100  -16.3200 C.2    16  PRO16       0.2576
      4  O         -5.4740   21.5360  -16.4680 O.2    16  PRO16      -0.2718
      5  CB        -5.2280   23.5260  -14.0440 C.3    16  PRO16       0.0282
      6  CG        -5.7280   23.0650  -12.6620 C.3    16  PRO16       0.0208
      7  CD        -6.4420   21.7810  -12.9760 C.3    16  PRO16       0.0893
      8  N         -5.6780   23.6350  -17.2700 N.am   17  ASN17      -0.1961
      9  CA        -4.9870   23.3620  -18.5220 C.3    17  ASN17       0.1819
     10  C         -5.6690   22.3350  -19.4220 C.2    17  ASN17       0.2621
     11  O         -4.9980   21.6810  -20.2180 O.2    17  ASN17      -0.2715
     12  CB        -3.5620   22.8880  -18.2350 C.3    17  ASN17       0.1195
     13  CG        -2.5680   23.3780  -19.2710 C.2    17  ASN17       0.2630
     14  OD1       -2.5200   24.5750  -19.5800 O.2    17  ASN17      -0.2716
     15  ND2       -1.7630   22.4650  -19.8050 N.am   17  ASN17      -0.0877
     16  N         -6.9840   22.1720  -19.3030 N.am   18  VAL18      -0.1963
     17  CA        -7.6720   21.1970  -20.1560 C.3    18  VAL18       0.1727
     18  C         -8.3850   21.8290  -21.3480 C.2    18  VAL18       0.2617
     19  O         -8.9520   21.1090  -22.1530 O.2    18  VAL18      -0.2715
     20  CB        -8.7290   20.3890  -19.3700 C.3    18  VAL18       0.0290
     21  CG1       -8.0880   19.6060  -18.2380 C.3    18  VAL18       0.0023
     22  CG2       -9.8070   21.3310  -18.8410 C.3    18  VAL18       0.0023
     23  N         -8.4040   23.1590  -21.4370 N.am   19  GLY19      -0.1940
     24  CA        -9.0920   23.8470  -22.5230 C.3    19  GLY19       0.2014
     25  C        -10.3490   24.5950  -22.1100 C.2    19  GLY19       0.2639
     26  O        -11.1710   24.9980  -22.9310 O.2    19  GLY19      -0.2714
     27  N        -10.4890   24.7940  -20.8160 N.am   20  LYS20      -0.1963
     28  CA       -11.6480   25.4580  -20.2460 C.3    20  LYS20       0.1728
     29  C        -11.7780   26.8960  -20.7600 C.2    20  LYS20       0.2617
     30  O        -12.8560   27.3430  -21.1570 O.2    20  LYS20      -0.2715
     31  CB       -11.4730   25.4620  -18.7270 C.3    20  LYS20       0.0311
     32  CG       -12.7310   25.2990  -17.9330 C.3    20  LYS20       0.0038
     33  CD       -12.5240   24.2930  -16.7760 C.3    20  LYS20       0.0206
     34  CE       -11.3730   24.6430  -15.7980 C.3    20  LYS20       0.1093
     35  NZ        -9.9510   24.6910  -16.3160 N.3    20  LYS20      -0.1314
     36  N        -10.6770   27.6350  -20.7270 N.am   21  SER21      -0.1936
     37  CA       -10.6880   29.0030  -21.2090 C.3    21  SER21       0.2055
     38  C        -10.9750   29.0170  -22.7090 C.2    21  SER21       0.2643
     39  O        -11.7860   29.8080  -23.2100 O.2    21  SER21      -0.2714
     40  CB        -9.3370   29.6410  -20.9330 C.3    21  SER21       0.2130
     41  OG        -9.5100   30.9310  -20.3960 O.3    21  SER21      -0.2179
     42  N        -10.3050   28.1220  -23.4270 N.am   22  THR22      -0.1950
     43  CA       -10.4680   28.0140  -24.8720 C.3    22  THR22       0.1897
     44  C        -11.9230   27.7390  -25.2300 C.2    22  THR22       0.2313
     45  O        -12.4910   28.3640  -26.1320 O.2    22  THR22      -0.2863
     46  CB        -9.5760   26.8900  -25.4080 C.3    22  THR22       0.1794
     47  OG1       -8.2290   27.1470  -24.9880 O.3    22  THR22      -0.2208
     48  CG2       -9.6430   26.8240  -26.9370 C.3    22  THR22       0.0378
     49  N        -17.3030   30.2790  -15.7310 N.3    60  ASP60      -0.1239
     50  CA       -16.1110   29.4470  -15.6850 C.3    60  ASP60       0.1674
     51  C        -15.7190   29.2560  -14.2170 C.2    60  ASP60       0.2266
     52  O        -15.3990   30.2140  -13.5230 O.2    60  ASP60      -0.2867
     53  CB       -14.9550   30.1130  -16.4400 C.3    60  ASP60       0.1410
     54  CG       -13.8170   29.1550  -16.7030 C.2    60  ASP60       0.3668
     55  OD1      -14.0080   27.9680  -16.4200 O.co2  60  ASP60      -0.2456
     56  OD2      -12.7400   29.5650  -17.1980 O.co2  60  ASP60      -0.2456
     57  N        -12.1480   17.0140  -24.4720 N.3   120  ASN120     -0.1225
     58  CA       -11.3640   17.9440  -25.2720 C.3   120  ASN120      0.1785
     59  C         -9.9990   17.3760  -25.6070 C.2   120  ASN120      0.2597
     60  O         -9.5940   16.3550  -25.0550 O.2   120  ASN120     -0.2718
     61  CB       -11.2060   19.2790  -24.5100 C.3   120  ASN120      0.1169
     62  CG       -10.7280   20.4180  -25.4030 C.2   120  ASN120      0.2627
     63  OD1       -9.9860   21.3100  -24.9700 O.2   120  ASN120     -0.2716
     64  ND2      -11.1480   20.3890  -26.6570 N.am  120  ASN120     -0.0877
     65  N         -9.2920   18.0470  -26.5130 N.am  121  LYS121     -0.1980
     66  CA        -7.9480   17.6330  -26.9370 C.3   121  LYS121      0.1596
     67  C         -7.9000   16.2890  -27.6830 C.2   121  LYS121      0.2287
     68  O         -6.8740   15.5780  -27.6520 O.2   121  LYS121     -0.2864
     69  CB        -6.9820   17.6490  -25.7400 C.3   121  LYS121      0.0298
     70  CG        -6.8520   19.0300  -25.0900 C.3   121  LYS121      0.0038
     71  CD        -5.5280   19.2140  -24.3830 C.3   121  LYS121      0.0206
     72  CE        -5.5250   20.5010  -23.5940 C.3   121  LYS121      0.1093
     73  NZ        -4.2180   20.7050  -22.9330 N.3   121  LYS121     -0.1314
     74  N         -7.5620   15.8710  -30.7390 N.3   123  ASP123     -0.1225
     75  CA        -6.4650   15.9770  -31.7000 C.3   123  ASP123      0.1805
     76  C         -5.1360   15.6270  -31.0390 C.2   123  ASP123      0.2597
     77  O         -4.3320   14.8960  -31.6200 O.2   123  ASP123     -0.2718
     78  CB        -6.3970   17.3690  -32.3370 C.3   123  ASP123      0.1424
     79  CG        -5.9760   18.4450  -31.3470 C.2   123  ASP123      0.3668
     80  OD1       -5.0230   19.2010  -31.6490 O.co2 123  ASP123     -0.2456
     81  OD2       -6.5900   18.5210  -30.2570 O.co2 123  ASP123     -0.2456
     82  N         -4.9050   16.1390  -29.8280 N.am  124  LEU124     -0.1979
     83  CA        -3.6440   15.8790  -29.1290 C.3   124  LEU124      0.1596
     84  C         -3.5170   14.3990  -28.8220 C.2   124  LEU124      0.2287
     85  O         -2.4430   13.8180  -28.9540 O.2   124  LEU124     -0.2864
     86  CB        -3.5380   16.6780  -27.8300 C.3   124  LEU124      0.0297
     87  CG        -2.1790   17.2840  -27.4330 C.3   124  LEU124      0.0022
     88  CD1       -2.0220   17.2340  -25.9410 C.3   124  LEU124      0.0001
     89  CD2       -0.9890   16.6000  -28.0970 C.3   124  LEU124      0.0001
     90  N        -12.0000   19.2390  -30.2970 N.3   149  SER149     -0.1202
     91  CA       -10.6940   19.8650  -30.1670 C.3   149  SER149      0.2020
     92  C        -10.9170   21.3560  -30.2720 C.2   149  SER149      0.2619
     93  O        -10.8970   21.9320  -31.3680 O.2   149  SER149     -0.2717
     94  CB        -9.7340   19.3690  -31.2450 C.3   149  SER149      0.2103
     95  OG        -9.5900   17.9520  -31.1730 O.3   149  SER149     -0.2182
     96  N        -11.1540   21.9860  -29.1220 N.am  150  ALA150     -0.1965
     97  CA       -11.5470   23.3930  -29.1090 C.3   150  ALA150      0.1728
     98  C        -10.4930   24.2980  -29.7280 C.2   150  ALA150      0.2616
     99  O        -10.8200   25.3280  -30.3170 O.2   150  ALA150     -0.2715
    100  CB       -11.8660   23.8520  -27.6980 C.3   150  ALA150      0.0334
    101  N         -9.2240   23.9350  -29.5800 N.am  151  ALA151     -0.1963
    102  CA        -8.1730   24.8380  -30.0270 C.3   151  ALA151      0.1728
    103  C         -8.1450   24.8470  -31.5490 C.2   151  ALA151      0.2616
    104  O         -7.7000   25.8090  -32.1640 O.2   151  ALA151     -0.2715
    105  CB        -6.8150   24.4210  -29.4530 C.3   151  ALA151      0.0334
    106  N         -8.6420   23.7680  -32.1430 N.am  152  LYS152     -0.1977
    107  CA        -8.6600   23.6140  -33.5900 C.3   152  LYS152      0.1596
    108  C        -10.0620   23.9300  -34.1040 C.2   152  LYS152      0.2287
    109  O        -10.3650   23.7680  -35.2790 O.2   152  LYS152     -0.2864
    110  CB        -8.1860   22.1970  -33.9600 C.3   152  LYS152      0.0298
    111  CG        -8.8760   21.5370  -35.1340 C.3   152  LYS152      0.0038
    112  CD        -8.5670   20.0290  -35.2210 C.3   152  LYS152      0.0206
    113  CE        -7.3940   19.7110  -36.1560 C.3   152  LYS152      0.1093
    114  NZ        -6.0510   19.9210  -35.5380 N.3   152  LYS152     -0.1314
@<TRIPOS>BOND
     1   113   114    1
     2   113   112    1
     3   109   108    2
     4   112   111    1
     5   111   110    1
     6   108   107    1
     7   110   107    1
     8   107   106    1
     9    78    75    1
    10    78    79    1
    11   104   103    2
    12   106   103   am
    13    75    76    1
    14    75    74    1
    15    80    79   ar
    16    77    76    2
    17   103   102    1
    18    93    92    2
    19    79    81   ar
    20    94    95    1
    21    94    91    1
    22    76    82   am
    23    99    98    2
    24    90    91    1
    25    92    91    1
    26    92    96   am
    27   102   101    1
    28   102   105    1
    29    82    83    1
    30    98   101   am
    31    98    97    1
    32    83    84    1
    33    83    86    1
    34    96    97    1
    35    97   100    1
    36    85    84    2
    37    89    87    1
    38    86    87    1
    39    67    68    2
    40    67    66    1
    41    87    88    1
    42    48    46    1
    43    66    65    1
    44    66    69    1
    45    64    62   am
    46    65    59   am
    47    45    44    2
    48    69    70    1
    49    59    58    1
    50    59    60    2
    51    46    47    1
    52    46    43    1
    53    62    63    2
    54    62    61    1
    55    58    61    1
    56    58    57    1
    57    44    43    1
    58    70    71    1
    59    43    42    1
    60    71    72    1
    61    72    73    1
    62    42    38   am
    63    39    38    2
    64    26    25    2
    65    38    37    1
    66    24    25    1
    67    24    23    1
    68    19    18    2
    69    25    27   am
    70    23    18   am
    71    18    17    1
    72    37    40    1
    73    37    36    1
    74    30    29    2
    75    40    41    1
    76    27    28    1
    77    29    36   am
    78    29    28    1
    79    28    31    1
    80    11    10    2
    81    17    20    1
    82    17    16    1
    83    15    13   am
    84    14    13    2
    85    10    16   am
    86    10     9    1
    87    20    22    1
    88    20    21    1
    89    13    12    1
    90    31    32    1
    91     9    12    1
    92     9     8    1
    93    32    33    1
    94     8     3   am
    95    56    54   ar
    96    33    34    1
    97    54    53    1
    98    54    55   ar
    99     4     3    2
   100    53    50    1
   101     3     2    1
   102    35    34    1
   103    49    50    1
   104    50    51    1
   105     2     1    1
   106     2     5    1
   107     1     7    1
   108    51    52    2
   109     5     6    1
   110     7     6    1
