@<TRIPOS>MOLECULE
tmp/2wjhB00.pdb
 69 67 0 0 0
SMALL
GASTEIGER

@<TRIPOS>ATOM
      1  N        -17.8370   10.5250  -26.5910 N.3    11  ASN11      -0.1226
      2  CA       -19.2470   10.3190  -26.3450 C.3    11  ASN11       0.1770
      3  C        -19.7990   11.5800  -25.7220 C.2    11  ASN11       0.2439
      4  O        -19.0370   12.4800  -25.3800 O.2    11  ASN11      -0.2733
      5  CB       -19.4650    9.1410  -25.3930 C.3    11  ASN11       0.1168
      6  CG       -18.9250    7.8450  -25.9350 C.2    11  ASN11       0.2627
      7  OD1      -18.7710    6.8740  -25.1980 O.2    11  ASN11      -0.2716
      8  ND2      -18.6340    7.8150  -27.2280 N.am   11  ASN11      -0.0877
      9  N        -21.1290   11.6480  -25.5640 N.am   12  PRO12      -0.2718
     10  CA       -21.7110   12.7500  -24.8020 C.3    12  PRO12       0.1535
     11  C        -21.3620   12.6030  -23.3290 C.2    12  PRO12       0.2599
     12  O        -21.1120   11.4820  -22.8700 O.2    12  PRO12      -0.2715
     13  CB       -23.2200   12.5570  -25.0060 C.3    12  PRO12       0.0310
     14  CG       -23.3400   11.7050  -26.2350 C.3    12  PRO12       0.0237
     15  CD       -22.1610   10.7920  -26.1650 C.3    12  PRO12       0.0939
     16  N        -21.3330   13.7140  -22.5990 N.am   13  ASN13      -0.1959
     17  CA       -21.1100   13.6680  -21.1480 C.3    13  ASN13       0.1819
     18  C        -19.8120   12.9980  -20.7060 C.2    13  ASN13       0.2621
     19  O        -19.7980   12.2540  -19.7240 O.2    13  ASN13      -0.2715
     20  CB       -22.2820   12.9900  -20.4460 C.3    13  ASN13       0.1195
     21  CG       -23.6050   13.6690  -20.7370 C.2    13  ASN13       0.2630
     22  OD1      -24.5450   13.0410  -21.2280 O.2    13  ASN13      -0.2716
     23  ND2      -23.6820   14.9650  -20.4450 N.am   13  ASN13      -0.0877
     24  N        -18.7240   13.2510  -21.4210 N.am   14  VAL14      -0.1963
     25  CA       -17.4240   12.7540  -20.9790 C.3    14  VAL14       0.1727
     26  C        -16.5690   13.8840  -20.4270 C.2    14  VAL14       0.2617
     27  O        -15.4160   13.6650  -20.0490 O.2    14  VAL14      -0.2715
     28  CB       -16.6420   12.0700  -22.0960 C.3    14  VAL14       0.0290
     29  CG1      -17.4350   10.8940  -22.6570 C.3    14  VAL14       0.0023
     30  CG2      -16.2830   13.0870  -23.1870 C.3    14  VAL14       0.0023
     31  N        -17.1270   15.0920  -20.4040 N.am   15  GLY15      -0.1940
     32  CA       -16.4320   16.2560  -19.8780 C.3    15  GLY15       0.2014
     33  C        -15.5950   16.9650  -20.9320 C.2    15  GLY15       0.2639
     34  O        -14.6170   17.6510  -20.6240 O.2    15  GLY15      -0.2714
     35  N        -15.9860   16.8050  -22.1890 N.am   16  LYS16      -0.1963
     36  CA       -15.2530   17.4070  -23.2940 C.3    16  LYS16       0.1728
     37  C        -15.3670   18.9360  -23.3370 C.2    16  LYS16       0.2617
     38  O        -14.3930   19.6290  -23.6260 O.2    16  LYS16      -0.2715
     39  CB       -15.6920   16.7760  -24.6210 C.3    16  LYS16       0.0311
     40  CG       -15.2750   17.5670  -25.8520 C.3    16  LYS16       0.0038
     41  CD       -15.2860   16.7000  -27.1000 C.3    16  LYS16       0.0206
     42  CE       -16.6520   16.1080  -27.3640 C.3    16  LYS16       0.1093
     43  NZ       -17.6440   17.1710  -27.6460 N.3    16  LYS16      -0.1314
     44  N        -16.5470   19.4720  -23.0420 N.am   17  SER17      -0.1936
     45  CA       -16.7230   20.9240  -23.0240 C.3    17  SER17       0.2055
     46  C        -15.8290   21.5960  -21.9800 C.2    17  SER17       0.2643
     47  O        -15.2120   22.6350  -22.2470 O.2    17  SER17      -0.2714
     48  CB       -18.1840   21.3030  -22.7960 C.3    17  SER17       0.2130
     49  OG       -18.9240   21.1020  -23.9800 O.3    17  SER17      -0.2179
     50  N        -15.7610   21.0010  -20.7940 N.am   18  THR18      -0.1950
     51  CA       -14.8650   21.4800  -19.7500 C.3    18  THR18       0.1897
     52  C        -13.4180   21.4480  -20.2200 C.2    18  THR18       0.2313
     53  O        -12.6560   22.3870  -19.9890 O.2    18  THR18      -0.2863
     54  CB       -14.9950   20.6470  -18.4650 C.3    18  THR18       0.1794
     55  OG1      -16.2930   20.8490  -17.8910 O.3    18  THR18      -0.2208
     56  CG2      -13.9200   21.0500  -17.4560 C.3    18  THR18       0.0378
     57  N        -20.5280   15.5380  -29.5360 N.3    59  GLY59      -0.1225
     58  CA       -20.4600   14.2740  -28.8200 C.3    59  GLY59       0.1811
     59  C        -21.2760   13.1690  -29.4660 C.2    59  GLY59       0.2280
     60  O        -22.4730   13.3150  -29.6890 O.2    59  GLY59      -0.2866
     61  N        -12.2570   11.5520  -15.8480 N.3   117  LYS117     -0.1245
     62  CA       -13.0510   11.0850  -14.7190 C.3   117  LYS117      0.1561
     63  C        -12.4370    9.8610  -14.0420 C.2   117  LYS117      0.2260
     64  O        -13.1520    8.9750  -13.5820 O.2   117  LYS117     -0.2867
     65  CB       -14.4940   10.7960  -15.1530 C.3   117  LYS117      0.0271
     66  CG       -15.2010   12.0140  -15.7560 C.3   117  LYS117      0.0035
     67  CD       -16.6570   11.7350  -16.1110 C.3   117  LYS117      0.0206
     68  CE       -17.2730   12.9640  -16.7750 C.3   117  LYS117      0.1093
     69  NZ       -18.7230   12.8150  -17.0890 N.3   117  LYS117     -0.1314
@<TRIPOS>BOND
     1    60    59    2
     2    57    58    1
     3    59    58    1
     4    43    42    1
     5    42    41    1
     6     8     6   am
     7    41    40    1
     8     1     2    1
     9     2     3    1
    10     2     5    1
    11    14    15    1
    12    14    13    1
    13    15     9    1
    14     6     5    1
    15     6     7    2
    16    40    39    1
    17     3     9   am
    18     3     4    2
    19     9    10    1
    20    13    10    1
    21    10    11    1
    22    39    36    1
    23    49    48    1
    24    38    37    2
    25    37    36    1
    26    37    44   am
    27    11    12    2
    28    11    16   am
    29    36    35    1
    30    30    28    1
    31    44    45    1
    32    45    48    1
    33    45    46    1
    34    29    28    1
    35    16    17    1
    36    47    46    2
    37    35    33   am
    38    28    25    1
    39    46    50   am
    40    24    25    1
    41    24    18   am
    42    22    21    2
    43    17    18    1
    44    17    20    1
    45    25    26    1
    46    33    34    2
    47    33    32    1
    48    50    51    1
    49    21    20    1
    50    21    23   am
    51    18    19    2
    52    26    31   am
    53    26    27    2
    54    31    32    1
    55    52    53    2
    56    52    51    1
    57    51    54    1
    58    54    55    1
    59    54    56    1
    60    69    68    1
    61    68    67    1
    62    67    66    1
    63    61    62    1
    64    66    65    1
    65    65    62    1
    66    62    63    1
    67    63    64    2
