@<TRIPOS>MOLECULE
tmp/2wjiA00.pdb
 118 112 0 0 0
SMALL
GASTEIGER

@<TRIPOS>ATOM
      1  N         11.5870   -2.3040   24.9300 N.3    12  PRO12      -0.2102
      2  CA        10.7080   -1.1390   24.7680 C.3    12  PRO12       0.1504
      3  C          9.2500   -1.4600   25.0900 C.2    12  PRO12       0.2576
      4  O          8.7380   -2.5290   24.7290 O.2    12  PRO12      -0.2718
      5  CB        10.8340   -0.8250   23.2760 C.3    12  PRO12       0.0282
      6  CG        12.2280   -1.2700   22.9250 C.3    12  PRO12       0.0208
      7  CD        12.5350   -2.4540   23.8120 C.3    12  PRO12       0.0893
      8  N          8.5940   -0.5400   25.7910 N.am   13  ASN13      -0.1961
      9  CA         7.1470   -0.5880   25.9540 C.3    13  ASN13       0.1819
     10  C          6.6170   -1.6200   26.9530 C.2    13  ASN13       0.2621
     11  O          5.4090   -1.8650   26.9940 O.2    13  ASN13      -0.2715
     12  CB         6.4820   -0.8070   24.5830 C.3    13  ASN13       0.1195
     13  CG         5.0570   -0.2940   24.5430 C.2    13  ASN13       0.2630
     14  OD1        4.7900    0.8480   24.9190 O.2    13  ASN13      -0.2716
     15  ND2        4.1320   -1.1330   24.0720 N.am   13  ASN13      -0.0877
     16  N          7.4920   -2.2240   27.7570 N.am   14  VAL14      -0.1963
     17  CA         7.0370   -3.2580   28.6990 C.3    14  VAL14       0.1727
     18  C          6.4250   -2.7200   29.9890 C.2    14  VAL14       0.2617
     19  O          5.7560   -3.4640   30.7130 O.2    14  VAL14      -0.2715
     20  CB         8.1380   -4.2820   29.0670 C.3    14  VAL14       0.0290
     21  CG1        8.5670   -5.0510   27.8330 C.3    14  VAL14       0.0023
     22  CG2        9.3380   -3.5850   29.7370 C.3    14  VAL14       0.0023
     23  N          6.6360   -1.4390   30.2690 N.am   15  GLY15      -0.1940
     24  CA         6.1320   -0.8420   31.4960 C.3    15  GLY15       0.2014
     25  C          7.2310   -0.4430   32.4690 C.2    15  GLY15       0.2639
     26  O          7.0300   -0.4060   33.6880 O.2    15  GLY15      -0.2714
     27  N          8.4090   -0.1360   31.9420 N.am   16  LYS16      -0.1963
     28  CA         9.4990    0.2560   32.8200 C.3    16  LYS16       0.1728
     29  C          9.1710    1.5370   33.5850 C.2    16  LYS16       0.2617
     30  O          9.2990    1.5770   34.8030 O.2    16  LYS16      -0.2715
     31  CB        10.8180    0.3950   32.0550 C.3    16  LYS16       0.0311
     32  CG        11.3330   -0.9120   31.4670 C.3    16  LYS16       0.0038
     33  CD        12.6810   -0.7050   30.7410 C.3    16  LYS16       0.0206
     34  CE        12.5590    0.2570   29.5570 C.3    16  LYS16       0.1093
     35  NZ        11.6160   -0.2380   28.5070 N.3    16  LYS16      -0.1314
     36  N          8.7480    2.5780   32.8710 N.am   17  SER17      -0.1936
     37  CA         8.4390    3.8540   33.5160 C.3    17  SER17       0.2055
     38  C          7.2630    3.7340   34.4810 C.2    17  SER17       0.2643
     39  O          7.2920    4.3110   35.5670 O.2    17  SER17      -0.2714
     40  CB         8.1350    4.9310   32.4750 C.3    17  SER17       0.2130
     41  OG         9.3170    5.3620   31.8340 O.3    17  SER17      -0.2179
     42  N          6.2350    2.9920   34.0720 N.am   18  THR18      -0.1950
     43  CA         5.0520    2.7600   34.9030 C.3    18  THR18       0.1897
     44  C          5.4580    2.1390   36.2420 C.2    18  THR18       0.2313
     45  O          5.0000    2.5570   37.3100 O.2    18  THR18      -0.2863
     46  CB         4.0380    1.8390   34.1890 C.3    18  THR18       0.1794
     47  OG1        3.6170    2.4460   32.9620 O.3    18  THR18      -0.2208
     48  CG2        2.8070    1.5890   35.0650 C.3    18  THR18       0.0378
     49  N          3.7790   10.5250   33.5390 N.3    30  ILE30      -0.1245
     50  CA         4.8270   10.4440   32.5260 C.3    30  ILE30       0.1561
     51  C          4.2850   10.1160   31.1360 C.2    30  ILE30       0.2260
     52  O          3.3900    9.2790   30.9870 O.2    30  ILE30      -0.2867
     53  CB         5.8850    9.4260   32.9410 C.3    30  ILE30       0.0252
     54  CG1        7.1340    9.5570   32.0350 C.3    30  ILE30       0.0019
     55  CG2        5.3910    7.9990   32.9560 C.3    30  ILE30       0.0019
     56  CD1        7.8100   10.9100   32.0450 C.3    30  ILE30       0.0001
     57  N         15.0740    9.2660   35.8120 N.3    36  LYS36      -0.1245
     58  CA        15.4750    7.8810   35.6040 C.3    36  LYS36       0.1561
     59  C         16.1410    7.3150   36.8590 C.2    36  LYS36       0.2260
     60  O         16.5440    6.1540   36.8850 O.2    36  LYS36      -0.2867
     61  CB        16.4300    7.7830   34.4160 C.3    36  LYS36       0.0271
     62  CG        16.0060    8.6300   33.2280 C.3    36  LYS36       0.0035
     63  CD        14.9600    7.9310   32.3750 C.3    36  LYS36       0.0206
     64  CE        15.6070    6.9170   31.4510 C.3    36  LYS36       0.1093
     65  NZ        14.6380    6.3840   30.4670 N.3    36  LYS36      -0.1314
     66  N         15.2900    1.1330   27.2000 N.3    54  GLY54      -0.1225
     67  CA        14.6890   -0.0690   26.6500 C.3    54  GLY54       0.1811
     68  C         15.5780   -0.7150   25.6060 C.2    54  GLY54       0.2280
     69  O         16.0680   -0.0480   24.6840 O.2    54  GLY54      -0.2866
     70  N          4.9760   -8.2500   33.8440 N.3   111  ASN111     -0.1225
     71  CA         4.0030   -7.1770   33.7890 C.3   111  ASN111      0.1785
     72  C          2.8670   -7.4250   32.7940 C.2   111  ASN111      0.2597
     73  O          2.9150   -8.3530   31.9850 O.2   111  ASN111     -0.2718
     74  CB         4.7150   -5.8630   33.4610 C.3   111  ASN111      0.1169
     75  CG         3.9090   -4.6470   33.8710 C.2   111  ASN111      0.2627
     76  OD1        3.1310   -4.7030   34.8190 O.2   111  ASN111     -0.2716
     77  ND2        4.1040   -3.5350   33.1680 N.am  111  ASN111     -0.0877
     78  N          1.8410   -6.5830   32.8770 N.am  112  LYS112     -0.1980
     79  CA         0.6900   -6.6370   31.9880 C.3   112  LYS112      0.1596
     80  C         -0.1030   -7.9330   32.1470 C.2   112  LYS112      0.2287
     81  O         -0.6480   -8.4580   31.1770 O.2   112  LYS112     -0.2864
     82  CB         1.1190   -6.4210   30.5290 C.3   112  LYS112      0.0298
     83  CG         1.9230   -5.1380   30.3230 C.3   112  LYS112      0.0038
     84  CD         2.0840   -4.8030   28.8350 C.3   112  LYS112      0.0206
     85  CE         2.7870   -3.4640   28.6650 C.3   112  LYS112      0.1093
     86  NZ         2.7790   -2.9860   27.2510 N.3   112  LYS112     -0.1314
     87  N         -2.8680   -8.2460   33.5120 N.3   114  ASP114     -0.1225
     88  CA        -4.2620   -7.9370   33.2170 C.3   114  ASP114      0.1805
     89  C         -4.5430   -8.0660   31.7070 C.2   114  ASP114      0.2597
     90  O         -5.6130   -8.5250   31.2990 O.2   114  ASP114     -0.2718
     91  CB        -4.6210   -6.5320   33.7030 C.3   114  ASP114      0.1424
     92  CG        -3.8110   -5.4470   33.0020 C.2   114  ASP114      0.3668
     93  OD1       -4.4190   -4.5260   32.4150 O.co2 114  ASP114     -0.2456
     94  OD2       -2.5660   -5.5150   33.0280 O.co2 114  ASP114     -0.2456
     95  N         -3.5820   -7.6580   30.8850 N.am  115  LEU115     -0.1979
     96  CA        -3.7230   -7.7990   29.4360 C.3   115  LEU115      0.1596
     97  C         -3.7570   -9.2800   29.0630 C.2   115  LEU115      0.2287
     98  O         -4.6250   -9.7180   28.3090 O.2   115  LEU115     -0.2864
     99  CB        -2.5980   -7.0640   28.6950 C.3   115  LEU115      0.0297
    100  CG        -2.7830   -6.8510   27.1870 C.3   115  LEU115      0.0022
    101  CD1       -4.1230   -6.1820   26.9040 C.3   115  LEU115      0.0001
    102  CD2       -1.6290   -6.0330   26.5960 C.3   115  LEU115      0.0001
    103  N          0.4640   -6.1350   37.4670 N.3   140  SER140     -0.1202
    104  CA        -0.1490   -5.2630   36.4760 C.3   140  SER140      0.2020
    105  C          0.0800   -3.8360   36.9440 C.2   140  SER140      0.2619
    106  O         -0.7280   -3.2840   37.6990 O.2   140  SER140     -0.2717
    107  CB        -1.6440   -5.5510   36.3370 C.3   140  SER140      0.2103
    108  OG        -1.8680   -6.9150   36.0250 O.3   140  SER140     -0.2182
    109  N          1.1790   -3.2470   36.4920 N.am  141  ALA141     -0.1965
    110  CA         1.6660   -1.9880   37.0450 C.3   141  ALA141      0.1728
    111  C          0.7670   -0.7850   36.7850 C.2   141  ALA141      0.2616
    112  O          0.7020    0.1370   37.6100 O.2   141  ALA141     -0.2715
    113  CB         3.0730   -1.7090   36.5520 C.3   141  ALA141      0.0334
    114  N          0.0820   -0.7850   35.6460 N.am  142  ALA142     -0.1977
    115  CA        -0.8340    0.3020   35.3250 C.3   142  ALA142      0.1597
    116  C         -2.0690    0.2720   36.2330 C.2   142  ALA142      0.2287
    117  O         -2.7340    1.2930   36.4200 O.2   142  ALA142     -0.2864
    118  CB        -1.2430    0.2450   33.8610 C.3   142  ALA142      0.0319
@<TRIPOS>BOND
     1     6     5    1
     2     6     7    1
     3     5     2    1
     4     7     1    1
     5    15    13   am
     6    13    12    1
     7    13    14    2
     8    12     9    1
     9    69    68    2
    10     4     3    2
    11     2     1    1
    12     2     3    1
    13     3     8   am
    14    68    67    1
    15     8     9    1
    16     9    10    1
    17   102   100    1
    18    67    66    1
    19   101   100    1
    20    10    11    2
    21    10    16   am
    22   100    99    1
    23    86    85    1
    24    16    17    1
    25    21    20    1
    26    98    97    2
    27    35    34    1
    28    85    84    1
    29    99    96    1
    30    17    20    1
    31    17    18    1
    32    84    83    1
    33    97    96    1
    34    20    22    1
    35    96    95    1
    36    34    33    1
    37    18    23   am
    38    18    19    2
    39    23    24    1
    40    83    82    1
    41    65    64    1
    42    82    79    1
    43    33    32    1
    44    95    89   am
    45    52    51    2
    46    51    50    1
    47    81    80    2
    48    90    89    2
    49    64    63    1
    50    32    31    1
    51    24    25    1
    52    89    88    1
    53    41    40    1
    54    27    25   am
    55    27    28    1
    56    73    72    2
    57    79    80    1
    58    79    78    1
    59    54    56    1
    60    54    53    1
    61    31    28    1
    62    63    62    1
    63    93    92   ar
    64    25    26    2
    65    40    37    1
    66    50    53    1
    67    50    49    1
    68    72    78   am
    69    72    71    1
    70    28    29    1
    71    36    37    1
    72    36    29   am
    73    53    55    1
    74    47    46    1
    75    92    94   ar
    76    92    91    1
    77    77    75   am
    78    88    87    1
    79    88    91    1
    80    62    61    1
    81    74    71    1
    82    74    75    1
    83    37    38    1
    84    29    30    2
    85    71    70    1
    86   118   115    1
    87    75    76    2
    88    42    38   am
    89    42    43    1
    90    46    43    1
    91    46    48    1
    92    61    58    1
    93    38    39    2
    94    43    44    1
    95   115   114    1
    96   115   116    1
    97    58    57    1
    98    58    59    1
    99   114   111   am
   100   108   107    1
   101   116   117    2
   102    44    45    2
   103   107   104    1
   104   104   105    1
   105   104   103    1
   106   109   105   am
   107   109   110    1
   108   113   110    1
   109   111   110    1
   110   111   112    2
   111    59    60    2
   112   105   106    2
