@<TRIPOS>MOLECULE
tmp/2wjmC06.pdb
 177 168 0 0 0
SMALL
GASTEIGER

@<TRIPOS>ATOM
      1  N         34.8450   37.2270   36.2320 N.3   179  PHE179     -0.1241
      2  CA        34.3480   36.5380   35.0560 C.3   179  PHE179      0.1605
      3  C         32.8350   36.5460   35.0120 C.2   179  PHE179      0.2264
      4  O         32.2460   36.6240   33.9180 O.2   179  PHE179     -0.2867
      5  CB        34.8810   35.0790   34.9850 C.3   179  PHE179      0.0534
      6  CG        36.2830   34.9700   34.4150 C.ar  179  PHE179     -0.0203
      7  CD1       36.5160   35.1950   33.0620 C.ar  179  PHE179     -0.0042
      8  CD2       37.3610   34.6330   35.2210 C.ar  179  PHE179     -0.0042
      9  CE1       37.7810   35.0940   32.5250 C.ar  179  PHE179     -0.0003
     10  CE2       38.6380   34.5450   34.6940 C.ar  179  PHE179     -0.0003
     11  CZ        38.8510   34.7970   33.3340 C.ar  179  PHE179     -0.0000
     12  N         31.9580   40.2560   33.8030 N.3   182  VAL182     -0.1245
     13  CA        32.3030   40.4930   32.4060 C.3   182  VAL182      0.1561
     14  C         31.4950   39.5650   31.4710 C.2   182  VAL182      0.2260
     15  O         31.1230   39.9630   30.3920 O.2   182  VAL182     -0.2867
     16  CB        33.8180   40.4080   32.1190 C.3   182  VAL182      0.0252
     17  CG1       34.3260   38.9580   32.1790 C.3   182  VAL182      0.0019
     18  CG2       34.1390   41.0480   30.7380 C.3   182  VAL182      0.0019
     19  N         27.9920   41.1390   31.2580 N.3   185  MET185     -0.1230
     20  CA        28.1270   42.3410   30.4480 C.3   185  MET185      0.1702
     21  C         28.2480   41.9860   28.9580 C.2   185  MET185      0.2592
     22  O         27.5620   42.5890   28.0940 O.2   185  MET185     -0.2718
     23  CB        29.3370   43.1330   30.9410 C.3   185  MET185      0.0401
     24  CG        29.6510   44.3810   30.1470 C.3   185  MET185      0.0596
     25  SD        31.0110   44.1010   29.0280 S.3   185  MET185     -0.1393
     26  CE        31.6320   45.8130   28.8830 C.3   185  MET185      0.0692
     27  N         29.1060   41.0290   28.6720 N.am  186  ALA186     -0.1980
     28  CA        29.3890   40.6380   27.2900 C.3   186  ALA186      0.1597
     29  C         28.1690   40.0030   26.6100 C.2   186  ALA186      0.2287
     30  O         27.9720   40.1940   25.4160 O.2   186  ALA186     -0.2864
     31  CB        30.6030   39.7130   27.2130 C.3   186  ALA186      0.0319
     32  N         25.9820   42.8860   25.6400 N.3   189  LEU189     -0.1231
     33  CA        26.5700   43.5850   24.4820 C.3   189  LEU189      0.1693
     34  C         26.3540   42.7730   23.2200 C.2   189  LEU189      0.2592
     35  O         25.9830   43.3010   22.1860 O.2   189  LEU189     -0.2718
     36  CB        28.0560   43.8460   24.6660 C.3   189  LEU189      0.0284
     37  CG        28.4630   44.9250   25.6560 C.3   189  LEU189      0.0019
     38  CD1       29.9830   44.9350   25.7160 C.3   189  LEU189      0.0001
     39  CD2       27.9010   46.3130   25.2900 C.3   189  LEU189      0.0001
     40  N         26.5780   41.4710   23.3070 N.am  190  HIS190     -0.1976
     41  CA        26.4420   40.6270   22.1340 C.3   190  HIS190      0.1656
     42  C         24.9850   40.4980   21.6880 C.2   190  HIS190      0.2291
     43  O         24.6730   40.6920   20.5060 O.2   190  HIS190     -0.2864
     44  CB        27.0150   39.2430   22.3960 C.3   190  HIS190      0.0771
     45  CG        26.8160   38.3070   21.2570 C.ar  190  HIS190      0.0820
     46  ND1       27.2500   38.6090   19.9830 N.ar  190  HIS190     -0.2267
     47  CD2       26.1790   37.1140   21.1720 C.ar  190  HIS190      0.1154
     48  CE1       26.9170   37.6210   19.1730 C.ar  190  HIS190      0.1986
     49  NE2       26.2560   36.7160   19.8650 N.ar  190  HIS190     -0.2212
     50  N         23.9640   43.7860   20.2720 N.3   193  LEU193     -0.1245
     51  CA        24.5520   44.0670   18.9720 C.3   193  LEU193      0.1561
     52  C         23.8060   43.3180   17.8780 C.2   193  LEU193      0.2260
     53  O         23.4070   43.9290   16.8910 O.2   193  LEU193     -0.2867
     54  CB        26.0160   43.7000   18.9390 C.3   193  LEU193      0.0270
     55  CG        26.6740   43.9440   17.5660 C.3   193  LEU193      0.0019
     56  CD1       26.7200   45.4480   17.2470 C.3   193  LEU193      0.0001
     57  CD2       28.0410   43.3120   17.5530 C.3   193  LEU193      0.0001
     58  N         28.4830   45.5520   12.2690 N.3   212  GLU212     -0.1231
     59  CA        28.7750   45.0580   13.6290 C.3   212  GLU212      0.1699
     60  C         30.1640   45.4750   14.0300 C.2   212  GLU212      0.2592
     61  O         30.3820   45.9950   15.1220 O.2   212  GLU212     -0.2718
     62  CB        28.7050   43.5330   13.7490 C.3   212  GLU212      0.0402
     63  CG        27.3800   42.9170   13.5360 C.3   212  GLU212      0.1161
     64  CD        27.4030   41.4080   13.7610 C.2   212  GLU212      0.3649
     65  OE1       28.2660   40.9050   14.5260 O.co2 212  GLU212     -0.2457
     66  OE2       26.5300   40.7150   13.2050 O.co2 212  GLU212     -0.2457
     67  N         31.1270   45.2470   13.1430 N.am  213  ASN213     -0.1974
     68  CA        32.5080   45.5460   13.4890 C.3   213  ASN213      0.1688
     69  C         32.7400   47.0330   13.5880 C.2   213  ASN213      0.2292
     70  O         33.5130   47.4800   14.4260 O.2   213  ASN213     -0.2864
     71  CB        33.4930   44.8580   12.5210 C.3   213  ASN213      0.1181
     72  CG        33.5280   43.3640   12.7390 C.2   213  ASN213      0.2629
     73  OD1       33.5230   42.9010   13.8860 O.2   213  ASN213     -0.2716
     74  ND2       33.5050   42.5980   11.6540 N.am  213  ASN213     -0.0877
     75  N         31.6380   48.5170   17.2810 N.3   216  PHE216     -0.1241
     76  CA        32.6180   48.3650   18.3480 C.3   216  PHE216      0.1605
     77  C         33.9670   48.9870   18.0950 C.2   216  PHE216      0.2264
     78  O         34.5830   49.4540   19.0350 O.2   216  PHE216     -0.2867
     79  CB        32.7230   46.9270   18.7980 C.3   216  PHE216      0.0534
     80  CG        31.6010   46.5520   19.7260 C.ar  216  PHE216     -0.0203
     81  CD1       31.4860   47.1680   20.9490 C.ar  216  PHE216     -0.0042
     82  CD2       30.6350   45.6690   19.3450 C.ar  216  PHE216     -0.0042
     83  CE1       30.4280   46.8760   21.8020 C.ar  216  PHE216     -0.0003
     84  CE2       29.5950   45.3630   20.1830 C.ar  216  PHE216     -0.0003
     85  CZ        29.4850   45.9610   21.4040 C.ar  216  PHE216     -0.0000
     86  N         34.8650   51.3560   21.1520 N.3   220  VAL220     -0.1245
     87  CA        36.0340   50.9600   22.0010 C.3   220  VAL220      0.1561
     88  C         37.3820   50.7810   21.2550 C.2   220  VAL220      0.2260
     89  O         38.4020   50.4790   21.8890 O.2   220  VAL220     -0.2867
     90  CB        35.7640   49.7190   22.8710 C.3   220  VAL220      0.0252
     91  CG1       34.5260   49.9330   23.7960 C.3   220  VAL220      0.0019
     92  CG2       35.5860   48.4620   22.0250 C.3   220  VAL220      0.0019
     93  N         38.1380   48.5420   18.9610 N.3   222  TYR222     -0.1227
     94  CA        38.4210   47.1430   18.7030 C.3   222  TYR222      0.1736
     95  C         37.1310   46.3560   18.5800 C.2   222  TYR222      0.2596
     96  O         36.2140   46.5380   19.3660 O.2   222  TYR222     -0.2718
     97  CB        39.2660   46.5080   19.8150 C.3   222  TYR222      0.0548
     98  CG        39.5580   45.0480   19.4650 C.ar  222  TYR222     -0.0200
     99  CD1       40.3040   44.7530   18.3360 C.ar  222  TYR222     -0.0009
    100  CD2       39.0360   44.0010   20.1960 C.ar  222  TYR222     -0.0009
    101  CE1       40.5590   43.4490   17.9650 C.ar  222  TYR222      0.0417
    102  CE2       39.2680   42.6550   19.8040 C.ar  222  TYR222      0.0417
    103  CZ        40.0300   42.4160   18.6870 C.ar  222  TYR222      0.1957
    104  OH        40.3010   41.1430   18.2490 O.3   222  TYR222     -0.2866
    105  N         37.0510   45.4740   17.5870 N.am  223  SER223     -0.1938
    106  CA        35.9300   44.5290   17.4880 C.3   223  SER223      0.2055
    107  C         36.4850   43.1200   17.3590 C.2   223  SER223      0.2643
    108  O         37.2950   42.8600   16.4720 O.2   223  SER223     -0.2714
    109  CB        35.0730   44.8460   16.2810 C.3   223  SER223      0.2130
    110  OG        33.9790   43.9210   16.1870 O.3   223  SER223     -0.2179
    111  N         36.0720   42.2240   18.2490 N.am  224  ILE224     -0.1963
    112  CA        36.6440   40.8780   18.3000 C.3   224  ILE224      0.1727
    113  C         36.2010   39.9940   17.1010 C.2   224  ILE224      0.2617
    114  O         36.9790   39.1690   16.6170 O.2   224  ILE224     -0.2715
    115  CB        36.3510   40.2130   19.6390 C.3   224  ILE224      0.0290
    116  CG1       37.2490   38.9800   19.8280 C.3   224  ILE224      0.0022
    117  CG2       34.8900   39.8720   19.7430 C.3   224  ILE224      0.0023
    118  CD1       37.1150   38.2600   21.1250 C.3   224  ILE224      0.0001
    119  N         34.9670   40.1600   16.6240 N.am  225  GLY225     -0.1940
    120  CA        34.4670   39.3840   15.4670 C.3   225  GLY225      0.2014
    121  C         33.3140   38.4710   15.8090 C.2   225  GLY225      0.2638
    122  O         33.1040   38.1390   16.9780 O.2   225  GLY225     -0.2714
    123  N         32.5930   38.0350   14.7680 N.am  226  ALA226     -0.1977
    124  CA        31.3300   37.3580   14.9290 C.3   226  ALA226      0.1597
    125  C         31.5300   35.9470   15.4730 C.2   226  ALA226      0.2287
    126  O         30.8510   35.5520   16.4210 O.2   226  ALA226     -0.2864
    127  CB        30.5470   37.3490   13.5950 C.3   226  ALA226      0.0319
    128  N         33.4220   36.1660   19.2520 N.3   229  ILE229     -0.1245
    129  CA        32.6670   36.5490   20.4340 C.3   229  ILE229      0.1561
    130  C         31.9870   35.3680   21.0860 C.2   229  ILE229      0.2260
    131  O         31.7290   35.3910   22.2970 O.2   229  ILE229     -0.2867
    132  CB        31.6500   37.6530   20.1660 C.3   229  ILE229      0.0252
    133  CG1       31.0110   38.0760   21.4770 C.3   229  ILE229      0.0019
    134  CG2       30.5800   37.2310   19.1250 C.3   229  ILE229      0.0019
    135  CD1       31.9930   38.2440   22.6720 C.3   229  ILE229      0.0001
    136  N         34.7570   33.6830   22.8690 N.3   232  LEU232     -0.1245
    137  CA        35.0740   34.4550   24.0450 C.3   232  LEU232      0.1561
    138  C         34.0120   34.2490   25.1140 C.2   232  LEU232      0.2260
    139  O         34.3570   34.0630   26.2680 O.2   232  LEU232     -0.2867
    140  CB        35.2170   35.9370   23.7220 C.3   232  LEU232      0.0270
    141  CG        35.4890   36.8510   24.9140 C.3   232  LEU232      0.0019
    142  CD1       36.8580   36.6130   25.5770 C.3   232  LEU232      0.0001
    143  CD2       35.3260   38.3200   24.4640 C.3   232  LEU232      0.0001
    144  N         34.4580   31.0980   26.8810 N.3   235  PHE235     -0.1227
    145  CA        35.6740   31.1730   27.6890 C.3   235  PHE235      0.1736
    146  C         35.4090   31.9280   28.9950 C.2   235  PHE235      0.2595
    147  O         35.8570   31.5200   30.0500 O.2   235  PHE235     -0.2718
    148  CB        36.7820   31.8530   26.8650 C.3   235  PHE235      0.0547
    149  CG        38.0220   32.2250   27.6420 C.ar  235  PHE235     -0.0202
    150  CD1       39.0580   31.3340   27.7910 C.ar  235  PHE235     -0.0042
    151  CD2       38.1610   33.4890   28.1920 C.ar  235  PHE235     -0.0042
    152  CE1       40.2140   31.6900   28.4920 C.ar  235  PHE235     -0.0003
    153  CE2       39.3280   33.8550   28.8700 C.ar  235  PHE235     -0.0003
    154  CZ        40.3410   32.9350   29.0270 C.ar  235  PHE235     -0.0000
    155  N         34.6910   33.0340   28.9020 N.am  236  LEU236     -0.1980
    156  CA        34.4080   33.8540   30.0510 C.3   236  LEU236      0.1596
    157  C         33.4810   33.1310   31.0240 C.2   236  LEU236      0.2287
    158  O         33.7350   33.0930   32.2260 O.2   236  LEU236     -0.2864
    159  CB        33.7950   35.1700   29.6120 C.3   236  LEU236      0.0297
    160  CG        34.6940   36.1260   28.8090 C.3   236  LEU236      0.0022
    161  CD1       33.8100   37.3190   28.4410 C.3   236  LEU236      0.0001
    162  CD2       35.9260   36.6410   29.5820 C.3   236  LEU236      0.0001
    163  N         35.1740   30.1830   32.7360 N.3   239  ASN239     -0.1240
    164  CA        36.1540   30.5610   33.7440 C.3   239  ASN239      0.1653
    165  C         35.5710   31.0940   35.0470 C.2   239  ASN239      0.2266
    166  O         36.3290   31.3350   35.9820 O.2   239  ASN239     -0.2867
    167  CB        37.2210   31.4830   33.1680 C.3   239  ASN239      0.1155
    168  CG        38.2360   30.7370   32.3850 C.2   239  ASN239      0.2627
    169  OD1       38.2530   30.7590   31.1450 O.2   239  ASN239     -0.2716
    170  ND2       39.0930   30.0600   33.0830 N.am  239  ASN239     -0.0877
    171  N         38.2120   29.1210   37.3520 N.3   243  THR243     -0.1218
    172  CA        39.0250   29.8580   38.3050 C.3   243  THR243      0.1862
    173  C         38.4460   29.7800   39.7370 C.2   243  THR243      0.2287
    174  O         39.1960   29.5770   40.6990 O.2   243  THR243     -0.2866
    175  CB        39.2380   31.3150   37.8320 C.3   243  THR243      0.1770
    176  OG1       37.9920   31.9860   37.7980 O.3   243  THR243     -0.2211
    177  CG2       39.8640   31.3360   36.4240 C.3   243  THR243      0.0375
@<TRIPOS>BOND
     1    74    72   am
     2    58    59    1
     3    71    72    1
     4    71    68    1
     5    72    73    2
     6    67    68    1
     7    67    60   am
     8    66    64   ar
     9    68    69    1
    10    63    62    1
    11    63    64    1
    12    69    70    2
    13   127   124    1
    14    59    62    1
    15    59    60    1
    16    64    65   ar
    17    60    61    2
    18   123   124    1
    19   123   121   am
    20   124   125    1
    21   120   121    1
    22   120   119    1
    23   125   126    2
    24   121   122    2
    25   110   109    1
    26   109   106    1
    27   108   107    2
    28   114   113    2
    29   119   113   am
    30    53    52    2
    31   113   112    1
    32    56    55    1
    33    75    76    1
    34   107   106    1
    35   107   111   am
    36   106   105    1
    37    57    55    1
    38    55    54    1
    39   105    95   am
    40    52    51    1
    41   101    99   ar
    42   101   103   ar
    43    77    76    1
    44    77    78    2
    45   111   112    1
    46   104   103    1
    47   112   115    1
    48    99    98   ar
    49    76    79    1
    50    95    94    1
    51    95    96    2
    52   103   102   ar
    53    94    93    1
    54    94    97    1
    55    79    80    1
    56    54    51    1
    57    51    50    1
    58   134   132    1
    59    48    49   ar
    60    48    46   ar
    61   128   129    1
    62    82    80   ar
    63    82    84   ar
    64    98    97    1
    65    98   100   ar
    66   115   117    1
    67   115   116    1
    68    80    81   ar
    69   102   100   ar
    70   116   118    1
    71    49    47   ar
    72    46    45   ar
    73   132   129    1
    74   132   133    1
    75    84    85   ar
    76   129   130    1
    77    43    42    2
    78    81    83   ar
    79   130   131    2
    80    86    87    1
    81    47    45   ar
    82    88    89    2
    83    88    87    1
    84    45    44    1
    85    85    83   ar
    86   133   135    1
    87    42    41    1
    88    87    90    1
    89    92    90    1
    90    41    44    1
    91    41    40    1
    92    35    34    2
    93   136   137    1
    94    90    91    1
    95    34    40   am
    96    34    33    1
    97   140   137    1
    98   140   141    1
    99   137   138    1
   100   143   141    1
   101    33    36    1
   102    33    32    1
   103    36    37    1
   104   141   142    1
   105   138   139    2
   106    39    37    1
   107    30    29    2
   108    37    38    1
   109    29    28    1
   110   148   149    1
   111   148   145    1
   112   144   145    1
   113    31    28    1
   114    28    27    1
   115   149   150   ar
   116   149   151   ar
   117   145   146    1
   118   150   152   ar
   119    22    21    2
   120   151   153   ar
   121   161   160    1
   122   152   154   ar
   123    27    21   am
   124   160   162    1
   125   160   159    1
   126   153   154   ar
   127    26    25    1
   128   155   146   am
   129   155   156    1
   130    21    20    1
   131   146   147    2
   132    25    24    1
   133   159   156    1
   134   156   157    1
   135    24    23    1
   136    15    14    2
   137    20    23    1
   138    20    19    1
   139    18    16    1
   140   157   158    2
   141   169   168    2
   142    14    13    1
   143    16    17    1
   144    16    13    1
   145   168   170   am
   146   168   167    1
   147    13    12    1
   148     9     7   ar
   149     9    11   ar
   150   163   164    1
   151     7     6   ar
   152   167   164    1
   153    11    10   ar
   154   164   165    1
   155     4     3    2
   156     6     5    1
   157     6     8   ar
   158    10     8   ar
   159     5     2    1
   160     3     2    1
   161   165   166    2
   162     2     1    1
   163   177   175    1
   164   171   172    1
   165   176   175    1
   166   175   172    1
   167   172   173    1
   168   173   174    2
