@<TRIPOS>MOLECULE
tmp/2wjmC05.pdb
 100 97 0 0 0
SMALL
GASTEIGER

@<TRIPOS>ATOM
      1  N         29.5620   19.8400   16.4770 N.3   114  GLY114     -0.1210
      2  CA        30.6110   19.6660   17.4810 C.3   114  GLY114      0.1956
      3  C         30.0430   19.3100   18.8330 C.2   114  GLY114      0.2612
      4  O         28.8440   19.4790   19.0710 O.2   114  GLY114     -0.2717
      5  N         30.8980   18.8060   19.7240 N.am  115  TRP115     -0.1962
      6  CA        30.4730   18.4320   21.0810 C.3   115  TRP115      0.1771
      7  C         30.7780   19.5450   22.0800 C.2   115  TRP115      0.2619
      8  O         30.9720   19.2840   23.2720 O.2   115  TRP115     -0.2715
      9  CB        31.1520   17.1620   21.5580 C.3   115  TRP115      0.0590
     10  CG        31.1530   16.0670   20.6180 C.ar  115  TRP115      0.0006
     11  CD1       30.4940   15.9820   19.4100 C.ar  115  TRP115      0.0946
     12  CD2       31.7690   14.7910   20.8320 C.ar  115  TRP115      0.0152
     13  NE1       30.7080   14.7390   18.8490 N.ar  115  TRP115     -0.2442
     14  CE2       31.4850   13.9920   19.7030 C.ar  115  TRP115      0.0810
     15  CE3       32.5490   14.2530   21.8700 C.ar  115  TRP115      0.0012
     16  CZ2       31.9660   12.6900   19.5750 C.ar  115  TRP115      0.0191
     17  CZ3       33.0290   12.9560   21.7380 C.ar  115  TRP115      0.0001
     18  CH2       32.7430   12.1980   20.5930 C.ar  115  TRP115      0.0015
     19  N         30.8010   20.7850   21.6020 N.am  116  HIS116     -0.1973
     20  CA        31.1600   21.9110   22.4490 C.3   116  HIS116      0.1656
     21  C         30.1770   22.0820   23.6120 C.2   116  HIS116      0.2291
     22  O         30.5820   22.4480   24.7140 O.2   116  HIS116     -0.2864
     23  CB        31.2350   23.1990   21.6220 C.3   116  HIS116      0.0771
     24  CG        32.2580   23.1600   20.5250 C.ar  116  HIS116      0.0820
     25  ND1       32.0600   22.4710   19.3470 N.ar  116  HIS116     -0.2267
     26  CD2       33.4700   23.7520   20.4170 C.ar  116  HIS116      0.1154
     27  CE1       33.1190   22.6180   18.5720 C.ar  116  HIS116      0.1986
     28  NE2       33.9930   23.3900   19.1970 N.ar  116  HIS116     -0.2212
     29  N         30.7930   19.4960   26.4180 N.3   119  LEU119     -0.1231
     30  CA        32.0780   19.8230   27.0330 C.3   119  LEU119      0.1693
     31  C         31.9400   21.0240   27.9840 C.2   119  LEU119      0.2591
     32  O         32.5390   21.0700   29.0570 O.2   119  LEU119     -0.2718
     33  CB        33.1180   20.1450   25.9460 C.3   119  LEU119      0.0284
     34  CG        34.5050   20.6180   26.4320 C.3   119  LEU119      0.0019
     35  CD1       35.1740   19.6190   27.4100 C.3   119  LEU119      0.0001
     36  CD2       35.4490   20.9000   25.2410 C.3   119  LEU119      0.0001
     37  N         31.1580   21.9970   27.5590 N.am  120  ALA120     -0.1980
     38  CA        30.9330   23.2310   28.3290 C.3   120  ALA120      0.1597
     39  C         30.1510   22.8520   29.5850 C.2   120  ALA120      0.2287
     40  O         30.3580   23.4140   30.6720 O.2   120  ALA120     -0.2864
     41  CB        30.1270   24.2060   27.4860 C.3   120  ALA120      0.0319
     42  N         31.7590   21.7750   32.8580 N.3   123  VAL123     -0.1245
     43  CA        32.2510   22.7530   33.8100 C.3   123  VAL123      0.1561
     44  C         31.3770   22.8600   35.0900 C.2   123  VAL123      0.2260
     45  O         31.9290   22.7350   36.1920 O.2   123  VAL123     -0.2867
     46  CB        32.5040   24.1290   33.1430 C.3   123  VAL123      0.0252
     47  CG1       32.9240   25.1650   34.1950 C.3   123  VAL123      0.0019
     48  CG2       33.5800   23.9920   32.0170 C.3   123  VAL123      0.0019
     49  N         33.3970   32.1620   20.9590 N.3   231  ARG231     -0.1245
     50  CA        34.4940   31.5750   21.6830 C.3   231  ARG231      0.1563
     51  C         34.8010   32.3550   22.9350 C.2   231  ARG231      0.2260
     52  O         35.0770   31.7840   23.9700 O.2   231  ARG231     -0.2867
     53  CB        35.7360   31.4930   20.8080 C.3   231  ARG231      0.0307
     54  CG        36.7990   30.5590   21.3820 C.3   231  ARG231      0.0489
     55  CD        38.1320   30.7420   20.6250 C.3   231  ARG231      0.2205
     56  NE        38.0010   30.4000   19.1960 N.pl3 231  ARG231     -0.0865
     57  CZ        38.0310   31.2690   18.1820 C.cat 231  ARG231      0.5346
     58  NH1       38.2040   32.5460   18.3880 N.pl3 231  ARG231      0.1354
     59  NH2       37.9200   30.8350   16.9350 N.pl3 231  ARG231      0.1354
     60  N         32.0210   31.6760   25.6560 N.3   234  LEU234     -0.1231
     61  CA        32.2220   30.3660   26.2600 C.3   234  LEU234      0.1693
     62  C         33.4110   30.3790   27.2430 C.2   234  LEU234      0.2592
     63  O         33.3700   29.7680   28.3170 O.2   234  LEU234     -0.2718
     64  CB        32.4440   29.3330   25.1690 C.3   234  LEU234      0.0284
     65  CG        32.8410   27.9320   25.5990 C.3   234  LEU234      0.0019
     66  CD1       31.8140   27.3620   26.5840 C.3   234  LEU234      0.0001
     67  CD2       32.9610   27.0170   24.3820 C.3   234  LEU234      0.0001
     68  N         34.4580   31.0980   26.8810 N.am  235  PHE235     -0.1976
     69  CA        35.6740   31.1730   27.6890 C.3   235  PHE235      0.1639
     70  C         35.4090   31.9280   28.9950 C.2   235  PHE235      0.2290
     71  O         35.8570   31.5200   30.0500 O.2   235  PHE235     -0.2864
     72  CB        36.7820   31.8530   26.8650 C.3   235  PHE235      0.0560
     73  CG        38.0220   32.2250   27.6420 C.ar  235  PHE235     -0.0200
     74  CD1       39.0580   31.3340   27.7910 C.ar  235  PHE235     -0.0042
     75  CD2       38.1610   33.4890   28.1920 C.ar  235  PHE235     -0.0042
     76  CE1       40.2140   31.6900   28.4920 C.ar  235  PHE235     -0.0003
     77  CE2       39.3280   33.8550   28.8700 C.ar  235  PHE235     -0.0003
     78  CZ        40.3410   32.9350   29.0270 C.ar  235  PHE235     -0.0000
     79  N         32.8370   29.8500   31.2390 N.3   238  SER238     -0.1202
     80  CA        33.5400   28.6830   31.7880 C.3   238  SER238      0.2020
     81  C         34.4530   29.0770   32.9150 C.2   238  SER238      0.2618
     82  O         34.4900   28.4240   33.9500 O.2   238  SER238     -0.2717
     83  CB        34.3560   27.9810   30.7170 C.3   238  SER238      0.2103
     84  OG        33.5180   27.4170   29.7260 O.3   238  SER238     -0.2182
     85  N         35.1740   30.1830   32.7360 N.am  239  ASN239     -0.1974
     86  CA        36.1540   30.5610   33.7440 C.3   239  ASN239      0.1688
     87  C         35.5710   31.0940   35.0470 C.2   239  ASN239      0.2292
     88  O         36.3290   31.3350   35.9820 O.2   239  ASN239     -0.2864
     89  CB        37.2210   31.4830   33.1680 C.3   239  ASN239      0.1181
     90  CG        38.2360   30.7370   32.3850 C.2   239  ASN239      0.2629
     91  OD1       38.2530   30.7590   31.1450 O.2   239  ASN239     -0.2716
     92  ND2       39.0930   30.0600   33.0830 N.am  239  ASN239     -0.0877
     93  N         36.0280   27.6060   36.3900 N.3   242  LEU242     -0.1245
     94  CA        37.3700   27.0700   36.2830 C.3   242  LEU242      0.1561
     95  C         38.3590   27.7990   37.2000 C.2   242  LEU242      0.2260
     96  O         39.2530   27.1650   37.7580 O.2   242  LEU242     -0.2867
     97  CB        37.8860   27.0500   34.8410 C.3   242  LEU242      0.0270
     98  CG        37.1430   26.1310   33.8720 C.3   242  LEU242      0.0019
     99  CD1       37.5260   26.3750   32.4140 C.3   242  LEU242      0.0001
    100  CD2       37.3890   24.6230   34.2270 C.3   242  LEU242      0.0001
@<TRIPOS>BOND
     1     1     2    1
     2    59    57    1
     3     2     3    1
     4    57    58    1
     5    57    56    2
     6    27    28   ar
     7    27    25   ar
     8     3     4    2
     9     3     5   am
    10    13    11   ar
    11    13    14   ar
    12    56    55    1
    13    28    26   ar
    14    25    24   ar
    15    11    10   ar
    16    16    14   ar
    17    16    18   ar
    18    14    12   ar
    19     5     6    1
    20    26    24   ar
    21    24    23    1
    22    18    17   ar
    23    10    12   ar
    24    10     9    1
    25    55    54    1
    26    53    54    1
    27    53    50    1
    28    12    15   ar
    29    49    50    1
    30     6     9    1
    31     6     7    1
    32    19     7   am
    33    19    20    1
    34    23    20    1
    35    50    51    1
    36    17    15   ar
    37     7     8    2
    38    20    21    1
    39    51    52    2
    40    21    22    2
    41    67    65    1
    42    64    65    1
    43    64    61    1
    44    36    34    1
    45    65    66    1
    46    60    61    1
    47    33    34    1
    48    33    30    1
    49    61    62    1
    50    29    30    1
    51    34    35    1
    52    72    73    1
    53    72    69    1
    54    68    62   am
    55    68    69    1
    56    30    31    1
    57    62    63    2
    58    41    38    1
    59    37    31   am
    60    37    38    1
    61    73    74   ar
    62    73    75   ar
    63    69    70    1
    64    74    76   ar
    65    31    32    2
    66    75    77   ar
    67    38    39    1
    68    76    78   ar
    69    77    78   ar
    70    70    71    2
    71    39    40    2
    72    84    83    1
    73    83    80    1
    74    91    90    2
    75    79    80    1
    76    80    81    1
    77    48    46    1
    78    90    92   am
    79    90    89    1
    80    99    98    1
    81    85    81   am
    82    85    86    1
    83    42    43    1
    84    81    82    2
    85    46    43    1
    86    46    47    1
    87    89    86    1
    88    86    87    1
    89    43    44    1
    90    98   100    1
    91    98    97    1
    92    97    94    1
    93    87    88    2
    94    44    45    2
    95    94    93    1
    96    94    95    1
    97    95    96    2
