@<TRIPOS>MOLECULE
tmp/2wjnC03.pdb
 100 97 0 0 0
SMALL
GASTEIGER

@<TRIPOS>ATOM
      1  N         12.6770   49.6220   16.4820 N.3   114  GLY114     -0.1210
      2  CA        11.5740   49.8190   17.4300 C.3   114  GLY114      0.1956
      3  C         12.1380   50.1570   18.7930 C.2   114  GLY114      0.2612
      4  O         13.3460   49.9690   19.0630 O.2   114  GLY114     -0.2717
      5  N         11.2650   50.6430   19.6660 N.am  115  TRP115     -0.1962
      6  CA        11.6540   51.0300   21.0300 C.3   115  TRP115      0.1771
      7  C         11.4100   49.9500   22.0620 C.2   115  TRP115      0.2619
      8  O         11.2780   50.2380   23.2710 O.2   115  TRP115     -0.2715
      9  CB        10.8580   52.2640   21.4410 C.3   115  TRP115      0.0590
     10  CG        10.9720   53.4060   20.5760 C.ar  115  TRP115      0.0006
     11  CD1       11.5980   53.5110   19.3640 C.ar  115  TRP115      0.0946
     12  CD2       10.3680   54.6700   20.8370 C.ar  115  TRP115      0.0152
     13  NE1       11.4310   54.7870   18.8720 N.ar  115  TRP115     -0.2442
     14  CE2       10.6820   55.5160   19.7650 C.ar  115  TRP115      0.0810
     15  CE3        9.6030   55.1660   21.9000 C.ar  115  TRP115      0.0012
     16  CZ2       10.2520   56.8410   19.7170 C.ar  115  TRP115      0.0191
     17  CZ3        9.1800   56.4960   21.8570 C.ar  115  TRP115      0.0001
     18  CH2        9.4930   57.3030   20.7710 C.ar  115  TRP115      0.0015
     19  N         11.4150   48.6910   21.6180 N.am  116  HIS116     -0.1973
     20  CA        11.0560   47.6030   22.4870 C.3   116  HIS116      0.1656
     21  C         12.0160   47.4350   23.6590 C.2   116  HIS116      0.2291
     22  O         11.5640   47.0960   24.7670 O.2   116  HIS116     -0.2864
     23  CB        10.9320   46.2740   21.7150 C.3   116  HIS116      0.0771
     24  CG         9.9410   46.3110   20.5850 C.ar  116  HIS116      0.0820
     25  ND1       10.1540   47.0370   19.4390 N.ar  116  HIS116     -0.2267
     26  CD2        8.7460   45.6990   20.4280 C.ar  116  HIS116      0.1154
     27  CE1        9.1100   46.9040   18.6330 C.ar  116  HIS116      0.1986
     28  NE2        8.2480   46.0720   19.2030 N.ar  116  HIS116     -0.2212
     29  N         11.3480   50.0030   26.4820 N.3   119  LEU119     -0.1231
     30  CA        10.0650   49.6390   27.0490 C.3   119  LEU119      0.1693
     31  C         10.1820   48.4400   27.9820 C.2   119  LEU119      0.2591
     32  O          9.5780   48.4010   29.0730 O.2   119  LEU119     -0.2718
     33  CB         9.0610   49.3520   25.9140 C.3   119  LEU119      0.0284
     34  CG         7.6670   48.8690   26.3270 C.3   119  LEU119      0.0019
     35  CD1        6.8940   49.8910   27.1380 C.3   119  LEU119      0.0001
     36  CD2        6.8000   48.3950   25.1310 C.3   119  LEU119      0.0001
     37  N         10.9510   47.4600   27.5350 N.am  120  ALA120     -0.1980
     38  CA        11.2110   46.2580   28.3230 C.3   120  ALA120      0.1597
     39  C         11.9720   46.6180   29.5960 C.2   120  ALA120      0.2287
     40  O         11.6970   46.0520   30.6670 O.2   120  ALA120     -0.2864
     41  CB        11.9870   45.2130   27.5180 C.3   120  ALA120      0.0319
     42  N         10.2660   47.6680   32.9260 N.3   123  VAL123     -0.1245
     43  CA         9.7960   46.6830   33.8630 C.3   123  VAL123      0.1561
     44  C         10.6730   46.5750   35.1390 C.2   123  VAL123      0.2260
     45  O         10.1210   46.6680   36.2330 O.2   123  VAL123     -0.2867
     46  CB         9.5650   45.2980   33.2120 C.3   123  VAL123      0.0252
     47  CG1        9.0030   44.1990   34.2810 C.3   123  VAL123      0.0019
     48  CG2        8.5340   45.4830   32.0700 C.3   123  VAL123      0.0019
     49  N          8.7970   37.2700   20.9630 N.3   231  ARG231     -0.1245
     50  CA         7.6960   37.9060   21.7020 C.3   231  ARG231      0.1563
     51  C          7.3800   37.1400   22.9870 C.2   231  ARG231      0.2260
     52  O          7.0940   37.7350   24.0240 O.2   231  ARG231     -0.2867
     53  CB         6.4660   37.9330   20.8130 C.3   231  ARG231      0.0307
     54  CG         5.3550   38.7980   21.3230 C.3   231  ARG231      0.0489
     55  CD         4.0620   38.6150   20.5820 C.3   231  ARG231      0.2205
     56  NE         4.1560   38.9960   19.1560 N.pl3 231  ARG231     -0.0865
     57  CZ         4.1190   38.1590   18.1360 C.cat 231  ARG231      0.5346
     58  NH1        4.0430   36.8670   18.3300 N.pl3 231  ARG231      0.1354
     59  NH2        4.2090   38.6270   16.9120 N.pl3 231  ARG231      0.1354
     60  N         10.0940   37.7690   25.6930 N.3   234  LEU234     -0.1231
     61  CA         9.8760   39.0880   26.2830 C.3   234  LEU234      0.1693
     62  C          8.6700   39.1020   27.2570 C.2   234  LEU234      0.2592
     63  O          8.7200   39.7240   28.3490 O.2   234  LEU234     -0.2718
     64  CB         9.6830   40.1000   25.2010 C.3   234  LEU234      0.0284
     65  CG         9.3820   41.5340   25.6310 C.3   234  LEU234      0.0019
     66  CD1       10.4200   42.1190   26.6510 C.3   234  LEU234      0.0001
     67  CD2        9.3010   42.3690   24.4140 C.3   234  LEU234      0.0001
     68  N          7.6270   38.3720   26.8890 N.am  235  PHE235     -0.1976
     69  CA         6.4160   38.2710   27.7340 C.3   235  PHE235      0.1639
     70  C          6.7150   37.5360   29.0330 C.2   235  PHE235      0.2290
     71  O          6.3580   37.9880   30.1310 O.2   235  PHE235     -0.2864
     72  CB         5.3510   37.5530   26.9220 C.3   235  PHE235      0.0560
     73  CG         4.1140   37.1820   27.6860 C.ar  235  PHE235     -0.0200
     74  CD1        3.0810   38.0730   27.8060 C.ar  235  PHE235     -0.0042
     75  CD2        3.9600   35.8950   28.2220 C.ar  235  PHE235     -0.0042
     76  CE1        1.9230   37.7480   28.4960 C.ar  235  PHE235     -0.0003
     77  CE2        2.7800   35.5430   28.8930 C.ar  235  PHE235     -0.0003
     78  CZ         1.7690   36.4890   29.0270 C.ar  235  PHE235     -0.0000
     79  N          9.2210   39.5820   31.2640 N.3   238  SER238     -0.1202
     80  CA         8.5620   40.7640   31.8090 C.3   238  SER238      0.2020
     81  C          7.6190   40.3700   32.9480 C.2   238  SER238      0.2618
     82  O          7.5730   41.0660   33.9590 O.2   238  SER238     -0.2717
     83  CB         7.8070   41.5590   30.7460 C.3   238  SER238      0.2103
     84  OG         8.6880   42.0600   29.7500 O.3   238  SER238     -0.2182
     85  N          6.9040   39.2450   32.7830 N.am  239  ASN239     -0.1974
     86  CA         5.8850   38.8440   33.7590 C.3   239  ASN239      0.1688
     87  C          6.4450   38.3250   35.0750 C.2   239  ASN239      0.2292
     88  O          5.6960   38.2050   36.0450 O.2   239  ASN239     -0.2864
     89  CB         4.8620   37.8980   33.1340 C.3   239  ASN239      0.1181
     90  CG         3.8290   38.6340   32.4150 C.2   239  ASN239      0.2629
     91  OD1        3.7280   38.5860   31.1760 O.2   239  ASN239     -0.2716
     92  ND2        3.0690   39.3750   33.1470 N.am  239  ASN239     -0.0877
     93  N          6.0380   41.8250   36.4660 N.3   242  LEU242     -0.1245
     94  CA         4.7350   42.3440   36.3510 C.3   242  LEU242      0.1561
     95  C          3.7300   41.6070   37.2530 C.2   242  LEU242      0.2260
     96  O          2.8270   42.2430   37.7690 O.2   242  LEU242     -0.2867
     97  CB         4.2540   42.3580   34.8910 C.3   242  LEU242      0.0270
     98  CG         4.9860   43.2500   33.9100 C.3   242  LEU242      0.0019
     99  CD1        4.4690   43.0590   32.4530 C.3   242  LEU242      0.0001
    100  CD2        4.7510   44.7040   34.3640 C.3   242  LEU242      0.0001
@<TRIPOS>BOND
     1     1     2    1
     2    59    57    1
     3     2     3    1
     4    57    58    1
     5    57    56    2
     6    27    28   ar
     7    27    25   ar
     8     3     4    2
     9     3     5   am
    10    13    11   ar
    11    13    14   ar
    12    56    55    1
    13    28    26   ar
    14    11    10   ar
    15    25    24   ar
    16     5     6    1
    17    16    14   ar
    18    16    18   ar
    19    14    12   ar
    20    26    24   ar
    21    10    12   ar
    22    10     9    1
    23    55    54    1
    24    24    23    1
    25    18    17   ar
    26    53    54    1
    27    53    50    1
    28    12    15   ar
    29    49    50    1
    30     6     9    1
    31     6     7    1
    32    19     7   am
    33    19    20    1
    34    50    51    1
    35    23    20    1
    36    17    15   ar
    37     7     8    2
    38    20    21    1
    39    51    52    2
    40    21    22    2
    41    67    65    1
    42    36    34    1
    43    64    65    1
    44    64    61    1
    45    65    66    1
    46    60    61    1
    47    33    34    1
    48    33    30    1
    49    61    62    1
    50    34    35    1
    51    29    30    1
    52    68    62   am
    53    68    69    1
    54    72    73    1
    55    72    69    1
    56    30    31    1
    57    62    63    2
    58    41    38    1
    59    37    31   am
    60    37    38    1
    61    73    74   ar
    62    73    75   ar
    63    69    70    1
    64    74    76   ar
    65    31    32    2
    66    75    77   ar
    67    38    39    1
    68    76    78   ar
    69    77    78   ar
    70    70    71    2
    71    39    40    2
    72    84    83    1
    73    83    80    1
    74    91    90    2
    75    79    80    1
    76    80    81    1
    77    48    46    1
    78    90    89    1
    79    90    92   am
    80    99    98    1
    81    85    81   am
    82    85    86    1
    83    42    43    1
    84    81    82    2
    85    89    86    1
    86    46    43    1
    87    46    47    1
    88    86    87    1
    89    43    44    1
    90    98   100    1
    91    98    97    1
    92    97    94    1
    93    87    88    2
    94    44    45    2
    95    94    93    1
    96    94    95    1
    97    95    96    2
