@<TRIPOS>MOLECULE
tmp/2wjoA00.pdb
 212 201 0 0 0
SMALL
GASTEIGER

@<TRIPOS>ATOM
      1  N         23.8400   31.1650   37.1260 N.3    32  LEU32      -0.1245
      2  CA        22.9010   32.0300   37.8460 C.3    32  LEU32       0.1561
      3  C         22.2900   33.0850   36.9200 C.2    32  LEU32       0.2260
      4  O         22.9900   33.7240   36.1500 O.2    32  LEU32      -0.2867
      5  CB        23.5690   32.6820   39.0630 C.3    32  LEU32       0.0270
      6  CG        22.8710   33.8680   39.7340 C.3    32  LEU32       0.0019
      7  CD1       22.1570   33.4360   40.9840 C.3    32  LEU32       0.0001
      8  CD2       23.8580   34.9670   40.0570 C.3    32  LEU32       0.0001
      9  N         20.7550   36.5440   36.3970 N.3    34  ASP34      -0.1239
     10  CA        20.9250   37.8360   37.0650 C.3    34  ASP34       0.1674
     11  C         20.5560   39.0200   36.1640 C.2    34  ASP34       0.2266
     12  O         21.3170   39.3730   35.2570 O.2    34  ASP34      -0.2867
     13  CB        22.4070   37.9670   37.4630 C.3    34  ASP34       0.1410
     14  CG        22.6990   39.2220   38.2560 C.2    34  ASP34       0.3668
     15  OD1       21.7490   39.8070   38.8130 O.co2  34  ASP34      -0.2456
     16  OD2       23.8870   39.6030   38.3580 O.co2  34  ASP34      -0.2456
     17  N         20.4170   41.9040   37.2100 N.3    36  GLY36      -0.1210
     18  CA        21.1510   42.9970   37.8390 C.3    36  GLY36       0.1956
     19  C         22.5960   43.1860   37.3850 C.2    36  GLY36       0.2612
     20  O         23.3130   44.0190   37.9580 O.2    36  GLY36      -0.2717
     21  N         23.0170   42.4360   36.3570 N.am   37  SER37      -0.1952
     22  CA        24.3670   42.5510   35.7730 C.3    37  SER37       0.1924
     23  C         24.3560   42.2200   34.2730 C.2    37  SER37       0.2314
     24  O         23.3060   41.8670   33.7280 O.2    37  SER37      -0.2863
     25  CB        25.4080   41.7400   36.5340 C.3    37  SER37       0.2116
     26  OG        25.3640   40.3660   36.1960 O.3    37  SER37      -0.2180
     27  N         36.3120   42.5890   38.1200 N.3    71  VAL71      -0.1245
     28  CA        35.0330   42.9880   38.6900 C.3    71  VAL71       0.1561
     29  C         35.0720   42.9950   40.2180 C.2    71  VAL71       0.2260
     30  O         34.9100   41.9610   40.8740 O.2    71  VAL71      -0.2867
     31  CB        33.8790   42.1320   38.1600 C.3    71  VAL71       0.0252
     32  CG1       32.6040   42.4930   38.8660 C.3    71  VAL71       0.0019
     33  CG2       33.7270   42.3020   36.6620 C.3    71  VAL71       0.0019
     34  N         33.5090   44.2780   43.8470 N.3    73  TYR73      -0.1241
     35  CA        32.2470   44.7570   44.3950 C.3    73  TYR73       0.1605
     36  C         32.4220   45.0080   45.8970 C.2    73  TYR73       0.2264
     37  O         33.5290   44.8550   46.4090 O.2    73  TYR73      -0.2867
     38  CB        31.1210   43.7620   44.1020 C.3    73  TYR73       0.0534
     39  CG        29.7410   44.3490   44.2370 C.ar   73  TYR73      -0.0201
     40  CD1       29.3420   45.4210   43.4600 C.ar   73  TYR73      -0.0009
     41  CD2       28.8460   43.8510   45.1680 C.ar   73  TYR73      -0.0009
     42  CE1       28.0860   45.9800   43.6080 C.ar   73  TYR73       0.0417
     43  CE2       27.5830   44.4070   45.3240 C.ar   73  TYR73       0.0417
     44  CZ        27.2130   45.4750   44.5500 C.ar   73  TYR73       0.1957
     45  OH        25.9520   46.0190   44.7050 O.3    73  TYR73      -0.2866
     46  N         31.9300   43.6420   49.0680 N.3    75  GLN75      -0.1231
     47  CA        32.7620   42.6550   49.7490 C.3    75  GLN75       0.1698
     48  C         33.1290   41.5550   48.7490 C.2    75  GLN75       0.2593
     49  O         32.2920   40.6920   48.4370 O.2    75  GLN75      -0.2718
     50  CB        31.9970   42.0290   50.9250 C.3    75  GLN75       0.0381
     51  CG        32.8840   41.3250   51.9550 C.3    75  GLN75       0.0905
     52  CD        32.1590   41.0420   53.2690 C.2    75  GLN75       0.2608
     53  OE1       30.9270   41.0070   53.3160 O.2    75  GLN75      -0.2717
     54  NE2       32.9240   40.8380   54.3400 N.am   75  GLN75      -0.0878
     55  N         34.3640   41.5870   48.2430 N.am   76  GLY76      -0.1942
     56  CA        34.8260   40.5630   47.3210 C.3    76  GLY76       0.2014
     57  C         34.9720   41.0130   45.8830 C.2    76  GLY76       0.2639
     58  O         35.0050   42.2090   45.5910 O.2    76  GLY76      -0.2714
     59  N         35.0740   40.0420   44.9800 N.am   77  LYS77      -0.1963
     60  CA        35.2490   40.3290   43.5610 C.3    77  LYS77       0.1728
     61  C         35.5850   39.0900   42.7570 C.2    77  LYS77       0.2616
     62  O         35.9630   38.0550   43.3080 O.2    77  LYS77      -0.2715
     63  CB        36.4190   41.2930   43.3860 C.3    77  LYS77       0.0311
     64  CG        37.6850   40.7970   44.0370 C.3    77  LYS77       0.0038
     65  CD        38.4640   39.8900   43.1340 C.3    77  LYS77       0.0206
     66  CE        39.9480   39.9280   43.5020 C.3    77  LYS77       0.1093
     67  NZ        40.7620   39.0430   42.6200 N.3    77  LYS77      -0.1314
     68  N         35.5290   39.2380   41.4360 N.am   78  TRP78      -0.1974
     69  CA        35.9560   38.1900   40.5290 C.3    78  TRP78       0.1640
     70  C         36.8090   38.7890   39.4070 C.2    78  TRP78       0.2290
     71  O         36.7310   39.9990   39.1230 O.2    78  TRP78      -0.2864
     72  CB        34.7890   37.3220   40.0400 C.3    78  TRP78       0.0576
     73  CG        33.8130   37.9440   39.0630 C.ar   78  TRP78       0.0006
     74  CD1       32.4970   38.2170   39.2990 C.ar   78  TRP78       0.0946
     75  CD2       34.0070   38.1280   37.6480 C.ar   78  TRP78       0.0152
     76  NE1       31.8810   38.6440   38.1440 N.ar   78  TRP78      -0.2442
     77  CE2       32.7860   38.6050   37.1160 C.ar   78  TRP78       0.0810
     78  CE3       35.1040   37.9760   36.7890 C.ar   78  TRP78       0.0012
     79  CZ2       32.6340   38.9460   35.7640 C.ar   78  TRP78       0.0191
     80  CZ3       34.9530   38.3080   35.4520 C.ar   78  TRP78       0.0001
     81  CH2       33.7200   38.7840   34.9490 C.ar   78  TRP78       0.0015
     82  N         37.0480   36.3200   45.0810 N.3   108  ASP108     -0.1225
     83  CA        37.0380   36.5250   46.5210 C.3   108  ASP108      0.1805
     84  C         35.5780   36.7290   46.9410 C.2   108  ASP108      0.2598
     85  O         34.9330   37.6940   46.5380 O.2   108  ASP108     -0.2718
     86  CB        37.8920   37.7340   46.8940 C.3   108  ASP108      0.1424
     87  CG        37.7640   38.1030   48.3480 C.2   108  ASP108      0.3668
     88  OD1       37.4630   37.2090   49.1620 O.co2 108  ASP108     -0.2456
     89  OD2       37.9130   39.2970   48.6710 O.co2 108  ASP108     -0.2456
     90  N         35.0630   35.7880   47.7250 N.am  109  LYS109     -0.1966
     91  CA        33.6850   35.8280   48.2100 C.3   109  LYS109      0.1728
     92  C         32.6320   35.9510   47.1170 C.2   109  LYS109      0.2616
     93  O         31.5970   36.5520   47.3400 O.2   109  LYS109     -0.2715
     94  CB        33.4690   36.9470   49.2350 C.3   109  LYS109      0.0311
     95  CG        34.3880   36.9310   50.4470 C.3   109  LYS109      0.0038
     96  CD        34.2670   38.2540   51.1970 C.3   109  LYS109      0.0206
     97  CE        35.4090   38.4500   52.1730 C.3   109  LYS109      0.1093
     98  NZ        36.3330   39.5330   51.7280 N.3   109  LYS109     -0.1314
     99  N         32.8870   35.3560   45.9540 N.am  110  PHE110     -0.1974
    100  CA        31.9340   35.3710   44.8460 C.3   110  PHE110      0.1639
    101  C         31.0900   34.1070   44.8450 C.2   110  PHE110      0.2290
    102  O         29.8610   34.1790   44.9630 O.2   110  PHE110     -0.2864
    103  CB        32.6400   35.5310   43.4900 C.3   110  PHE110      0.0560
    104  CG        31.6990   35.5080   42.3140 C.ar  110  PHE110     -0.0200
    105  CD1       30.7900   36.5400   42.1150 C.ar  110  PHE110     -0.0042
    106  CD2       31.7040   34.4400   41.4230 C.ar  110  PHE110     -0.0042
    107  CE1       29.9370   36.5420   41.0170 C.ar  110  PHE110     -0.0003
    108  CE2       30.8150   34.4070   40.3420 C.ar  110  PHE110     -0.0003
    109  CZ        29.9400   35.4690   40.1280 C.ar  110  PHE110     -0.0000
    110  N         29.3070   30.7710   46.1600 N.3   112  ILE112     -0.1245
    111  CA        28.6400   30.4580   47.4130 C.3   112  ILE112      0.1561
    112  C         28.6880   28.9500   47.6890 C.2   112  ILE112      0.2260
    113  O         28.3030   28.1380   46.8370 O.2   112  ILE112     -0.2867
    114  CB        27.1840   30.9710   47.3680 C.3   112  ILE112      0.0252
    115  CG1       27.1570   32.4610   47.0390 C.3   112  ILE112      0.0019
    116  CG2       26.4690   30.7110   48.6740 C.3   112  ILE112      0.0019
    117  CD1       25.7600   33.0390   46.9060 C.3   112  ILE112      0.0001
    118  N         25.5810   26.6420   41.5570 N.3   117  TRP117     -0.1241
    119  CA        25.9230   27.3420   40.3340 C.3   117  TRP117      0.1605
    120  C         27.4400   27.5170   40.2020 C.2   117  TRP117      0.2264
    121  O         28.1740   27.5580   41.2110 O.2   117  TRP117     -0.2867
    122  CB        25.1310   28.6330   40.1190 C.3   117  TRP117      0.0550
    123  CG        25.1010   29.6020   41.2490 C.ar  117  TRP117      0.0003
    124  CD1       24.0860   29.7780   42.1380 C.ar  117  TRP117      0.0946
    125  CD2       26.0320   30.6640   41.4910 C.ar  117  TRP117      0.0152
    126  NE1       24.3790   30.8130   42.9930 N.ar  117  TRP117     -0.2442
    127  CE2       25.5720   31.3740   42.6170 C.ar  117  TRP117      0.0810
    128  CE3       27.2550   31.0350   40.9190 C.ar  117  TRP117      0.0012
    129  CZ2       26.2640   32.4680   43.1490 C.ar  117  TRP117      0.0191
    130  CZ3       27.9540   32.1140   41.4670 C.ar  117  TRP117      0.0001
    131  CH2       27.4540   32.8140   42.5670 C.ar  117  TRP117      0.0015
    132  N         27.6720   32.9490   36.2290 N.3   120  ILE120     -0.1245
    133  CA        26.6350   33.9730   36.2320 C.3   120  ILE120      0.1561
    134  C         26.2360   34.3760   34.8250 C.2   120  ILE120      0.2260
    135  O         27.0860   34.4550   33.9200 O.2   120  ILE120     -0.2867
    136  CB        27.0960   35.2070   37.0440 C.3   120  ILE120      0.0252
    137  CG1       25.9960   36.2550   37.1190 C.3   120  ILE120      0.0019
    138  CG2       28.3420   35.8170   36.4350 C.3   120  ILE120      0.0019
    139  CD1       26.2050   37.2340   38.2460 C.3   120  ILE120      0.0001
    140  N         20.6180   49.2360   33.7010 N.3   191  TYR191     -0.1241
    141  CA        19.9900   48.3170   34.6340 C.3   191  TYR191      0.1605
    142  C         18.5970   48.2080   34.0060 C.2   191  TYR191      0.2264
    143  O         18.3470   48.7920   32.9530 O.2   191  TYR191     -0.2867
    144  CB        19.8850   48.9530   36.0350 C.3   191  TYR191      0.0534
    145  CG        21.1460   48.7860   36.8570 C.ar  191  TYR191     -0.0201
    146  CD1       21.4200   47.5950   37.5250 C.ar  191  TYR191     -0.0009
    147  CD2       22.1190   49.7720   36.8680 C.ar  191  TYR191     -0.0009
    148  CE1       22.6190   47.4150   38.2150 C.ar  191  TYR191      0.0417
    149  CE2       23.3090   49.6000   37.5500 C.ar  191  TYR191      0.0417
    150  CZ        23.5490   48.4300   38.2340 C.ar  191  TYR191      0.1957
    151  OH        24.7520   48.2770   38.8960 O.3   191  TYR191     -0.2866
    152  N         18.1630   55.3310   41.9280 N.3   217  LYS217     -0.1245
    153  CA        17.5260   54.5060   40.9010 C.3   217  LYS217      0.1561
    154  C         16.6290   53.4280   41.4890 C.2   217  LYS217      0.2260
    155  O         16.6920   53.1220   42.6790 O.2   217  LYS217     -0.2867
    156  CB        18.5700   53.8350   40.0200 C.3   217  LYS217      0.0271
    157  CG        19.3130   52.7340   40.7330 C.3   217  LYS217      0.0035
    158  CD        20.5970   52.3810   39.9900 C.3   217  LYS217      0.0206
    159  CE        21.2560   51.1630   40.5940 C.3   217  LYS217      0.1093
    160  NZ        22.0790   51.5320   41.7670 N.3   217  LYS217     -0.1314
    161  N         15.4710   49.4790   40.2410 N.3   219  ILE219     -0.1245
    162  CA        15.7680   48.4440   39.2520 C.3   219  ILE219      0.1561
    163  C         15.1340   47.1420   39.6590 C.2   219  ILE219      0.2260
    164  O         15.0150   46.8670   40.8320 O.2   219  ILE219     -0.2867
    165  CB        17.3030   48.2270   39.1180 C.3   219  ILE219      0.0252
    166  CG1       17.8210   47.4250   40.3210 C.3   219  ILE219      0.0019
    167  CG2       18.0250   49.5590   38.9280 C.3   219  ILE219      0.0019
    168  CD1       19.2720   46.9940   40.2100 C.3   219  ILE219      0.0001
    169  N         15.6870   43.3860   39.8430 N.3   221  ASP221     -0.1239
    170  CA        16.8770   42.5420   39.9180 C.3   221  ASP221      0.1674
    171  C         16.7080   41.1460   40.5240 C.2   221  ASP221      0.2266
    172  O         16.6220   41.0050   41.7480 O.2   221  ASP221     -0.2867
    173  CB        17.9310   43.3010   40.7250 C.3   221  ASP221      0.1410
    174  CG        19.2450   42.5810   40.7910 C.2   221  ASP221      0.3668
    175  OD1       19.4320   41.6320   40.0090 O.co2 221  ASP221     -0.2456
    176  OD2       20.0680   42.9470   41.6570 O.co2 221  ASP221     -0.2456
    177  N         19.0340   39.0060   40.7830 N.3   223  GLY223     -0.1210
    178  CA        20.2720   38.6470   41.4520 C.3   223  GLY223      0.1956
    179  C         20.3540   39.2110   42.8620 C.2   223  GLY223      0.2612
    180  O         21.4300   39.2650   43.4550 O.2   223  GLY223     -0.2717
    181  N         19.2100   39.6380   43.3890 N.am  224  THR224     -0.1952
    182  CA        19.1080   40.1860   44.7470 C.3   224  THR224      0.1897
    183  C         17.9510   39.4910   45.4530 C.2   224  THR224      0.2313
    184  O         16.8530   39.3530   44.8950 O.2   224  THR224     -0.2863
    185  CB        18.8400   41.7150   44.7370 C.3   224  THR224      0.1794
    186  OG1       20.0390   42.4390   44.4030 O.3   224  THR224     -0.2208
    187  CG2       18.3030   42.1710   46.1000 C.3   224  THR224      0.0378
    188  N         14.9530   46.0190   48.6290 N.3   228  ARG228     -0.1245
    189  CA        15.7540   47.0580   49.2730 C.3   228  ARG228      0.1563
    190  C         15.1590   48.4100   48.9590 C.2   228  ARG228      0.2260
    191  O         14.8430   48.7090   47.8170 O.2   228  ARG228     -0.2867
    192  CB        17.2420   46.9960   48.8690 C.3   228  ARG228      0.0307
    193  CG        17.7140   45.6050   48.4650 C.3   228  ARG228      0.0489
    194  CD        19.0700   45.2010   49.0550 C.3   228  ARG228      0.2205
    195  NE        20.2100   45.7920   48.3560 N.pl3 228  ARG228     -0.0865
    196  CZ        21.3430   45.1510   48.0540 C.cat 228  ARG228      0.5346
    197  NH1       21.4990   43.8650   48.3370 N.pl3 228  ARG228      0.1354
    198  NH2       22.3270   45.7980   47.4410 N.pl3 228  ARG228      0.1354
    199  N         21.8100   52.2480   47.6030 N.3   322  THR322     -0.1218
    200  CA        21.8670   52.1820   46.1420 C.3   322  THR322      0.1862
    201  C         20.5150   52.1810   45.4120 C.2   322  THR322      0.2287
    202  O         20.3910   51.5790   44.3390 O.2   322  THR322     -0.2866
    203  CB        22.7300   50.9860   45.6720 C.3   322  THR322      0.1770
    204  OG1       22.6540   49.9270   46.6360 O.3   322  THR322     -0.2211
    205  CG2       24.1810   51.4020   45.4830 C.3   322  THR322      0.0375
    206  N         15.6710   48.3880   45.1160 N.3   325  VAL325     -0.1245
    207  CA        16.0050   47.1530   44.4020 C.3   325  VAL325      0.1561
    208  C         14.8810   46.1420   44.5500 C.2   325  VAL325      0.2260
    209  O         14.6840   45.6030   45.6340 O.2   325  VAL325     -0.2867
    210  CB        17.3010   46.5200   44.8970 C.3   325  VAL325      0.0252
    211  CG1       17.6270   45.3240   44.0290 C.3   325  VAL325      0.0019
    212  CG2       18.4360   47.5350   44.9060 C.3   325  VAL325      0.0019
@<TRIPOS>BOND
     1   143   142    2
     2   140   141    1
     3    24    23    2
     4   135   134    2
     5   142   141    1
     6    23    22    1
     7   141   144    1
     8   134   133    1
     9    81    80   ar
    10    81    79   ar
    11    12    11    2
    12    80    78   ar
    13    79    77   ar
    14    22    21    1
    15    22    25    1
    16   144   145    1
    17     4     3    2
    18    11    10    1
    19    26    25    1
    20   132   133    1
    21   133   136    1
    22    21    19   am
    23     9    10    1
    24   138   136    1
    25    33    31    1
    26    78    75   ar
    27   145   147   ar
    28   145   146   ar
    29   147   149   ar
    30     3     2    1
    31   136   137    1
    32    10    13    1
    33    77    75   ar
    34    77    76   ar
    35   137   139    1
    36     1     2    1
    37    17    18    1
    38    19    18    1
    39    19    20    2
    40    13    14    1
    41   146   148   ar
    42   149   150   ar
    43    75    73   ar
    44     2     5    1
    45    27    28    1
    46    76    74   ar
    47    31    28    1
    48    31    32    1
    49   148   150   ar
    50   150   151    1
    51    14    16   ar
    52    14    15   ar
    53    28    29    1
    54   167   165    1
    55     5     6    1
    56    73    74   ar
    57    73    72    1
    58   165   162    1
    59   165   166    1
    60    71    70    2
    61   162   163    1
    62   162   161    1
    63    70    69    1
    64   163   164    2
    65     6     8    1
    66     6     7    1
    67   169   170    1
    68   170   171    1
    69   170   173    1
    70   158   159    1
    71   158   157    1
    72   175   174   ar
    73   156   157    1
    74   156   153    1
    75    72    69    1
    76   122   119    1
    77   122   123    1
    78   109   108   ar
    79   109   107   ar
    80   120   119    1
    81   120   121    2
    82   168   166    1
    83    29    30    2
    84   119   118    1
    85   108   106   ar
    86   171   172    2
    87    69    68    1
    88   159   160    1
    89   173   174    1
    90   177   178    1
    91   174   176   ar
    92   153   154    1
    93   153   152    1
    94   128   130   ar
    95   128   125   ar
    96   107   105   ar
    97   123   125   ar
    98   123   124   ar
    99   106   104   ar
   100    68    61   am
   101   178   179    1
   102   130   131   ar
   103   154   155    2
   104   125   127   ar
   105   105   104   ar
   106   124   126   ar
   107   104   103    1
   108   131   129   ar
   109   127   126   ar
   110   127   129   ar
   111    67    66    1
   112    61    62    2
   113    61    60    1
   114   179   181   am
   115   179   180    2
   116    65    66    1
   117    65    64    1
   118    63    60    1
   119    63    64    1
   120   181   182    1
   121    40    42   ar
   122    40    39   ar
   123   103   100    1
   124    60    59    1
   125    42    44   ar
   126    34    35    1
   127   211   210    1
   128    38    39    1
   129    38    35    1
   130    39    41   ar
   131   202   201    2
   132    35    36    1
   133   207   208    1
   134   207   210    1
   135   207   206    1
   136   186   185    1
   137   208   209    2
   138    44    45    1
   139    44    43   ar
   140   185   182    1
   141   185   187    1
   142   182   183    1
   143   101   100    1
   144   101   102    2
   145   100    99    1
   146   184   183    2
   147   210   212    1
   148    59    57   am
   149    82    83    1
   150    41    43   ar
   151   201   200    1
   152   205   203    1
   153    58    57    2
   154   203   200    1
   155   203   204    1
   156    57    56    1
   157    36    37    2
   158    99    92   am
   159   200   199    1
   160   110   111    1
   161    83    86    1
   162    83    84    1
   163    85    84    2
   164   113   112    2
   165    86    87    1
   166   117   115    1
   167    84    90   am
   168   115   114    1
   169    92    93    2
   170    92    91    1
   171    56    55    1
   172   114   111    1
   173   114   116    1
   174   111   112    1
   175   198   196    1
   176    90    91    1
   177   191   190    2
   178   196   197    1
   179   196   195    2
   180    91    94    1
   181    55    48   am
   182    87    89   ar
   183    87    88   ar
   184   195   194    1
   185    49    48    2
   186   193   192    1
   187   193   194    1
   188   188   189    1
   189    48    47    1
   190   192   189    1
   191   190   189    1
   192    46    47    1
   193    94    95    1
   194    47    50    1
   195    95    96    1
   196    50    51    1
   197    96    97    1
   198    98    97    1
   199    51    52    1
   200    52    53    2
   201    52    54   am
