@<TRIPOS>MOLECULE
tmp/2wjqA06.pdb
 102 101 0 0 0
SMALL
GASTEIGER

@<TRIPOS>ATOM
      1  N         21.3380  -24.5130   55.6330 N.3     7  GLY7       -0.1210
      2  CA        20.7050  -24.5850   54.3220 C.3     7  GLY7        0.1956
      3  C         20.4300  -23.1830   53.8720 C.2     7  GLY7        0.2612
      4  O         20.0680  -22.3230   54.6910 O.2     7  GLY7       -0.2717
      5  N         20.5740  -22.9370   52.5770 N.am    8  GLY8       -0.1942
      6  CA        20.3100  -21.6340   52.0200 C.3     8  GLY8        0.2014
      7  C         19.7590  -21.6530   50.6170 C.2     8  GLY8        0.2638
      8  O         19.8510  -22.6640   49.9030 O.2     8  GLY8       -0.2714
      9  N         19.1470  -20.5350   50.2440 N.am    9  TYR9       -0.1973
     10  CA        18.6810  -20.3140   48.8860 C.3     9  TYR9        0.1639
     11  C         19.2030  -18.9770   48.3800 C.2     9  TYR9        0.2290
     12  O         19.1400  -17.9720   49.0780 O.2     9  TYR9       -0.2864
     13  CB        17.1580  -20.3160   48.8150 C.3     9  TYR9        0.0560
     14  CG        16.6330  -20.1370   47.4160 C.ar    9  TYR9       -0.0198
     15  CD1       16.7490  -21.1600   46.4810 C.ar    9  TYR9       -0.0009
     16  CD2       16.0420  -18.9380   47.0160 C.ar    9  TYR9       -0.0009
     17  CE1       16.2710  -20.9930   45.1650 C.ar    9  TYR9        0.0417
     18  CE2       15.5740  -18.7590   45.7090 C.ar    9  TYR9        0.0417
     19  CZ        15.6810  -19.7960   44.8060 C.ar    9  TYR9        0.1957
     20  OH        15.2270  -19.6210   43.5200 O.3     9  TYR9       -0.2866
     21  N         19.9770  -23.7790   45.6130 N.3    16  TYR16      -0.1227
     22  CA        20.0200  -24.1890   47.0150 C.3    16  TYR16       0.1736
     23  C         21.4410  -24.5280   47.4000 C.2    16  TYR16       0.2595
     24  O         22.1880  -25.1020   46.5970 O.2    16  TYR16      -0.2718
     25  CB        19.1640  -25.4240   47.2580 C.3    16  TYR16       0.0548
     26  CG        17.7040  -25.1540   47.2010 C.ar   16  TYR16      -0.0200
     27  CD1       17.0740  -24.4580   48.2160 C.ar   16  TYR16      -0.0009
     28  CD2       16.9430  -25.5890   46.1250 C.ar   16  TYR16      -0.0009
     29  CE1       15.7300  -24.2050   48.1650 C.ar   16  TYR16       0.0417
     30  CE2       15.5920  -25.3530   46.0770 C.ar   16  TYR16       0.0417
     31  CZ        15.0000  -24.6750   47.0860 C.ar   16  TYR16       0.1957
     32  OH        13.6720  -24.4350   47.0210 O.3    16  TYR16      -0.2866
     33  N         21.8300  -24.1830   48.6200 N.am   17  GLU17      -0.1965
     34  CA        23.0970  -24.6850   49.1500 C.3    17  GLU17       0.1733
     35  C         22.9270  -25.2700   50.5360 C.2    17  GLU17       0.2617
     36  O         22.0010  -24.8870   51.2850 O.2    17  GLU17      -0.2715
     37  CB        24.2010  -23.6130   49.1330 C.3    17  GLU17       0.0429
     38  CG        23.7980  -22.2330   49.5590 C.3    17  GLU17       0.1163
     39  CD        24.9370  -21.2090   49.4560 C.2    17  GLU17       0.3649
     40  OE1       26.1370  -21.5990   49.5720 O.co2  17  GLU17      -0.2457
     41  OE2       24.6240  -20.0080   49.2950 O.co2  17  GLU17      -0.2457
     42  N         23.7950  -26.2290   50.8530 N.am   18  THR18      -0.1951
     43  CA        23.8950  -26.7470   52.1970 C.3    18  THR18       0.1897
     44  C         25.3540  -26.7340   52.6180 C.2    18  THR18       0.2313
     45  O         26.2660  -26.8820   51.7820 O.2    18  THR18      -0.2863
     46  CB        23.3090  -28.1720   52.3440 C.3    18  THR18       0.1794
     47  OG1       24.1080  -29.0990   51.6210 O.3    18  THR18      -0.2208
     48  CG2       21.8920  -28.2420   51.8300 C.3    18  THR18       0.0378
     49  N         23.0350  -26.7050   44.3700 N.3    40  ASN40      -0.1225
     50  CA        22.0900  -27.3070   43.4180 C.3    40  ASN40       0.1785
     51  C         21.2070  -26.2240   42.7950 C.2    40  ASN40       0.2598
     52  O         20.3890  -25.6060   43.4960 O.2    40  ASN40      -0.2718
     53  CB        21.1680  -28.3020   44.1150 C.3    40  ASN40       0.1169
     54  CG        21.8540  -29.6100   44.4800 C.2    40  ASN40       0.2627
     55  OD1       22.1520  -29.8540   45.6520 O.2    40  ASN40      -0.2716
     56  ND2       22.0620  -30.4810   43.4850 N.am   40  ASN40      -0.0877
     57  N         21.3640  -26.0160   41.4870 N.am   41  THR41      -0.1939
     58  CA        20.5450  -25.0730   40.7490 C.3    41  THR41       0.2028
     59  C         19.2200  -25.7620   40.4290 C.2    41  THR41       0.2642
     60  O         19.2160  -26.9210   40.0270 O.2    41  THR41      -0.2714
     61  CB        21.2470  -24.6230   39.4380 C.3    41  THR41       0.1808
     62  OG1       22.4450  -23.9120   39.7620 O.3    41  THR41      -0.2208
     63  CG2       20.3270  -23.7080   38.5900 C.3    41  THR41       0.0379
     64  N         18.1050  -25.0570   40.6120 N.am   42  ILE42      -0.1977
     65  CA        16.7830  -25.6100   40.2910 C.3    42  ILE42       0.1596
     66  C         16.4780  -25.4640   38.7930 C.2    42  ILE42       0.2287
     67  O         16.9170  -24.4890   38.1550 O.2    42  ILE42      -0.2864
     68  CB        15.6720  -24.9340   41.1110 C.3    42  ILE42       0.0276
     69  CG1       15.4120  -23.5010   40.6180 C.3    42  ILE42       0.0022
     70  CG2       16.0280  -24.9560   42.5920 C.3    42  ILE42       0.0022
     71  CD1       14.4450  -22.7200   41.4900 C.3    42  ILE42       0.0001
     72  N         19.1160  -16.3570   51.5620 N.3   197  TYR197     -0.1227
     73  CA        18.3420  -16.5830   52.7710 C.3   197  TYR197      0.1736
     74  C         18.7750  -17.9190   53.3290 C.2   197  TYR197      0.2595
     75  O         18.6800  -18.9310   52.6280 O.2   197  TYR197     -0.2718
     76  CB        16.8530  -16.6090   52.4380 C.3   197  TYR197      0.0548
     77  CG        16.4040  -15.4100   51.6240 C.ar  197  TYR197     -0.0200
     78  CD1       16.3590  -15.4570   50.2210 C.ar  197  TYR197     -0.0009
     79  CD2       16.0560  -14.2180   52.2480 C.ar  197  TYR197     -0.0009
     80  CE1       15.9520  -14.3360   49.4710 C.ar  197  TYR197      0.0417
     81  CE2       15.6430  -13.1050   51.5120 C.ar  197  TYR197      0.0417
     82  CZ        15.5950  -13.1610   50.1340 C.ar  197  TYR197      0.1957
     83  OH        15.1940  -12.0440   49.4220 O.3   197  TYR197     -0.2866
     84  N         19.2210  -17.9280   54.5840 N.am  198  ARG198     -0.1966
     85  CA        19.7790  -19.1320   55.2190 C.3   198  ARG198      0.1729
     86  C         19.1860  -19.4240   56.5950 C.2   198  ARG198      0.2616
     87  O         18.7880  -18.5170   57.3390 O.2   198  ARG198     -0.2715
     88  CB        21.2950  -19.0000   55.3330 C.3   198  ARG198      0.0348
     89  CG        22.0240  -19.0310   53.9990 C.3   198  ARG198      0.0492
     90  CD        23.4110  -18.5070   54.1190 C.3   198  ARG198      0.2205
     91  NE        24.1100  -18.5750   52.8410 N.pl3 198  ARG198     -0.0865
     92  CZ        25.2960  -18.0260   52.6080 C.cat 198  ARG198      0.5346
     93  NH1       25.9450  -17.3800   53.5680 N.pl3 198  ARG198      0.1354
     94  NH2       25.8410  -18.1470   51.4180 N.pl3 198  ARG198      0.1354
     95  N         19.1130  -20.7100   56.9130 N.am  199  ILE199     -0.1977
     96  CA        18.7410  -21.1590   58.2390 C.3   199  ILE199      0.1596
     97  C         19.7100  -22.2440   58.6420 C.2   199  ILE199      0.2287
     98  O         20.1510  -23.0660   57.8200 O.2   199  ILE199     -0.2864
     99  CB        17.2930  -21.7100   58.2940 C.3   199  ILE199      0.0276
    100  CG1       16.2830  -20.6460   57.8720 C.3   199  ILE199      0.0022
    101  CG2       16.9150  -22.1210   59.7250 C.3   199  ILE199      0.0022
    102  CD1       14.8430  -21.2360   57.6810 C.3   199  ILE199      0.0001
@<TRIPOS>BOND
     1    67    66    2
     2    63    61    1
     3    66    65    1
     4    61    62    1
     5    61    58    1
     6    60    59    2
     7    65    64    1
     8    65    68    1
     9    59    64   am
    10    59    58    1
    11    69    68    1
    12    69    71    1
    13    58    57    1
    14    68    70    1
    15    57    51   am
    16    51    50    1
    17    51    52    2
    18    50    53    1
    19    50    49    1
    20    56    54   am
    21    20    19    1
    22    53    54    1
    23    54    55    2
    24    19    17   ar
    25    19    18   ar
    26    17    15   ar
    27    21    22    1
    28    18    16   ar
    29    30    28   ar
    30    30    31   ar
    31    28    26   ar
    32    15    14   ar
    33    24    23    2
    34    22    25    1
    35    22    23    1
    36    16    14   ar
    37    32    31    1
    38    31    29   ar
    39    26    25    1
    40    26    27   ar
    41    23    33   am
    42    14    13    1
    43    29    27   ar
    44    11    10    1
    45    11    12    2
    46    33    34    1
    47    13    10    1
    48    10     9    1
    49    37    34    1
    50    37    38    1
    51    34    35    1
    52    41    39   ar
    53    83    82    1
    54    39    38    1
    55    39    40   ar
    56    80    82   ar
    57    80    78   ar
    58     8     7    2
    59    82    81   ar
    60    78    77   ar
    61     9     7   am
    62    35    42   am
    63    35    36    2
    64     7     6    1
    65    42    43    1
    66    94    92    1
    67    81    79   ar
    68    72    73    1
    69    47    46    1
    70    77    79   ar
    71    77    76    1
    72    45    44    2
    73    48    46    1
    74     6     5    1
    75    43    46    1
    76    43    44    1
    77    76    73    1
    78     5     3   am
    79    92    91    2
    80    92    93    1
    81    75    74    2
    82    73    74    1
    83    91    90    1
    84    74    84   am
    85     3     2    1
    86     3     4    2
    87    89    90    1
    88    89    88    1
    89     2     1    1
    90    84    85    1
    91    85    88    1
    92    85    86    1
    93    86    95   am
    94    86    87    2
    95    95    96    1
    96   102   100    1
    97    98    97    2
    98   100    99    1
    99    96    99    1
   100    96    97    1
   101    99   101    1
