@<TRIPOS>MOLECULE
tmp/2wjrA00.pdb
 161 148 0 0 0
SMALL
GASTEIGER

@<TRIPOS>ATOM
      1  N         -5.8920  -15.9150   -9.5430 N.3     9  ARG9       -0.1245
      2  CA        -5.6980  -17.1070   -8.7500 C.3     9  ARG9        0.1563
      3  C         -6.4870  -17.0300   -7.4390 C.2     9  ARG9        0.2260
      4  O         -6.2480  -16.1220   -6.6410 O.2     9  ARG9       -0.2867
      5  CB        -4.2220  -17.2840   -8.4470 C.3     9  ARG9        0.0307
      6  CG        -3.3810  -17.4890   -9.6990 C.3     9  ARG9        0.0489
      7  CD        -2.4750  -18.6380   -9.4660 C.3     9  ARG9        0.2205
      8  NE        -1.2620  -18.6560  -10.2580 N.pl3   9  ARG9       -0.0865
      9  CZ        -0.1760  -19.3150   -9.8820 C.cat   9  ARG9        0.5346
     10  NH1       -0.1530  -19.9560   -8.7180 N.pl3   9  ARG9        0.1354
     11  NH2        0.8970  -19.3100  -10.6410 N.pl3   9  ARG9        0.1354
     12  N         14.8170  -19.4430  -16.4520 N.3    67  HIS67      -0.1241
     13  CA        13.8640  -18.7030  -15.6510 C.3    67  HIS67       0.1621
     14  C         14.6590  -17.7410  -14.7310 C.2    67  HIS67       0.2264
     15  O         15.5410  -18.1770  -14.0020 O.2    67  HIS67      -0.2867
     16  CB        13.0150  -19.7120  -14.8620 C.3    67  HIS67       0.0745
     17  CG        12.0590  -19.1130  -13.8820 C.ar   67  HIS67       0.0817
     18  ND1       12.4640  -18.5590  -12.6880 N.ar   67  HIS67      -0.2268
     19  CD2       10.7030  -19.0590  -13.8770 C.ar   67  HIS67       0.1154
     20  CE1       11.4040  -18.1260  -12.0240 C.ar   67  HIS67       0.1986
     21  NE2       10.3230  -18.4230  -12.7190 N.ar   67  HIS67      -0.2212
     22  N         14.4750  -14.8320  -11.7630 N.3    69  SER69      -0.1217
     23  CA        13.6810  -14.2130  -10.6990 C.3    69  SER69       0.1889
     24  C         14.6190  -13.4660   -9.7420 C.2    69  SER69       0.2288
     25  O         15.8240  -13.4720   -9.9310 O.2    69  SER69      -0.2866
     26  CB        12.8870  -15.2650   -9.9230 C.3    69  SER69       0.2089
     27  OG        13.7530  -16.1380   -9.1990 O.3    69  SER69      -0.2183
     28  N         15.3340  -14.3830   -6.7780 N.3    71  ASN71      -0.1240
     29  CA        16.1920  -15.4040   -6.1660 C.3    71  ASN71       0.1653
     30  C         17.3820  -15.7620   -7.0370 C.2    71  ASN71       0.2266
     31  O         18.3960  -16.2100   -6.5310 O.2    71  ASN71      -0.2867
     32  CB        15.4060  -16.6810   -5.8350 C.3    71  ASN71       0.1155
     33  CG        14.3970  -16.4820   -4.7260 C.2    71  ASN71       0.2627
     34  OD1       14.6460  -15.7590   -3.7810 O.2    71  ASN71      -0.2716
     35  ND2       13.2550  -17.1310   -4.8380 N.am   71  ASN71      -0.0877
     36  N         17.2910  -20.1490  -12.9760 N.3    74  ARG74      -0.1245
     37  CA        16.9460  -21.5600  -12.9620 C.3    74  ARG74       0.1563
     38  C         16.9960  -22.0660  -14.4040 C.2    74  ARG74       0.2260
     39  O         16.3770  -21.4780  -15.2680 O.2    74  ARG74      -0.2867
     40  CB        15.5510  -21.7340  -12.3990 C.3    74  ARG74       0.0307
     41  CG        15.0690  -23.1610  -12.2960 C.3    74  ARG74       0.0489
     42  CD        13.5670  -23.1450  -12.0610 C.3    74  ARG74       0.2205
     43  NE        12.8430  -23.0130  -13.3350 N.pl3  74  ARG74      -0.0865
     44  CZ        11.5550  -22.6910  -13.4640 C.cat  74  ARG74       0.5346
     45  NH1       11.0080  -22.6430  -14.6770 N.pl3  74  ARG74       0.1354
     46  NH2       10.8010  -22.4100  -12.4100 N.pl3  74  ARG74       0.1354
     47  N         18.2850  -25.2320  -10.1620 N.3   100  LYS100     -0.1245
     48  CA        18.4790  -23.8720   -9.6470 C.3   100  LYS100      0.1561
     49  C         19.9550  -23.5600   -9.4620 C.2   100  LYS100      0.2260
     50  O         20.6910  -24.3270   -8.8400 O.2   100  LYS100     -0.2867
     51  CB        17.7440  -23.6700   -8.3260 C.3   100  LYS100      0.0271
     52  CG        16.2790  -23.4420   -8.4790 C.3   100  LYS100      0.0035
     53  CD        15.5790  -23.3840   -7.1440 C.3   100  LYS100      0.0206
     54  CE        14.0970  -23.1530   -7.2900 C.3   100  LYS100      0.1093
     55  NZ        13.3840  -23.0560   -5.9820 N.3   100  LYS100     -0.1314
     56  N         21.0920  -21.3700   -7.6660 N.3   102  TYR102     -0.1241
     57  CA        21.2270  -20.7760   -6.3460 C.3   102  TYR102      0.1605
     58  C         20.7230  -21.7640   -5.3060 C.2   102  TYR102      0.2264
     59  O         19.8250  -22.5710   -5.5820 O.2   102  TYR102     -0.2867
     60  CB        20.4440  -19.4740   -6.2580 C.3   102  TYR102      0.0534
     61  CG        18.9870  -19.5810   -6.6560 C.ar  102  TYR102     -0.0201
     62  CD1       18.5990  -19.5720   -7.9970 C.ar  102  TYR102     -0.0009
     63  CD2       17.9930  -19.6760   -5.6890 C.ar  102  TYR102     -0.0009
     64  CE1       17.2470  -19.6570   -8.3550 C.ar  102  TYR102      0.0417
     65  CE2       16.6580  -19.7720   -6.0340 C.ar  102  TYR102      0.0417
     66  CZ        16.2900  -19.7540   -7.3600 C.ar  102  TYR102      0.1957
     67  OH        14.9620  -19.8450   -7.6620 O.3   102  TYR102     -0.2866
     68  N         19.1420  -22.8530   -1.4900 N.3   104  GLN104     -0.1245
     69  CA        18.0690  -22.3900   -0.6270 C.3   104  GLN104      0.1566
     70  C         17.9430  -23.3350    0.5480 C.2   104  GLN104      0.2260
     71  O         18.2280  -24.5320    0.4350 O.2   104  GLN104     -0.2867
     72  CB        16.7120  -22.3400   -1.3480 C.3   104  GLN104      0.0367
     73  CG        16.5730  -21.2370   -2.3930 C.3   104  GLN104      0.0905
     74  CD        15.3440  -21.4070   -3.2550 C.2   104  GLN104      0.2608
     75  OE1       15.1910  -22.4230   -3.9540 O.2   104  GLN104     -0.2717
     76  NE2       14.4760  -20.4220   -3.2280 N.am  104  GLN104     -0.0878
     77  N         17.0130  -26.7540   -4.8540 N.3   114  ASP114     -0.1239
     78  CA        15.6460  -27.1660   -5.0200 C.3   114  ASP114      0.1674
     79  C         15.4230  -27.4410   -6.5120 C.2   114  ASP114      0.2266
     80  O         14.7680  -26.6830   -7.2120 O.2   114  ASP114     -0.2867
     81  CB        14.6760  -26.1230   -4.4970 C.3   114  ASP114      0.1410
     82  CG        13.2380  -26.4700   -4.7890 C.2   114  ASP114      0.3668
     83  OD1       12.8780  -27.6620   -4.7000 O.co2 114  ASP114     -0.2456
     84  OD2       12.4720  -25.5520   -5.1190 O.co2 114  ASP114     -0.2456
     85  N         14.0590  -29.7890   -9.7290 N.3   116  VAL116     -0.1245
     86  CA        12.7580  -30.3400   -9.9740 C.3   116  VAL116      0.1561
     87  C         12.7080  -31.1750  -11.2630 C.2   116  VAL116      0.2260
     88  O         13.2910  -30.7970  -12.2800 O.2   116  VAL116     -0.2867
     89  CB        11.7240  -29.2210  -10.0670 C.3   116  VAL116      0.0252
     90  CG1       10.4030  -29.7810  -10.6340 C.3   116  VAL116      0.0019
     91  CG2       11.5040  -28.5560   -8.6920 C.3   116  VAL116      0.0019
     92  N         10.1700  -32.3780  -14.0720 N.3   118  ARG118     -0.1245
     93  CA         8.8790  -31.9110  -14.5460 C.3   118  ARG118      0.1563
     94  C          8.4590  -32.5760  -15.8780 C.2   118  ARG118      0.2260
     95  O          9.2370  -32.6390  -16.8340 O.2   118  ARG118     -0.2867
     96  CB         8.8660  -30.3870  -14.6910 C.3   118  ARG118      0.0307
     97  CG         7.5770  -29.8700  -15.2920 C.3   118  ARG118      0.0489
     98  CD         7.5570  -28.3850  -15.4410 C.3   118  ARG118      0.2205
     99  NE         6.3380  -27.9590  -16.1470 N.pl3 118  ARG118     -0.0865
    100  CZ         5.6000  -26.8810  -15.8760 C.cat 118  ARG118      0.5346
    101  NH1        5.9140  -26.0510  -14.8780 N.pl3 118  ARG118      0.1354
    102  NH2        4.5150  -26.6510  -16.6090 N.pl3 118  ARG118      0.1354
    103  N          5.1020  -32.3970  -11.4630 N.3   140  TYR140     -0.1241
    104  CA         6.4800  -32.1660  -11.0750 C.3   140  TYR140      0.1605
    105  C          6.7400  -32.6350   -9.6570 C.2   140  TYR140      0.2264
    106  O          5.8400  -32.6350   -8.8230 O.2   140  TYR140     -0.2867
    107  CB         6.9160  -30.7150  -11.2590 C.3   140  TYR140      0.0534
    108  CG         5.9010  -29.6570  -10.9680 C.ar  140  TYR140     -0.0201
    109  CD1        5.4520  -29.4350   -9.6710 C.ar  140  TYR140     -0.0009
    110  CD2        5.4280  -28.8340  -11.9660 C.ar  140  TYR140     -0.0009
    111  CE1        4.5580  -28.4260   -9.3800 C.ar  140  TYR140      0.0417
    112  CE2        4.5280  -27.8270  -11.6950 C.ar  140  TYR140      0.0417
    113  CZ         4.0830  -27.6230  -10.3880 C.ar  140  TYR140      0.1957
    114  OH         3.1640  -26.6270  -10.1010 O.3   140  TYR140     -0.2866
    115  N         10.0240  -33.0120   -6.4750 N.3   142  LYS142     -0.1245
    116  CA        11.2710  -32.5110   -5.9480 C.3   142  LYS142      0.1561
    117  C         12.3440  -33.5560   -5.9670 C.2   142  LYS142      0.2260
    118  O         12.1140  -34.7140   -5.5930 O.2   142  LYS142     -0.2867
    119  CB        11.0820  -32.0450   -4.4900 C.3   142  LYS142      0.0271
    120  CG         9.9940  -31.0340   -4.2880 C.3   142  LYS142      0.0035
    121  CD        10.3190  -29.7390   -4.9720 C.3   142  LYS142      0.0206
    122  CE         9.5560  -28.5600   -4.4260 C.3   142  LYS142      0.1093
    123  NZ         9.9980  -27.3100   -5.0490 N.3   142  LYS142     -0.1314
    124  N          6.2830  -28.5920   -2.0770 N.3   148  TYR148     -0.1241
    125  CA         5.3590  -27.6270   -2.6360 C.3   148  TYR148      0.1605
    126  C          4.3900  -27.1660   -1.5540 C.2   148  TYR148      0.2264
    127  O          4.3220  -27.7400   -0.4460 O.2   148  TYR148     -0.2867
    128  CB         4.6090  -28.2540   -3.8360 C.3   148  TYR148      0.0534
    129  CG         5.5590  -28.5380   -4.9750 C.ar  148  TYR148     -0.0201
    130  CD1        6.0040  -29.8330   -5.2400 C.ar  148  TYR148     -0.0009
    131  CD2        6.0850  -27.5030   -5.7380 C.ar  148  TYR148     -0.0009
    132  CE1        6.9070  -30.0970   -6.2570 C.ar  148  TYR148      0.0417
    133  CE2        7.0010  -27.7560   -6.7680 C.ar  148  TYR148      0.0417
    134  CZ         7.4160  -29.0540   -7.0200 C.ar  148  TYR148      0.1957
    135  OH         8.3120  -29.3610   -8.0500 O.3   148  TYR148     -0.2866
    136  N         -0.4960  -29.6550  -12.3380 N.3   157  GLU157     -0.1245
    137  CA        -1.2570  -28.5570  -12.8910 C.3   157  GLU157      0.1567
    138  C         -2.0330  -29.1100  -14.0780 C.2   157  GLU157      0.2260
    139  O         -1.5750  -30.0260  -14.7710 O.2   157  GLU157     -0.2867
    140  CB        -0.3670  -27.3960  -13.3500 C.3   157  GLU157      0.0388
    141  CG         0.6040  -26.8390  -12.2930 C.3   157  GLU157      0.1160
    142  CD         1.3860  -25.6200  -12.7880 C.2   157  GLU157      0.3649
    143  OE1        1.0970  -25.1220  -13.9080 O.co2 157  GLU157     -0.2457
    144  OE2        2.2920  -25.1590  -12.0560 O.co2 157  GLU157     -0.2457
    145  N         -4.2770  -25.6210  -10.2140 N.3   179  LEU179     -0.1245
    146  CA        -2.8610  -25.7090   -9.8880 C.3   179  LEU179      0.1561
    147  C         -2.5880  -26.4560   -8.5640 C.2   179  LEU179      0.2260
    148  O         -1.6060  -26.1820   -7.8730 O.2   179  LEU179     -0.2867
    149  CB        -2.2790  -24.3070   -9.8750 C.3   179  LEU179      0.0270
    150  CG        -2.5180  -23.5300  -11.1730 C.3   179  LEU179      0.0019
    151  CD1       -1.9040  -22.1420  -11.0410 C.3   179  LEU179      0.0001
    152  CD2       -1.9360  -24.2660  -12.4050 C.3   179  LEU179      0.0001
    153  N         -1.8420  -25.3200   -4.1120 N.3   182  GLN182     -0.1245
    154  CA        -0.5790  -24.5900   -4.0830 C.3   182  GLN182      0.1566
    155  C         -0.7810  -23.0950   -3.8510 C.2   182  GLN182      0.2260
    156  O          0.1690  -22.3050   -3.9750 O.2   182  GLN182     -0.2867
    157  CB         0.1990  -24.8170   -5.3890 C.3   182  GLN182      0.0367
    158  CG         0.8420  -26.1820   -5.4650 C.3   182  GLN182      0.0905
    159  CD         1.8090  -26.3310   -6.6300 C.2   182  GLN182      0.2608
    160  OE1        3.0210  -26.3180   -6.4410 O.2   182  GLN182     -0.2717
    161  NE2        1.2710  -26.4730   -7.8460 N.am  182  GLN182     -0.0878
@<TRIPOS>BOND
     1    95    94    2
     2   102   100    1
     3    12    13    1
     4    99   100    2
     5    99    98    1
     6    94    93    1
     7   100   101    1
     8    13    16    1
     9    13    14    1
    10    98    97    1
    11    97    96    1
    12    39    38    2
    13    16    17    1
    14   139   138    2
    15    14    15    2
    16    96    93    1
    17    45    44    1
    18    93    92    1
    19    38    37    1
    20   138   137    1
    21   143   142   ar
    22    17    19   ar
    23    17    18   ar
    24    19    21   ar
    25    44    43    2
    26    44    46    1
    27   140   137    1
    28   140   141    1
    29    43    42    1
    30    36    37    1
    31    37    40    1
    32   137   136    1
    33   142   141    1
    34   142   144   ar
    35    21    20   ar
    36    18    20   ar
    37   152   150    1
    38    40    41    1
    39    41    42    1
    40    88    87    2
    41   110   112   ar
    42   110   108   ar
    43    22    23    1
    44   112   113   ar
    45   103   104    1
    46    87    86    1
    47   107   104    1
    48   107   108    1
    49   150   151    1
    50   150   149    1
    51   104   105    1
    52   108   109   ar
    53    23    26    1
    54    23    24    1
    55    11     9    1
    56    90    89    1
    57   113   114    1
    58   113   111   ar
    59     8     9    2
    60     8     7    1
    61   145   146    1
    62    47    48    1
    63    89    86    1
    64    89    91    1
    65    86    85    1
    66    25    24    2
    67    26    27    1
    68   146   149    1
    69   146   147    1
    70     9    10    1
    71     6     7    1
    72     6     5    1
    73   109   111   ar
    74   105   106    2
    75    48    49    1
    76    48    51    1
    77     1     2    1
    78    49    50    2
    79     2     5    1
    80     2     3    1
    81   147   148    2
    82    52    51    1
    83    52    53    1
    84    64    62   ar
    85    64    66   ar
    86   135   134    1
    87    62    61   ar
    88   161   159   am
    89    56    57    1
    90    67    66    1
    91     3     4    2
    92    66    65   ar
    93    54    53    1
    94    54    55    1
    95    80    79    2
    96    30    31    2
    97    30    29    1
    98   134   133   ar
    99   134   132   ar
   100    28    29    1
   101   133   131   ar
   102    61    60    1
   103    61    63   ar
   104   159   160    2
   105   159   158    1
   106    79    78    1
   107   115   116    1
   108    57    60    1
   109    57    58    1
   110   132   130   ar
   111    29    32    1
   112    65    63   ar
   113   117   116    1
   114   117   118    2
   115   116   119    1
   116    32    33    1
   117   131   129   ar
   118    59    58    2
   119   158   157    1
   120   157   154    1
   121   130   129   ar
   122    84    82   ar
   123   123   122    1
   124    78    77    1
   125    78    81    1
   126   129   128    1
   127   121   122    1
   128   121   120    1
   129    35    33   am
   130    82    83   ar
   131    82    81    1
   132    33    34    2
   133   119   120    1
   134   153   154    1
   135   154   155    1
   136   156   155    2
   137    75    74    2
   138   128   125    1
   139    74    76   am
   140    74    73    1
   141   125   124    1
   142   125   126    1
   143    73    72    1
   144   126   127    2
   145    68    69    1
   146    72    69    1
   147    69    70    1
   148    71    70    2
