@<TRIPOS>MOLECULE
tmp/2wjrA02.pdb
 103 104 0 0 0
SMALL
GASTEIGER

@<TRIPOS>ATOM
      1  N          5.9450  -36.2230  -36.9590 N.3    58  TRP58      -0.1241
      2  CA         6.7290  -36.3460  -35.7090 C.3    58  TRP58       0.1605
      3  C          7.8780  -35.3530  -35.6290 C.2    58  TRP58       0.2264
      4  O          8.6780  -35.2350  -36.5720 O.2    58  TRP58      -0.2867
      5  CB         7.2910  -37.7660  -35.5700 C.3    58  TRP58       0.0550
      6  CG         6.2490  -38.7590  -35.2600 C.ar   58  TRP58       0.0003
      7  CD1        5.5110  -39.5020  -36.1580 C.ar   58  TRP58       0.0946
      8  CD2        5.8020  -39.1410  -33.9590 C.ar   58  TRP58       0.0152
      9  NE1        4.6320  -40.3180  -35.4800 N.ar   58  TRP58      -0.2442
     10  CE2        4.7940  -40.1220  -34.1320 C.ar   58  TRP58       0.0810
     11  CE3        6.1530  -38.7480  -32.6610 C.ar   58  TRP58       0.0012
     12  CZ2        4.1220  -40.6940  -33.0570 C.ar   58  TRP58       0.0191
     13  CZ3        5.5120  -39.3370  -31.6020 C.ar   58  TRP58       0.0001
     14  CH2        4.4970  -40.2950  -31.8010 C.ar   58  TRP58       0.0015
     15  N          8.5530  -34.2460  -27.3160 N.3    81  LEU81      -0.1245
     16  CA         8.1490  -35.0420  -28.4720 C.3    81  LEU81       0.1561
     17  C          6.7550  -34.6200  -28.8900 C.2    81  LEU81       0.2260
     18  O          5.8580  -34.5740  -28.0670 O.2    81  LEU81      -0.2867
     19  CB         8.1880  -36.5180  -28.0960 C.3    81  LEU81       0.0270
     20  CG         7.7510  -37.5300  -29.1420 C.3    81  LEU81       0.0019
     21  CD1        8.7850  -37.5700  -30.2910 C.3    81  LEU81       0.0001
     22  CD2        7.6310  -38.8780  -28.4200 C.3    81  LEU81       0.0001
     23  N          3.5630  -35.0620  -31.8760 N.3    83  TRP83      -0.1241
     24  CA         2.9600  -35.8530  -32.9380 C.3    83  TRP83       0.1605
     25  C          1.6930  -35.1910  -33.4790 C.2    83  TRP83       0.2264
     26  O          0.7150  -35.0710  -32.7700 O.2    83  TRP83      -0.2867
     27  CB         2.6480  -37.2390  -32.4010 C.3    83  TRP83       0.0550
     28  CG         2.0000  -38.1480  -33.3760 C.ar   83  TRP83       0.0003
     29  CD1        2.2590  -38.2420  -34.7250 C.ar   83  TRP83       0.0946
     30  CD2        1.0260  -39.1490  -33.0840 C.ar   83  TRP83       0.0152
     31  NE1        1.4800  -39.2330  -35.2830 N.ar   83  TRP83      -0.2442
     32  CE2        0.7150  -39.7980  -34.3000 C.ar   83  TRP83       0.0810
     33  CE3        0.3710  -39.5530  -31.9120 C.ar   83  TRP83       0.0012
     34  CZ2       -0.2210  -40.8260  -34.3760 C.ar   83  TRP83       0.0191
     35  CZ3       -0.5520  -40.5770  -31.9920 C.ar   83  TRP83       0.0001
     36  CH2       -0.8330  -41.2050  -33.2160 C.ar   83  TRP83       0.0015
     37  N         -0.5040  -34.1540  -30.3130 N.3    91  PHE91      -0.1227
     38  CA        -0.1490  -34.6640  -28.9890 C.3    91  PHE91       0.1736
     39  C          1.2830  -34.3040  -28.7150 C.2    91  PHE91       0.2596
     40  O          2.1160  -34.2210  -29.6390 O.2    91  PHE91      -0.2718
     41  CB        -0.2860  -36.1600  -28.9250 C.3    91  PHE91       0.0547
     42  CG        -1.6840  -36.6510  -29.1420 C.ar   91  PHE91      -0.0202
     43  CD1       -2.6340  -36.5280  -28.1670 C.ar   91  PHE91      -0.0042
     44  CD2       -2.0290  -37.2550  -30.3320 C.ar   91  PHE91      -0.0042
     45  CE1       -3.9100  -36.9850  -28.3660 C.ar   91  PHE91      -0.0003
     46  CE2       -3.3130  -37.7080  -30.5330 C.ar   91  PHE91      -0.0003
     47  CZ        -4.2410  -37.5740  -29.5660 C.ar   91  PHE91      -0.0000
     48  N          1.5930  -34.0900  -27.4410 N.am   92  GLY92      -0.1942
     49  CA         2.9120  -33.6540  -27.0610 C.3    92  GLY92       0.2014
     50  C          3.2550  -34.1740  -25.6830 C.2    92  GLY92       0.2638
     51  O          2.3730  -34.3280  -24.8540 O.2    92  GLY92      -0.2714
     52  N          4.5210  -34.4920  -25.4830 N.am   93  ILE93      -0.1977
     53  CA         5.0230  -34.8570  -24.1420 C.3    93  ILE93       0.1596
     54  C          6.4090  -34.2630  -23.9480 C.2    93  ILE93       0.2287
     55  O          7.2390  -34.2960  -24.8410 O.2    93  ILE93      -0.2864
     56  CB         5.0160  -36.3980  -23.9340 C.3    93  ILE93       0.0276
     57  CG1        5.3960  -36.7980  -22.4880 C.3    93  ILE93       0.0022
     58  CG2        5.9250  -37.1080  -24.9620 C.3    93  ILE93       0.0022
     59  CD1        4.2260  -36.9140  -21.5320 C.3    93  ILE93       0.0001
     60  N          2.2440  -33.0310  -20.4950 N.3   121  GLY121     -0.1210
     61  CA         1.5200  -33.6750  -21.5910 C.3   121  GLY121      0.1956
     62  C          0.6450  -32.6270  -22.2580 C.2   121  GLY121      0.2612
     63  O          0.1120  -31.7330  -21.5950 O.2   121  GLY121     -0.2717
     64  N          0.4730  -32.7480  -23.5770 N.am  122  TYR122     -0.1962
     65  CA        -0.2410  -31.7400  -24.3640 C.3   122  TYR122      0.1771
     66  C         -1.1740  -32.4290  -25.3590 C.2   122  TYR122      0.2619
     67  O         -0.7950  -33.4150  -26.0030 O.2   122  TYR122     -0.2715
     68  CB         0.7310  -30.8860  -25.1880 C.3   122  TYR122      0.0574
     69  CG         1.8100  -30.1700  -24.4270 C.ar  122  TYR122     -0.0198
     70  CD1        1.6400  -28.8620  -24.0170 C.ar  122  TYR122     -0.0009
     71  CD2        3.0090  -30.8080  -24.1190 C.ar  122  TYR122     -0.0009
     72  CE1        2.6330  -28.2030  -23.3330 C.ar  122  TYR122      0.0417
     73  CE2        4.0070  -30.1650  -23.4300 C.ar  122  TYR122      0.0417
     74  CZ         3.8120  -28.8590  -23.0440 C.ar  122  TYR122      0.1957
     75  OH         4.7930  -28.2160  -22.3570 O.3   122  TYR122     -0.2866
     76  N         -2.3890  -31.9100  -25.4670 N.am  123  VAL123     -0.1977
     77  CA        -3.2980  -32.2760  -26.5430 C.3   123  VAL123      0.1596
     78  C         -3.9380  -31.0040  -27.0850 C.2   123  VAL123      0.2287
     79  O         -4.4630  -30.1800  -26.3220 O.2   123  VAL123     -0.2864
     80  CB        -4.4000  -33.2680  -26.0940 C.3   123  VAL123      0.0276
     81  CG1       -5.1980  -33.7090  -27.3050 C.3   123  VAL123      0.0022
     82  CG2       -3.8150  -34.5010  -25.4070 C.3   123  VAL123      0.0022
     83  N         -5.3650  -28.8210  -23.9750 N.3   135  TRP135     -0.1241
     84  CA        -5.1710  -29.2290  -22.5790 C.3   135  TRP135      0.1605
     85  C         -3.6970  -29.5510  -22.3530 C.2   135  TRP135      0.2264
     86  O         -3.0860  -30.3020  -23.1190 O.2   135  TRP135     -0.2867
     87  CB        -6.0820  -30.4120  -22.2550 C.3   135  TRP135      0.0550
     88  CG        -5.8300  -31.1120  -20.9320 C.ar  135  TRP135      0.0003
     89  CD1       -5.5210  -30.5350  -19.7300 C.ar  135  TRP135      0.0946
     90  CD2       -5.9180  -32.5160  -20.6880 C.ar  135  TRP135      0.0152
     91  NE1       -5.3990  -31.4940  -18.7580 N.ar  135  TRP135     -0.2442
     92  CE2       -5.6440  -32.7210  -19.3160 C.ar  135  TRP135      0.0810
     93  CE3       -6.2060  -33.6220  -21.4930 C.ar  135  TRP135      0.0012
     94  CZ2       -5.6290  -33.9910  -18.7420 C.ar  135  TRP135      0.0191
     95  CZ3       -6.1940  -34.8790  -20.9220 C.ar  135  TRP135      0.0001
     96  CH2       -5.9080  -35.0570  -19.5610 C.ar  135  TRP135      0.0015
     97  N         -1.3180  -31.0210  -19.2440 N.3   137  THR137     -0.1218
     98  CA        -1.2630  -31.6470  -17.9310 C.3   137  THR137      0.1862
     99  C          0.1950  -31.7000  -17.4590 C.2   137  THR137      0.2287
    100  O          1.1300  -31.8750  -18.2480 O.2   137  THR137     -0.2866
    101  CB        -2.0210  -33.0440  -17.9360 C.3   137  THR137      0.1770
    102  OG1       -2.2010  -33.5050  -16.5860 O.3   137  THR137     -0.2211
    103  CG2       -1.2880  -34.0830  -18.7560 C.3   137  THR137      0.0375
@<TRIPOS>BOND
     1     1     2    1
     2     4     3    2
     3     7     9   ar
     4     7     6   ar
     5     2     3    1
     6     2     5    1
     7     5     6    1
     8     9    10   ar
     9    31    29   ar
    10    31    32   ar
    11     6     8   ar
    12    29    28   ar
    13    34    32   ar
    14    34    36   ar
    15    32    30   ar
    16    10     8   ar
    17    10    12   ar
    18     8    11   ar
    19    25    24    1
    20    25    26    2
    21    28    30   ar
    22    28    27    1
    23    36    35   ar
    24    30    33   ar
    25    12    14   ar
    26    24    27    1
    27    24    23    1
    28    11    13   ar
    29    35    33   ar
    30    14    13   ar
    31    46    44   ar
    32    46    47   ar
    33    44    42   ar
    34    37    38    1
    35    21    20    1
    36    40    39    2
    37    47    45   ar
    38    42    41    1
    39    42    43   ar
    40    20    22    1
    41    20    19    1
    42    38    41    1
    43    38    39    1
    44    17    16    1
    45    17    18    2
    46    39    48   am
    47    16    19    1
    48    16    15    1
    49    45    43   ar
    50    48    49    1
    51    81    80    1
    52    78    77    1
    53    78    79    2
    54    49    50    1
    55    77    80    1
    56    77    76    1
    57    80    82    1
    58    67    66    2
    59    50    52   am
    60    50    51    2
    61    52    53    1
    62    76    66   am
    63    66    65    1
    64    68    69    1
    65    68    65    1
    66    58    56    1
    67    55    54    2
    68    69    71   ar
    69    69    70   ar
    70    65    64    1
    71    53    54    1
    72    53    56    1
    73    71    73   ar
    74    70    72   ar
    75    83    84    1
    76    56    57    1
    77    64    62   am
    78    73    74   ar
    79    72    74   ar
    80    86    85    2
    81    74    75    1
    82    84    85    1
    83    84    87    1
    84    57    59    1
    85    62    63    2
    86    62    61    1
    87    87    88    1
    88    61    60    1
    89    93    95   ar
    90    93    90   ar
    91    88    90   ar
    92    88    89   ar
    93    95    96   ar
    94    90    92   ar
    95    89    91   ar
    96    96    94   ar
    97    92    91   ar
    98    92    94   ar
    99    97    98    1
   100   103   101    1
   101   100    99    2
   102   101    98    1
   103   101   102    1
   104    98    99    1
