@<TRIPOS>MOLECULE
tmp/2wjrA01.pdb
 113 105 0 0 0
SMALL
GASTEIGER

@<TRIPOS>ATOM
      1  N         13.2820  -22.3830  -32.5270 N.3    30  TRP30      -0.1241
      2  CA        12.1080  -21.7410  -31.9610 C.3    30  TRP30       0.1605
      3  C         12.5160  -21.0740  -30.6480 C.2    30  TRP30       0.2264
      4  O         13.3410  -21.6120  -29.9220 O.2    30  TRP30      -0.2867
      5  CB        11.0040  -22.7630  -31.7120 C.3    30  TRP30       0.0550
      6  CG         9.7110  -22.1780  -31.1960 C.ar   30  TRP30       0.0003
      7  CD1        8.6580  -21.7450  -31.9300 C.ar   30  TRP30       0.0946
      8  CD2        9.3570  -21.9780  -29.8220 C.ar   30  TRP30       0.0152
      9  NE1        7.6720  -21.2910  -31.1060 N.ar   30  TRP30      -0.2442
     10  CE2        8.0780  -21.4190  -29.8030 C.ar   30  TRP30       0.0810
     11  CE3       10.0130  -22.2130  -28.6140 C.ar   30  TRP30       0.0012
     12  CZ2        7.4190  -21.0910  -28.6130 C.ar   30  TRP30       0.0191
     13  CZ3        9.3600  -21.8850  -27.4230 C.ar   30  TRP30       0.0001
     14  CH2        8.0820  -21.3320  -27.4350 C.ar   30  TRP30       0.0015
     15  N         12.8330  -19.2000  -23.4630 N.3    47  GLU47      -0.1245
     16  CA        12.7760  -20.5780  -23.9170 C.3    47  GLU47       0.1567
     17  C         13.3340  -20.6800  -25.3310 C.2    47  GLU47       0.2260
     18  O         13.0410  -19.8150  -26.1700 O.2    47  GLU47      -0.2867
     19  CB        11.3440  -21.0840  -23.8840 C.3    47  GLU47       0.0388
     20  CG        11.2220  -22.5590  -24.1390 C.3    47  GLU47       0.1160
     21  CD         9.8730  -23.1130  -23.8030 C.2    47  GLU47       0.3649
     22  OE1        9.0250  -22.3630  -23.2480 O.co2  47  GLU47      -0.2457
     23  OE2        9.6530  -24.3120  -24.0890 O.co2  47  GLU47      -0.2457
     24  N         14.2530  -23.8990  -28.3130 N.3    49  ASN49      -0.1240
     25  CA        14.3490  -25.2870  -28.7030 C.3    49  ASN49       0.1653
     26  C         14.6230  -25.3700  -30.1960 C.2    49  ASN49       0.2266
     27  O         14.5430  -24.3550  -30.9060 O.2    49  ASN49      -0.2867
     28  CB        13.1310  -26.1240  -28.2620 C.3    49  ASN49       0.1155
     29  CG        11.8430  -25.7640  -28.9630 C.2    49  ASN49       0.2627
     30  OD1       11.7590  -25.7540  -30.1930 O.2    49  ASN49      -0.2716
     31  ND2       10.7990  -25.5550  -28.1840 N.am   49  ASN49      -0.0877
     32  N         12.0130  -31.9760  -30.0240 N.3    61  ARG61      -0.1245
     33  CA        12.5620  -30.6600  -29.6860 C.3    61  ARG61       0.1563
     34  C         13.4170  -30.6830  -28.4090 C.2    61  ARG61       0.2260
     35  O         12.8830  -30.5350  -27.2950 O.2    61  ARG61      -0.2867
     36  CB        11.4420  -29.6430  -29.4990 C.3    61  ARG61       0.0307
     37  CG        10.7200  -29.2520  -30.7660 C.3    61  ARG61       0.0489
     38  CD         9.4970  -28.4050  -30.4520 C.3    61  ARG61       0.2205
     39  NE         8.7070  -28.1000  -31.6360 N.pl3  61  ARG61      -0.0865
     40  CZ         8.8690  -27.0420  -32.4320 C.cat  61  ARG61       0.5346
     41  NH1        8.0440  -26.8860  -33.4640 N.pl3  61  ARG61       0.1354
     42  NH2        9.8260  -26.1350  -32.2120 N.pl3  61  ARG61       0.1354
     43  N         15.3520  -29.6160  -21.5780 N.3    78  TYR78      -0.1241
     44  CA        14.2430  -30.5110  -21.8050 C.3    78  TYR78       0.1605
     45  C         14.2830  -31.2100  -23.1540 C.2    78  TYR78       0.2264
     46  O         15.0690  -30.8290  -24.0380 O.2    78  TYR78      -0.2867
     47  CB        12.9070  -29.7700  -21.6630 C.3    78  TYR78       0.0534
     48  CG        12.5710  -28.6640  -22.6670 C.ar   78  TYR78      -0.0201
     49  CD1       12.4970  -27.3360  -22.2630 C.ar   78  TYR78      -0.0009
     50  CD2       12.2570  -28.9590  -23.9990 C.ar   78  TYR78      -0.0009
     51  CE1       12.1270  -26.3300  -23.1540 C.ar   78  TYR78       0.0417
     52  CE2       11.8610  -27.9800  -24.8640 C.ar   78  TYR78       0.0417
     53  CZ        11.8220  -26.6730  -24.4570 C.ar   78  TYR78       0.1957
     54  OH        11.4470  -25.7050  -25.3470 O.3    78  TYR78      -0.2866
     55  N         11.0980  -32.3690  -25.8460 N.3    80  LYS80      -0.1245
     56  CA         9.6860  -32.4490  -26.1510 C.3    80  LYS80       0.1561
     57  C          9.4920  -33.3200  -27.3920 C.2    80  LYS80       0.2260
     58  O         10.1890  -33.1430  -28.3900 O.2    80  LYS80      -0.2867
     59  CB         9.0670  -31.0720  -26.3840 C.3    80  LYS80       0.0271
     60  CG         7.5430  -31.1180  -26.6000 C.3    80  LYS80       0.0035
     61  CD         6.9210  -29.7410  -26.7210 C.3    80  LYS80       0.0206
     62  CE         5.4440  -29.8580  -26.9730 C.3    80  LYS80       0.1093
     63  NZ         4.7850  -28.5190  -26.9290 N.3    80  LYS80      -0.1314
     64  N          6.5690  -34.3600  -30.1880 N.3    82  SER82      -0.1217
     65  CA         5.3370  -33.8590  -30.7220 C.3    82  SER82       0.1889
     66  C          4.8520  -34.7430  -31.8790 C.2    82  SER82       0.2288
     67  O          5.6450  -35.1540  -32.7200 O.2    82  SER82      -0.2866
     68  CB         5.5980  -32.4500  -31.2230 C.3    82  SER82       0.2089
     69  OG         4.4610  -31.9070  -31.8110 O.3    82  SER82      -0.2183
     70  N          1.7160  -34.7560  -34.7400 N.3    84  ASP84      -0.1239
     71  CA         0.4850  -34.3380  -35.4090 C.3    84  ASP84       0.1674
     72  C         -0.2510  -35.5650  -35.9070 C.2    84  ASP84       0.2266
     73  O         -0.0640  -35.9860  -37.0540 O.2    84  ASP84      -0.2867
     74  CB         0.7720  -33.3940  -36.5900 C.3    84  ASP84       0.1410
     75  CG         1.3100  -32.0470  -36.1450 C.2    84  ASP84       0.3668
     76  OD1        0.8130  -31.4760  -35.1500 O.co2  84  ASP84      -0.2456
     77  OD2        2.2370  -31.5560  -36.8000 O.co2  84  ASP84      -0.2456
     78  N         -3.0720  -32.7260  -32.2900 N.3    90  ASN90      -0.1240
     79  CA        -1.6650  -32.8010  -31.9480 C.3    90  ASN90       0.1653
     80  C         -1.4690  -33.2700  -30.5050 C.2    90  ASN90       0.2266
     81  O         -2.1770  -32.8350  -29.6150 O.2    90  ASN90      -0.2867
     82  CB        -0.9890  -31.4350  -32.1150 C.3    90  ASN90       0.1155
     83  CG         0.4780  -31.4260  -31.6350 C.2    90  ASN90       0.2627
     84  OD1        0.7690  -31.2120  -30.4490 O.2    90  ASN90      -0.2716
     85  ND2        1.3980  -31.6260  -32.5620 N.am   90  ASN90      -0.0877
     86  N          6.6740  -33.7480  -22.7470 N.3    94  ARG94      -0.1245
     87  CA         7.9390  -33.1380  -22.4460 C.3    94  ARG94       0.1563
     88  C          8.4110  -33.5620  -21.0630 C.2    94  ARG94       0.2260
     89  O          7.6190  -33.6720  -20.1290 O.2    94  ARG94      -0.2867
     90  CB         7.8370  -31.6320  -22.4870 C.3    94  ARG94       0.0307
     91  CG         9.1620  -30.8890  -22.3700 C.3    94  ARG94       0.0489
     92  CD         8.9210  -29.4160  -22.4350 C.3    94  ARG94       0.2205
     93  NE         8.1800  -28.9130  -21.2810 N.pl3  94  ARG94      -0.0865
     94  CZ         7.6650  -27.6950  -21.1860 C.cat  94  ARG94       0.5346
     95  NH1        7.8130  -26.8160  -22.1830 N.pl3  94  ARG94       0.1354
     96  NH2        6.9960  -27.3450  -20.0990 N.pl3  94  ARG94       0.1354
     97  N         -3.8600  -30.8150  -28.3970 N.3   124  THR124     -0.1218
     98  CA        -4.4450  -29.6450  -29.0540 C.3   124  THR124      0.1862
     99  C         -5.3950  -30.1590  -30.1220 C.2   124  THR124      0.2287
    100  O         -5.0000  -30.9730  -30.9630 O.2   124  THR124     -0.2866
    101  CB        -3.3870  -28.7520  -29.7200 C.3   124  THR124      0.1770
    102  OG1       -2.4370  -28.3340  -28.7430 O.3   124  THR124     -0.2211
    103  CG2       -4.0560  -27.4800  -30.3680 C.3   124  THR124      0.0375
    104  N         -8.1500  -28.8490  -32.8820 N.3   126  HIS126     -0.1241
    105  CA        -8.8260  -27.8560  -33.7140 C.3   126  HIS126      0.1621
    106  C        -10.2000  -28.4200  -34.0350 C.2   126  HIS126      0.2264
    107  O        -10.3500  -29.2970  -34.9010 O.2   126  HIS126     -0.2867
    108  CB        -8.0200  -27.5900  -34.9870 C.3   126  HIS126      0.0745
    109  CG        -6.6240  -27.1250  -34.7290 C.ar  126  HIS126      0.0817
    110  ND1       -6.3370  -25.9850  -34.0030 N.ar  126  HIS126     -0.2268
    111  CD2       -5.4290  -27.6330  -35.1220 C.ar  126  HIS126      0.1154
    112  CE1       -5.0260  -25.8170  -33.9520 C.ar  126  HIS126      0.1986
    113  NE2       -4.4510  -26.8120  -34.6100 N.ar  126  HIS126     -0.2212
@<TRIPOS>BOND
     1    73    72    2
     2    77    75   ar
     3    74    75    1
     4    74    71    1
     5    75    76   ar
     6    72    71    1
     7    71    70    1
     8   111   109   ar
     9   111   113   ar
    10   108   109    1
    11   108   105    1
    12   107   106    2
    13   109   110   ar
    14   113   112   ar
    15   106   105    1
    16   110   112   ar
    17   105   104    1
    18    41    40    1
    19    67    66    2
    20    85    83   am
    21     1     2    1
    22    40    42    1
    23    40    39    2
    24    78    79    1
    25    82    79    1
    26    82    83    1
    27     2     5    1
    28     2     3    1
    29    79    80    1
    30     7     6   ar
    31     7     9   ar
    32    66    65    1
    33    69    68    1
    34     5     6    1
    35    39    38    1
    36    83    84    2
    37    68    65    1
    38     6     8   ar
    39     9    10   ar
    40   100    99    2
    41    27    26    2
    42    37    38    1
    43    37    36    1
    44    65    64    1
    45     3     4    2
    46    80    81    2
    47   103   101    1
    48    26    25    1
    49    30    29    2
    50    99    98    1
    51    32    33    1
    52     8    10   ar
    53     8    11   ar
    54    10    12   ar
    55   101    98    1
    56   101   102    1
    57    33    36    1
    58    33    34    1
    59    98    97    1
    60    29    28    1
    61    29    31   am
    62    25    24    1
    63    25    28    1
    64    11    13   ar
    65    12    14   ar
    66    34    35    2
    67    58    57    2
    68    14    13   ar
    69    57    56    1
    70    62    63    1
    71    62    61    1
    72    61    60    1
    73    60    59    1
    74    59    56    1
    75    18    17    2
    76    56    55    1
    77    54    53    1
    78    17    16    1
    79    52    53   ar
    80    52    50   ar
    81    53    51   ar
    82    20    19    1
    83    20    21    1
    84    23    21   ar
    85    46    45    2
    86    50    48   ar
    87    16    19    1
    88    16    15    1
    89    21    22   ar
    90    51    49   ar
    91    45    44    1
    92    86    87    1
    93    48    49   ar
    94    48    47    1
    95    90    87    1
    96    90    91    1
    97    87    88    1
    98    92    91    1
    99    92    93    1
   100    95    94    1
   101    44    47    1
   102    44    43    1
   103    93    94    2
   104    94    96    1
   105    88    89    2
