@<TRIPOS>MOLECULE
tmp/2wk0A00.pdb
 96 88 0 0 0
SMALL
GASTEIGER

@<TRIPOS>ATOM
      1  N         24.7590   -8.8880  -16.7140 N.3    39  SER39      -0.1217
      2  CA        23.5470   -9.7220  -16.4650 C.3    39  SER39       0.1889
      3  C         22.8120   -9.4980  -15.1330 C.2    39  SER39       0.2288
      4  O         21.6920   -9.9870  -14.9410 O.2    39  SER39      -0.2866
      5  CB        23.8550  -11.2130  -16.6080 C.3    39  SER39       0.2089
      6  OG        24.1150  -11.5870  -17.9570 O.3    39  SER39      -0.2183
      7  N         22.9670  -14.5020  -28.3890 N.3    71  ASN71      -0.1225
      8  CA        24.2710  -15.1810  -28.3160 C.3    71  ASN71       0.1785
      9  C         24.4260  -16.2310  -27.2130 C.2    71  ASN71       0.2597
     10  O         25.4420  -16.9350  -27.1700 O.2    71  ASN71      -0.2718
     11  CB        25.3630  -14.1450  -28.0860 C.3    71  ASN71       0.1169
     12  CG        25.2570  -13.5190  -26.7150 C.2    71  ASN71       0.2627
     13  OD1       24.1600  -13.1670  -26.2800 O.2    71  ASN71      -0.2716
     14  ND2       26.3840  -13.3980  -26.0180 N.am   71  ASN71      -0.0877
     15  N         23.4640  -16.2880  -26.2990 N.am   72  TYR72      -0.1976
     16  CA        23.5670  -17.1230  -25.0950 C.3    72  TYR72       0.1639
     17  C         22.1680  -17.4950  -24.6400 C.2    72  TYR72       0.2290
     18  O         21.5470  -16.7800  -23.8410 O.2    72  TYR72      -0.2864
     19  CB        24.3240  -16.4010  -23.9700 C.3    72  TYR72       0.0560
     20  CG        24.7000  -17.3030  -22.8060 C.ar   72  TYR72      -0.0198
     21  CD1       25.8550  -18.0840  -22.8630 C.ar   72  TYR72      -0.0009
     22  CD2       23.9160  -17.3640  -21.6420 C.ar   72  TYR72      -0.0009
     23  CE1       26.2090  -18.9190  -21.8170 C.ar   72  TYR72       0.0417
     24  CE2       24.2660  -18.2110  -20.5760 C.ar   72  TYR72       0.0417
     25  CZ        25.4270  -18.9780  -20.6770 C.ar   72  TYR72       0.1957
     26  OH        25.8230  -19.8210  -19.6520 O.3    72  TYR72      -0.2866
     27  N         20.8750  -17.1670  -16.7480 N.3    97  SER97      -0.1217
     28  CA        21.3400  -15.9410  -17.4200 C.3    97  SER97       0.1889
     29  C         21.0620  -15.9730  -18.9280 C.2    97  SER97       0.2288
     30  O         21.8280  -15.4310  -19.7310 O.2    97  SER97      -0.2866
     31  CB        22.8240  -15.6410  -17.1250 C.3    97  SER97       0.2089
     32  OG        23.0260  -14.2330  -17.1090 O.3    97  SER97      -0.2183
     33  N         19.9610  -14.9730  -22.2840 N.3    99  ASN99      -0.1240
     34  CA        19.8850  -13.6180  -22.8480 C.3    99  ASN99       0.1653
     35  C         18.6190  -13.3600  -23.6450 C.2    99  ASN99       0.2266
     36  O         18.0520  -12.2650  -23.6070 O.2    99  ASN99      -0.2867
     37  CB        21.1280  -13.3110  -23.6860 C.3    99  ASN99       0.1155
     38  CG        22.3130  -12.8950  -22.8360 C.2    99  ASN99       0.2627
     39  OD1       22.1640  -12.5640  -21.6410 O.2    99  ASN99      -0.2716
     40  ND2       23.5030  -12.9100  -23.4380 N.am   99  ASN99      -0.0877
     41  N         20.3240   -7.5460  -24.2690 N.3   133  GLU133     -0.1245
     42  CA        21.4660   -8.4740  -24.2240 C.3   133  GLU133      0.1567
     43  C         21.7730   -9.0030  -25.6300 C.2   133  GLU133      0.2260
     44  O         20.8560   -9.2240  -26.4220 O.2   133  GLU133     -0.2867
     45  CB        21.1440   -9.6730  -23.3360 C.3   133  GLU133      0.0388
     46  CG        20.9310   -9.3810  -21.8370 C.3   133  GLU133      0.1160
     47  CD        22.2150   -9.3250  -21.0220 C.2   133  GLU133      0.3649
     48  OE1       23.2890   -9.0450  -21.6040 O.co2 133  GLU133     -0.2457
     49  OE2       22.1380   -9.5390  -19.7850 O.co2 133  GLU133     -0.2457
     50  N         26.2760   -5.6510  -22.2300 N.3   137  ASN137     -0.1240
     51  CA        27.4550   -6.1270  -21.4720 C.3   137  ASN137      0.1653
     52  C         28.7310   -5.3340  -21.7880 C.2   137  ASN137      0.2266
     53  O         29.7240   -5.4140  -21.0400 O.2   137  ASN137     -0.2867
     54  CB        27.7470   -7.6080  -21.7420 C.3   137  ASN137      0.1155
     55  CG        26.6150   -8.5470  -21.3370 C.2   137  ASN137      0.2627
     56  OD1       25.8070   -8.2550  -20.4560 O.2   137  ASN137     -0.2716
     57  ND2       26.5630   -9.6970  -22.0000 N.am  137  ASN137     -0.0877
     58  N         24.4990  -20.1880  -11.7280 N.3   183  THR183     -0.1218
     59  CA        25.7140  -19.5690  -12.2880 C.3   183  THR183      0.1862
     60  C         26.6600  -18.9550  -11.2570 C.2   183  THR183      0.2287
     61  O         27.7090  -18.4350  -11.6270 O.2   183  THR183     -0.2866
     62  CB        25.3500  -18.4270  -13.2800 C.3   183  THR183      0.1770
     63  OG1       24.7200  -17.3560  -12.5580 O.3   183  THR183     -0.2211
     64  CG2       24.4270  -18.9240  -14.3880 C.3   183  THR183      0.0375
     65  N         26.8750  -11.4390  -13.1470 N.3   203  GLY203     -0.1210
     66  CA        27.0460  -10.7820  -14.4340 C.3   203  GLY203      0.1956
     67  C         28.5040  -10.8690  -14.8450 C.2   203  GLY203      0.2611
     68  O         29.3800  -11.0040  -14.0030 O.2   203  GLY203     -0.2717
     69  N         28.7480  -10.7980  -16.1500 N.am  204  ALA204     -0.1979
     70  CA        30.0990  -10.6940  -16.6900 C.3   204  ALA204      0.1597
     71  C         30.0220   -9.7730  -17.9080 C.2   204  ALA204      0.2287
     72  O         29.0800   -9.8660  -18.7070 O.2   204  ALA204     -0.2864
     73  CB        30.6280  -12.0880  -17.0900 C.3   204  ALA204      0.0319
     74  N         33.0680   -8.4130  -13.6510 N.3   210  ARG210     -0.1245
     75  CA        32.5430   -9.6210  -12.9990 C.3   210  ARG210      0.1563
     76  C         31.7820   -9.2180  -11.7530 C.2   210  ARG210      0.2260
     77  O         32.3570   -8.6730  -10.8130 O.2   210  ARG210     -0.2867
     78  CB        33.6790  -10.5860  -12.6410 C.3   210  ARG210      0.0307
     79  CG        33.2120  -11.9400  -12.0880 C.3   210  ARG210      0.0489
     80  CD        32.2180  -12.6040  -13.0450 C.3   210  ARG210      0.2205
     81  NE        32.1090  -14.0550  -12.8680 N.pl3 210  ARG210     -0.0865
     82  CZ        31.0900  -14.7850  -13.3180 C.cat 210  ARG210      0.5346
     83  NH1       30.0600  -14.1970  -13.9290 N.pl3 210  ARG210      0.1354
     84  NH2       31.0920  -16.1070  -13.1470 N.pl3 210  ARG210      0.1354
     85  N         38.3610  -12.3800  -16.1900 N.3   239  TYR239     -0.1241
     86  CA        38.1290  -12.1730  -14.7590 C.3   239  TYR239      0.1605
     87  C         38.4910  -13.4410  -13.9920 C.2   239  TYR239      0.2264
     88  O         38.6710  -14.5100  -14.5840 O.2   239  TYR239     -0.2867
     89  CB        36.6770  -11.7620  -14.4790 C.3   239  TYR239      0.0534
     90  CG        35.6680  -12.7470  -15.0200 C.ar  239  TYR239     -0.0201
     91  CD1       35.3550  -13.9180  -14.3210 C.ar  239  TYR239     -0.0009
     92  CD2       35.0300  -12.5170  -16.2440 C.ar  239  TYR239     -0.0009
     93  CE1       34.4350  -14.8410  -14.8280 C.ar  239  TYR239      0.0417
     94  CE2       34.1060  -13.4270  -16.7520 C.ar  239  TYR239      0.0417
     95  CZ        33.8170  -14.5840  -16.0440 C.ar  239  TYR239      0.1957
     96  OH        32.8940  -15.4710  -16.5580 O.3   239  TYR239     -0.2866
@<TRIPOS>BOND
     1     7     8    1
     2     8    11    1
     3     8     9    1
     4    11    12    1
     5     9    10    2
     6     9    15   am
     7    12    13    2
     8    12    14   am
     9    44    43    2
    10    15    16    1
    11    43    42    1
    12    16    17    1
    13    16    19    1
    14    17    18    2
    15    41    42    1
    16    42    45    1
    17    19    20    1
    18    37    34    1
    19    37    38    1
    20    35    36    2
    21    35    34    1
    22    40    38   am
    23    45    46    1
    24    21    20   ar
    25    21    23   ar
    26    34    33    1
    27    38    39    2
    28    20    22   ar
    29    50    51    1
    30    57    55   am
    31    46    47    1
    32    23    25   ar
    33    52    51    1
    34    52    53    2
    35    54    51    1
    36    54    55    1
    37    22    24   ar
    38    48    47   ar
    39    55    56    2
    40    47    49   ar
    41    25    24   ar
    42    25    26    1
    43    30    29    2
    44    29    28    1
    45    72    71    2
    46     6     5    1
    47    71    70    1
    48    28    31    1
    49    28    27    1
    50    31    32    1
    51    73    70    1
    52    94    92   ar
    53    94    95   ar
    54     1     2    1
    55    70    69    1
    56     5     2    1
    57    96    95    1
    58     2     3    1
    59    92    90   ar
    60    85    86    1
    61    69    67   am
    62    95    93   ar
    63     3     4    2
    64    90    89    1
    65    90    91   ar
    66    67    66    1
    67    67    68    2
    68    93    91   ar
    69    86    89    1
    70    86    87    1
    71    88    87    2
    72    66    65    1
    73    64    62    1
    74    83    82    1
    75    74    75    1
    76    82    84    1
    77    82    81    2
    78    62    63    1
    79    62    59    1
    80    80    81    1
    81    80    79    1
    82    75    78    1
    83    75    76    1
    84    78    79    1
    85    59    58    1
    86    59    60    1
    87    76    77    2
    88    61    60    2
