@<TRIPOS>MOLECULE
tmp/2wk1A00.pdb
 220 214 0 0 0
SMALL
GASTEIGER

@<TRIPOS>ATOM
      1  N         -1.4720   42.9440   24.8350 N.3    43  HIS43      -0.1226
      2  CA        -0.0960   42.4870   24.8470 C.3    43  HIS43       0.1752
      3  C          0.5040   42.1820   23.4760 C.2    43  HIS43       0.2597
      4  O          1.7050   41.9970   23.3800 O.2    43  HIS43      -0.2718
      5  CB         0.0470   41.2700   25.7690 C.3    43  HIS43       0.0759
      6  CG        -0.2930   41.5780   27.1870 C.ar   43  HIS43       0.0818
      7  ND1       -1.3080   40.9510   27.8860 N.ar   43  HIS43      -0.2268
      8  CD2        0.2320   42.4990   28.0230 C.ar   43  HIS43       0.1154
      9  CE1       -1.3760   41.4760   29.0980 C.ar   43  HIS43       0.1986
     10  NE2       -0.4420   42.4020   29.2110 N.ar   43  HIS43      -0.2212
     11  N         -0.3400   42.1630   22.4350 N.am   44  THR44      -0.1939
     12  CA         0.1430   42.0140   21.0710 C.3    44  THR44       0.2028
     13  C         -0.6480   42.9190   20.1490 C.2    44  THR44       0.2642
     14  O         -1.8250   43.1960   20.4030 O.2    44  THR44      -0.2714
     15  CB         0.0240   40.5570   20.5650 C.3    44  THR44       0.1808
     16  OG1        0.5700   40.4230   19.2590 O.3    44  THR44      -0.2208
     17  CG2       -1.4130   40.0710   20.5510 C.3    44  THR44       0.0379
     18  N          0.0270   43.3530   19.0870 N.am   45  MET45      -0.1962
     19  CA        -0.6170   44.1090   18.0140 C.3    45  MET45       0.1736
     20  C         -0.9710   43.2640   16.7960 C.2    45  MET45       0.2616
     21  O         -1.5210   43.7950   15.8320 O.2    45  MET45      -0.2715
     22  CB         0.2340   45.3180   17.5690 C.3    45  MET45       0.0427
     23  CG         1.5470   44.9090   16.9590 C.3    45  MET45       0.0599
     24  SD         2.5180   46.2590   16.2850 S.3    45  MET45      -0.1393
     25  CE         3.1470   46.9950   17.7890 C.3    45  MET45       0.0692
     26  N         -0.6610   41.9680   16.8080 N.am   46  ILE46      -0.1977
     27  CA        -0.7410   41.1970   15.5610 C.3    46  ILE46       0.1596
     28  C         -2.1510   40.7750   15.2020 C.2    46  ILE46       0.2287
     29  O         -2.3950   40.3690   14.0710 O.2    46  ILE46      -0.2864
     30  CB         0.2180   40.0000   15.5420 C.3    46  ILE46       0.0276
     31  CG1       -0.2420   38.8600   16.4680 C.3    46  ILE46       0.0022
     32  CG2        1.6300   40.4540   15.8850 C.3    46  ILE46       0.0022
     33  CD1        0.6710   37.6270   16.4190 C.3    46  ILE46       0.0001
     34  N         10.4870   34.4200   18.3890 N.3    72  GLU72      -0.1245
     35  CA        10.0060   35.6170   17.7430 C.3    72  GLU72       0.1567
     36  C         11.0820   36.6700   17.7650 C.2    72  GLU72       0.2260
     37  O         11.6870   36.9290   18.8150 O.2    72  GLU72      -0.2867
     38  CB         8.7640   36.1860   18.4130 C.3    72  GLU72       0.0388
     39  CG         8.1400   37.2470   17.4920 C.3    72  GLU72       0.1160
     40  CD         6.8670   37.8850   18.0100 C.2    72  GLU72       0.3649
     41  OE1        6.8290   38.1360   19.2190 O.co2  72  GLU72      -0.2457
     42  OE2        5.9240   38.1460   17.1970 O.co2  72  GLU72      -0.2457
     43  N         11.2860   40.3560   17.3550 N.3    74  GLY74      -0.1210
     44  CA        10.4930   41.5690   17.4150 C.3    74  GLY74       0.1956
     45  C          9.2270   41.2740   18.1630 C.2    74  GLY74       0.2612
     46  O          8.2900   40.7220   17.5950 O.2    74  GLY74      -0.2717
     47  N          9.1960   41.6580   19.4370 N.am   75  VAL75      -0.1965
     48  CA         8.1880   41.1550   20.3600 C.3    75  VAL75       0.1727
     49  C          7.2630   42.2090   20.9820 C.2    75  VAL75       0.2616
     50  O          6.2350   41.8500   21.5400 O.2    75  VAL75      -0.2715
     51  CB         8.8450   40.3190   21.4740 C.3    75  VAL75       0.0290
     52  CG1        9.8380   39.3150   20.8630 C.3    75  VAL75       0.0023
     53  CG2        9.4800   41.1950   22.5650 C.3    75  VAL75       0.0023
     54  N          7.6500   43.4810   20.9380 N.am   76  TRP76      -0.1974
     55  CA         6.8540   44.5600   21.5510 C.3    76  TRP76       0.1640
     56  C          6.5070   44.1970   22.9990 C.2    76  TRP76       0.2290
     57  O          7.4320   43.9580   23.7860 O.2    76  TRP76      -0.2864
     58  CB         5.6250   44.8860   20.6860 C.3    76  TRP76       0.0576
     59  CG         4.9220   46.1330   21.0540 C.ar   76  TRP76       0.0006
     60  CD1        5.4890   47.3630   21.2070 C.ar   76  TRP76       0.0946
     61  CD2        3.5020   46.3280   21.1840 C.ar   76  TRP76       0.0152
     62  NE1        4.5270   48.3060   21.4680 N.ar   76  TRP76      -0.2442
     63  CE2        3.2970   47.7060   21.4660 C.ar   76  TRP76       0.0810
     64  CE3        2.3900   45.4750   21.1400 C.ar   76  TRP76       0.0012
     65  CZ2        2.0290   48.2390   21.6570 C.ar   76  TRP76       0.0191
     66  CZ3        1.1310   46.0230   21.3130 C.ar   76  TRP76       0.0001
     67  CH2        0.9620   47.3870   21.5810 C.ar   76  TRP76       0.0015
     68  N          2.8450   37.6900   21.4740 N.3    80  ALA80      -0.1245
     69  CA         3.0130   36.5320   20.5720 C.3    80  ALA80       0.1562
     70  C          3.8780   35.4500   21.2200 C.2    80  ALA80       0.2260
     71  O          3.5940   34.2500   21.1050 O.2    80  ALA80      -0.2867
     72  CB         3.6120   36.9690   19.2360 C.3    80  ALA80       0.0290
     73  N         14.5850   40.8600   21.0190 N.3   102  ASP102     -0.1225
     74  CA        14.2150   42.2370   20.7900 C.3   102  ASP102      0.1805
     75  C         15.3170   43.1350   21.3000 C.2   102  ASP102      0.2598
     76  O         16.0710   42.7710   22.1980 O.2   102  ASP102     -0.2718
     77  CB        12.9190   42.5880   21.5420 C.3   102  ASP102      0.1424
     78  CG        12.1780   43.7410   20.9270 C.2   102  ASP102      0.3668
     79  OD1       12.5580   44.9120   21.1250 O.co2 102  ASP102     -0.2456
     80  OD2       11.2110   43.4600   20.1740 O.co2 102  ASP102     -0.2456
     81  N         15.3760   44.3460   20.7640 N.am  103  SER103     -0.1952
     82  CA        16.2180   45.3720   21.3670 C.3   103  SER103      0.1924
     83  C         15.7460   45.8000   22.7530 C.2   103  SER103      0.2314
     84  O         16.5450   46.2590   23.5600 O.2   103  SER103     -0.2863
     85  CB        16.2650   46.6060   20.4860 C.3   103  SER103      0.2116
     86  OG        14.9900   47.2210   20.4960 O.3   103  SER103     -0.2180
     87  N         12.9120   49.4900   21.0270 N.3   106  GLY106     -0.1210
     88  CA        12.2810   49.8750   19.7860 C.3   106  GLY106      0.1956
     89  C         13.1260   49.6220   18.5390 C.2   106  GLY106      0.2612
     90  O         14.1500   48.9530   18.5380 O.2   106  GLY106     -0.2717
     91  N         12.6340   50.1520   17.4340 N.am  107  ILE107     -0.1966
     92  CA        13.2530   49.9810   16.1350 C.3   107  ILE107      0.1712
     93  C         14.5570   50.8080   16.0550 C.2   107  ILE107      0.2458
     94  O         14.5910   51.9260   16.5400 O.2   107  ILE107     -0.2730
     95  CB        12.2350   50.4240   15.0600 C.3   107  ILE107      0.0289
     96  CG1       11.0170   49.4660   15.0520 C.3   107  ILE107      0.0022
     97  CG2       12.8760   50.5120   13.6740 C.3   107  ILE107      0.0023
     98  CD1        9.9120   49.8770   14.0590 C.3   107  ILE107      0.0001
     99  N         15.6250   50.2520   15.4630 N.am  108  PRO108     -0.2727
    100  CA        16.8700   51.0310   15.3590 C.3   108  PRO108      0.1402
    101  C         16.7160   52.1870   14.3990 C.2   108  PRO108      0.2269
    102  O         15.9230   52.1040   13.4610 O.2   108  PRO108     -0.2865
    103  CB        17.8800   50.0190   14.7970 C.3   108  PRO108      0.0296
    104  CG        17.0160   49.0100   14.0340 C.3   108  PRO108      0.0237
    105  CD        15.7690   48.8960   14.8760 C.3   108  PRO108      0.0939
    106  N          6.6540   51.8210   20.3120 N.3   130  LEU130     -0.1245
    107  CA         7.2840   50.5360   19.9960 C.3   130  LEU130      0.1561
    108  C          8.3830   50.0820   20.9360 C.2   130  LEU130      0.2260
    109  O          8.6800   48.8770   20.9530 O.2   130  LEU130     -0.2867
    110  CB         7.8070   50.4950   18.5780 C.3   130  LEU130      0.0270
    111  CG         6.7780   50.6600   17.4670 C.3   130  LEU130      0.0019
    112  CD1        7.4640   50.6720   16.1240 C.3   130  LEU130      0.0001
    113  CD2        5.6550   49.6320   17.5160 C.3   130  LEU130      0.0001
    114  N          9.5810   48.8600   24.2910 N.3   132  VAL132     -0.1245
    115  CA         9.0500   48.2510   25.5050 C.3   132  VAL132      0.1561
    116  C         10.1990   47.5410   26.1930 C.2   132  VAL132      0.2260
    117  O         10.8660   46.6880   25.5900 O.2   132  VAL132     -0.2867
    118  CB         7.9100   47.2520   25.2140 C.3   132  VAL132      0.0252
    119  CG1        7.4070   46.6490   26.5050 C.3   132  VAL132      0.0019
    120  CG2        6.7700   47.9310   24.4230 C.3   132  VAL132      0.0019
    121  N         18.9270   42.8930   22.6610 N.3   156  GLY156     -0.1210
    122  CA        19.9060   43.6400   21.8660 C.3   156  GLY156      0.1956
    123  C         19.4860   43.7550   20.4120 C.2   156  GLY156      0.2612
    124  O         18.4330   43.2380   20.0020 O.2   156  GLY156     -0.2717
    125  N         20.2830   44.4720   19.6330 N.am  157  TRP157     -0.1962
    126  CA        20.0260   44.5870   18.2280 C.3   157  TRP157      0.1771
    127  C         20.2700   43.2320   17.5580 C.2   157  TRP157      0.2620
    128  O         21.2370   42.5500   17.8880 O.2   157  TRP157     -0.2715
    129  CB        20.9460   45.6650   17.6230 C.3   157  TRP157      0.0590
    130  CG        20.7650   46.9820   18.3080 C.ar  157  TRP157      0.0006
    131  CD1       21.6870   47.6360   19.0760 C.ar  157  TRP157      0.0946
    132  CD2       19.5820   47.7760   18.3530 C.ar  157  TRP157      0.0152
    133  NE1       21.1510   48.7910   19.5880 N.ar  157  TRP157     -0.2442
    134  CE2       19.8580   48.9010   19.1590 C.ar  157  TRP157      0.0810
    135  CE3       18.3120   47.6560   17.7850 C.ar  157  TRP157      0.0012
    136  CZ2       18.9030   49.8900   19.4150 C.ar  157  TRP157      0.0191
    137  CZ3       17.3680   48.6300   18.0600 C.ar  157  TRP157      0.0001
    138  CH2       17.6620   49.7210   18.8650 C.ar  157  TRP157      0.0015
    139  N         19.4050   42.8410   16.6260 N.am  158  PHE158     -0.1960
    140  CA        19.5470   41.5310   15.9740 C.3   158  PHE158      0.1771
    141  C         20.9310   41.3160   15.3610 C.2   158  PHE158      0.2619
    142  O         21.4600   40.2170   15.4170 O.2   158  PHE158     -0.2715
    143  CB        18.4970   41.3090   14.8650 C.3   158  PHE158      0.0574
    144  CG        17.0750   41.3490   15.3420 C.ar  158  PHE158     -0.0200
    145  CD1       16.7290   40.9620   16.6360 C.ar  158  PHE158     -0.0042
    146  CD2       16.0700   41.7600   14.4760 C.ar  158  PHE158     -0.0042
    147  CE1       15.4240   41.0590   17.0440 C.ar  158  PHE158     -0.0003
    148  CE2       14.7620   41.8330   14.8990 C.ar  158  PHE158     -0.0003
    149  CZ        14.4510   41.5000   16.1800 C.ar  158  PHE158     -0.0000
    150  N         21.5390   42.3700   14.8270 N.am  159  LYS159     -0.1977
    151  CA        22.8650   42.1920   14.2000 C.3   159  LYS159      0.1596
    152  C         23.9040   41.7850   15.2320 C.2   159  LYS159      0.2287
    153  O         24.9370   41.2030   14.8690 O.2   159  LYS159     -0.2864
    154  CB        23.3080   43.4540   13.4590 C.3   159  LYS159      0.0298
    155  CG        23.5180   44.6490   14.3550 C.3   159  LYS159      0.0038
    156  CD        24.0020   45.8960   13.6170 C.3   159  LYS159      0.0206
    157  CE        24.1800   47.0390   14.6030 C.3   159  LYS159      0.1093
    158  NZ        24.3160   48.3530   13.9050 N.3   159  LYS159     -0.1314
    159  N          9.2750   33.1700   13.8940 N.3   174  ARG174     -0.1245
    160  CA         8.3170   34.2570   13.6230 C.3   174  ARG174      0.1563
    161  C          9.0920   35.5620   13.5530 C.2   174  ARG174      0.2260
    162  O          9.8100   35.9040   14.4740 O.2   174  ARG174     -0.2867
    163  CB         7.2050   34.3260   14.6480 C.3   174  ARG174      0.0307
    164  CG         6.1570   35.3670   14.2550 C.3   174  ARG174      0.0489
    165  CD         4.9340   35.4060   15.1850 C.3   174  ARG174      0.2205
    166  NE         3.8080   35.9510   14.4510 N.pl3 174  ARG174     -0.0865
    167  CZ         3.6740   37.2390   14.1360 C.cat 174  ARG174      0.5346
    168  NH1        4.4480   38.1460   14.7080 N.pl3 174  ARG174      0.1354
    169  NH2        2.7480   37.6070   13.2840 N.pl3 174  ARG174      0.1354
    170  N          9.0680   39.6520   13.0160 N.3   176  ASP176     -0.1225
    171  CA         8.2370   40.8430   13.1480 C.3   176  ASP176      0.1805
    172  C          9.1200   42.0250   13.5230 C.2   176  ASP176      0.2598
    173  O          8.8820   42.7010   14.5410 O.2   176  ASP176     -0.2718
    174  CB         7.1800   40.5970   14.2270 C.3   176  ASP176      0.1424
    175  CG         5.9830   41.5520   14.1490 C.2   176  ASP176      0.3668
    176  OD1        6.0520   42.5960   13.4530 O.co2 176  ASP176     -0.2456
    177  OD2        4.9510   41.2420   14.8050 O.co2 176  ASP176     -0.2456
    178  N         10.1220   42.2770   12.7010 N.am  177  GLY177     -0.1942
    179  CA        11.1020   43.3260   12.9640 C.3   177  GLY177      0.2014
    180  C         10.9910   44.5820   12.1280 C.2   177  GLY177      0.2639
    181  O         11.8570   45.4430   12.2190 O.2   177  GLY177     -0.2714
    182  N          9.9470   44.6830   11.2980 N.am  178  ASP178     -0.1957
    183  CA         9.5410   45.9170   10.5900 C.3   178  ASP178      0.1840
    184  C         10.4380   46.5140    9.5000 C.2   178  ASP178      0.2621
    185  O          9.9340   47.2750    8.7020 O.2   178  ASP178     -0.2715
    186  CB         9.2020   47.0230   11.6030 C.3   178  ASP178      0.1450
    187  CG         7.8380   46.8440   12.2490 C.2   178  ASP178      0.3671
    188  OD1        6.8650   46.4210   11.5710 O.co2 178  ASP178     -0.2456
    189  OD2        7.7450   47.1250   13.4540 O.co2 178  ASP178     -0.2456
    190  N         11.7230   46.1700    9.4620 N.am  179  LEU179     -0.1977
    191  CA        12.6800   46.7550    8.5140 C.3   179  LEU179      0.1596
    192  C         13.3030   45.7320    7.6110 C.2   179  LEU179      0.2287
    193  O         13.3880   44.5600    7.9690 O.2   179  LEU179     -0.2864
    194  CB        13.8450   47.3920    9.2820 C.3   179  LEU179      0.0297
    195  CG        13.5610   48.4710   10.2980 C.3   179  LEU179      0.0022
    196  CD1       14.8750   48.9110   10.9700 C.3   179  LEU179      0.0001
    197  CD2       12.8740   49.5880    9.6000 C.3   179  LEU179      0.0001
    198  N         16.4790   45.6070    7.0660 N.3   181  GLU181     -0.1231
    199  CA        17.6950   45.1140    7.6970 C.3   181  GLU181      0.1699
    200  C         17.4260   44.1160    8.8090 C.2   181  GLU181      0.2592
    201  O         18.1390   43.1170    8.9310 O.2   181  GLU181     -0.2718
    202  CB        18.5990   46.2500    8.1320 C.3   181  GLU181      0.0402
    203  CG        18.2000   47.1220    9.2550 C.3   181  GLU181      0.1161
    204  CD        19.4450   47.8560    9.7510 C.2   181  GLU181      0.3649
    205  OE1       19.8490   48.8500    9.1120 O.co2 181  GLU181     -0.2457
    206  OE2       20.0610   47.3830   10.7230 O.co2 181  GLU181     -0.2457
    207  N         16.3910   44.3710    9.5940 N.am  182  SER182     -0.1952
    208  CA        16.0040   43.4760   10.6520 C.3   182  SER182      0.1924
    209  C         15.6130   42.1270   10.0960 C.2   182  SER182      0.2314
    210  O         15.9890   41.0870   10.6430 O.2   182  SER182     -0.2863
    211  CB        14.8610   44.0650   11.4580 C.3   182  SER182      0.2116
    212  OG        15.2110   45.3290   12.0170 O.3   182  SER182     -0.2180
    213  N         18.6920   40.2740    8.5790 N.3   185  ASP185     -0.1239
    214  CA        19.5600   39.7340    9.6460 C.3   185  ASP185      0.1674
    215  C         18.9200   38.5350   10.3650 C.2   185  ASP185      0.2266
    216  O         19.5970   37.5850   10.7690 O.2   185  ASP185     -0.2867
    217  CB        19.9220   40.8210   10.6420 C.3   185  ASP185      0.1410
    218  CG        20.8660   41.8770   10.0390 C.2   185  ASP185      0.3668
    219  OD1       21.4660   41.6250    8.9640 O.co2 185  ASP185     -0.2456
    220  OD2       20.9720   42.9550   10.6490 O.co2 185  ASP185     -0.2456
@<TRIPOS>BOND
     1   198   199    1
     2   192   193    2
     3   192   191    1
     4   199   202    1
     5   199   200    1
     6   202   203    1
     7   191   194    1
     8   191   190    1
     9   213   214    1
    10   185   184    2
    11   200   201    2
    12   200   207   am
    13   219   218   ar
    14   205   204   ar
    15   203   204    1
    16   194   195    1
    17   190   184   am
    18   184   183    1
    19   207   208    1
    20   197   195    1
    21   214   215    1
    22   214   217    1
    23   204   206   ar
    24   218   217    1
    25   218   220   ar
    26   209   210    2
    27   209   208    1
    28   195   196    1
    29   215   216    2
    30   183   182    1
    31   183   186    1
    32   208   211    1
    33   182   180   am
    34   211   212    1
    35   188   187   ar
    36   186   187    1
    37   180   181    2
    38   180   179    1
    39   187   189   ar
    40   178   179    1
    41   178   172   am
    42   170   171    1
    43   171   172    1
    44   171   174    1
    45   169   167    1
    46   176   175   ar
    47   154   151    1
    48   154   155    1
    49   102   101    2
    50   172   173    2
    51   161   160    1
    52   161   162    2
    53   156   155    1
    54   156   157    1
    55   160   159    1
    56   160   163    1
    57    97    95    1
    58   158   157    1
    59   104   103    1
    60   104   105    1
    61    98    96    1
    62    29    28    2
    63   167   166    2
    64   167   168    1
    65   175   174    1
    66   175   177   ar
    67   151   150    1
    68   151   152    1
    69   164   163    1
    70   164   165    1
    71   101   100    1
    72   166   165    1
    73   146   148   ar
    74   146   144   ar
    75   103   100    1
    76   150   141   am
    77   143   144    1
    78   143   140    1
    79   153   152    2
    80   105    99    1
    81   148   149   ar
    82    96    95    1
    83    95    92    1
    84    28    27    1
    85   144   145   ar
    86   100    99    1
    87   141   142    2
    88   141   140    1
    89    99    93   am
    90    30    27    1
    91    30    32    1
    92    30    31    1
    93    27    26    1
    94    21    20    2
    95   140   139    1
    96    93    92    1
    97    93    94    2
    98   112   111    1
    99    92    91    1
   100   149   147   ar
   101    24    23    1
   102    24    25    1
   103    33    31    1
   104   139   127   am
   105   145   147   ar
   106    20    26   am
   107    20    19    1
   108    23    22    1
   109    42    40   ar
   110    43    44    1
   111    44    45    1
   112    91    89   am
   113   111   113    1
   114   111   110    1
   115    39    40    1
   116    39    38    1
   117   127   128    2
   118   127   126    1
   119    22    19    1
   120    46    45    2
   121   129   126    1
   122   129   130    1
   123    35    36    1
   124    35    34    1
   125    35    38    1
   126    36    37    2
   127   135   137   ar
   128   135   132   ar
   129    40    41   ar
   130    19    18    1
   131   137   138   ar
   132    45    47   am
   133   126   125    1
   134   130   132   ar
   135   130   131   ar
   136   132   134   ar
   137    90    89    2
   138    89    88    1
   139   110   107    1
   140   138   136   ar
   141   131   133   ar
   142    18    13   am
   143   134   136   ar
   144   134   133   ar
   145    72    69    1
   146    16    15    1
   147    47    48    1
   148   125   123   am
   149    88    87    1
   150   107   106    1
   151   107   108    1
   152   124   123    2
   153    13    14    2
   154    13    12    1
   155    80    78   ar
   156    48    49    1
   157    48    51    1
   158   123   122    1
   159    85    86    1
   160    85    82    1
   161    17    15    1
   162    15    12    1
   163    69    70    1
   164    69    68    1
   165    58    59    1
   166    58    55    1
   167    81    75   am
   168    81    82    1
   169    74    73    1
   170    74    75    1
   171    74    77    1
   172    52    51    1
   173    78    79   ar
   174    78    77    1
   175   108   109    2
   176    54    49   am
   177    54    55    1
   178    49    50    2
   179    59    61   ar
   180    59    60   ar
   181    12    11    1
   182    71    70    2
   183    64    61   ar
   184    64    66   ar
   185    61    63   ar
   186    60    62   ar
   187    75    76    2
   188    66    67   ar
   189    82    83    1
   190    63    62   ar
   191    63    65   ar
   192    51    53    1
   193    55    56    1
   194    67    65   ar
   195   122   121    1
   196    11     3   am
   197    83    84    2
   198    56    57    2
   199     4     3    2
   200     3     2    1
   201   114   115    1
   202   120   118    1
   203     1     2    1
   204     2     5    1
   205   118   115    1
   206   118   119    1
   207   115   116    1
   208   117   116    2
   209     5     6    1
   210     6     7   ar
   211     6     8   ar
   212     7     9   ar
   213     8    10   ar
   214     9    10   ar
