@<TRIPOS>MOLECULE
tmp/2wk2A03.pdb
 98 95 0 0 0
SMALL
GASTEIGER

@<TRIPOS>ATOM
      1  N         28.1610   68.6220   -0.9140 N.3   252  TRP252     -0.1241
      2  CA        26.8780   68.3760   -1.5490 C.3   252  TRP252      0.1605
      3  C         26.7900   67.0900   -2.3800 C.2   252  TRP252      0.2264
      4  O         25.8100   66.3550   -2.2990 O.2   252  TRP252     -0.2867
      5  CB        26.4600   69.6020   -2.4090 C.3   252  TRP252      0.0550
      6  CG        25.0290   69.4770   -2.9140 C.ar  252  TRP252      0.0003
      7  CD1       24.6200   69.2190   -4.2200 C.ar  252  TRP252      0.0946
      8  CD2       23.8230   69.5580   -2.1190 C.ar  252  TRP252      0.0152
      9  NE1       23.2230   69.1630   -4.2640 N.ar  252  TRP252     -0.2442
     10  CE2       22.7200   69.3720   -2.9990 C.ar  252  TRP252      0.0810
     11  CE3       23.5680   69.7880   -0.7380 C.ar  252  TRP252      0.0012
     12  CZ2       21.3800   69.3950   -2.5470 C.ar  252  TRP252      0.0191
     13  CZ3       22.2400   69.8070   -0.2920 C.ar  252  TRP252      0.0001
     14  CH2       21.1560   69.6080   -1.2070 C.ar  252  TRP252      0.0015
     15  N         26.1370   65.9850    4.2130 N.3   292  GLU292     -0.1231
     16  CA        24.9390   66.7550    3.9180 C.3   292  GLU292      0.1699
     17  C         23.7550   65.8650    3.4970 C.2   292  GLU292      0.2592
     18  O         23.6360   65.5270    2.3090 O.2   292  GLU292     -0.2718
     19  CB        25.2550   67.7920    2.8210 C.3   292  GLU292      0.0402
     20  CG        26.4450   68.6510    3.2890 C.3   292  GLU292      0.1161
     21  CD        26.8770   69.8010    2.3660 C.2   292  GLU292      0.3649
     22  OE1       26.1400   70.1980    1.4270 O.co2 292  GLU292     -0.2457
     23  OE2       28.0120   70.3010    2.6220 O.co2 292  GLU292     -0.2457
     24  N         22.8770   65.4800    4.4190 N.am  293  PHE293     -0.1976
     25  CA        22.8410   65.8360    5.8320 C.3   293  PHE293      0.1639
     26  C         22.3230   64.5980    6.5540 C.2   293  PHE293      0.2290
     27  O         21.5690   63.8330    5.9820 O.2   293  PHE293     -0.2864
     28  CB        21.8010   66.9600    6.0960 C.3   293  PHE293      0.0560
     29  CG        22.0090   68.1590    5.2590 C.ar  293  PHE293     -0.0200
     30  CD1       23.0210   69.0830    5.5750 C.ar  293  PHE293     -0.0042
     31  CD2       21.2430   68.3550    4.1140 C.ar  293  PHE293     -0.0042
     32  CE1       23.2240   70.2080    4.7750 C.ar  293  PHE293     -0.0003
     33  CE2       21.4350   69.5130    3.3170 C.ar  293  PHE293     -0.0003
     34  CZ        22.4440   70.4000    3.6320 C.ar  293  PHE293     -0.0000
     35  N         24.3000   71.7240    8.4770 N.3   341  SER341     -0.1217
     36  CA        23.1970   72.6030    8.1480 C.3   341  SER341      0.1889
     37  C         22.9530   73.6120    9.3130 C.2   341  SER341      0.2288
     38  O         23.0450   73.2560   10.5000 O.2   341  SER341     -0.2866
     39  CB        21.9280   71.7930    7.8960 C.3   341  SER341      0.2089
     40  OG        20.8390   72.6510    7.6680 O.3   341  SER341     -0.2183
     41  N         26.8480   76.1510    8.6310 N.3   365  MET365     -0.1245
     42  CA        26.6730   76.6180    7.2540 C.3   365  MET365      0.1570
     43  C         25.5370   77.6400    7.1180 C.2   365  MET365      0.2261
     44  O         24.5090   77.3610    6.4540 O.2   365  MET365     -0.2867
     45  CB        26.4990   75.4260    6.2830 C.3   365  MET365      0.0387
     46  CG        27.7810   74.5740    6.2210 C.3   365  MET365      0.0595
     47  SD        27.7730   73.4490    4.8300 S.3   365  MET365     -0.1393
     48  CE        26.6100   72.2550    5.4380 C.3   365  MET365      0.0692
     49  N         24.3070   79.9840    5.4250 N.3   367  TYR367     -0.1227
     50  CA        24.1740   80.5340    4.0680 C.3   367  TYR367      0.1736
     51  C         23.3030   79.5650    3.2850 C.2   367  TYR367      0.2595
     52  O         22.9060   78.5530    3.8530 O.2   367  TYR367     -0.2718
     53  CB        25.5290   80.7600    3.3880 C.3   367  TYR367      0.0548
     54  CG        26.6240   79.7160    3.6360 C.ar  367  TYR367     -0.0200
     55  CD1       26.5860   78.4780    2.9920 C.ar  367  TYR367     -0.0009
     56  CD2       27.7060   79.9960    4.4610 C.ar  367  TYR367     -0.0009
     57  CE1       27.5860   77.5260    3.1910 C.ar  367  TYR367      0.0417
     58  CE2       28.7500   79.0420    4.6720 C.ar  367  TYR367      0.0417
     59  CZ        28.6650   77.8060    4.0220 C.ar  367  TYR367      0.1957
     60  OH        29.6230   76.8210    4.1690 O.3   367  TYR367     -0.2866
     61  N         22.9990   79.8710    2.0180 N.am  368  ASP368     -0.1974
     62  CA        22.0660   79.0790    1.1830 C.3   368  ASP368      0.1709
     63  C         20.6820   78.9730    1.8360 C.2   368  ASP368      0.2293
     64  O         19.9660   77.9850    1.6140 O.2   368  ASP368     -0.2864
     65  CB        22.5960   77.6510    0.8690 C.3   368  ASP368      0.1436
     66  CG        23.9720   77.6470    0.2020 C.2   368  ASP368      0.3671
     67  OD1       24.3660   78.6490   -0.4740 O.co2 368  ASP368     -0.2456
     68  OD2       24.7050   76.6420    0.3700 O.co2 368  ASP368     -0.2456
     69  N         16.6410   77.7990   -6.2060 N.3   373  PHE373     -0.1241
     70  CA        16.0680   76.4500   -6.0470 C.3   373  PHE373      0.1605
     71  C         14.6400   76.5710   -5.5300 C.2   373  PHE373      0.2264
     72  O         13.8970   75.5870   -5.4820 O.2   373  PHE373     -0.2867
     73  CB        16.9240   75.6140   -5.0580 C.3   373  PHE373      0.0534
     74  CG        17.2800   76.3520   -3.7500 C.ar  373  PHE373     -0.0203
     75  CD1       16.3470   76.4630   -2.7150 C.ar  373  PHE373     -0.0042
     76  CD2       18.5620   76.9350   -3.5740 C.ar  373  PHE373     -0.0042
     77  CE1       16.6560   77.0960   -1.5310 C.ar  373  PHE373     -0.0003
     78  CE2       18.8880   77.5900   -2.3790 C.ar  373  PHE373     -0.0003
     79  CZ        17.9140   77.6700   -1.3530 C.ar  373  PHE373     -0.0000
     80  N         23.4400   84.4790   -4.0520 N.3   423  ARG423     -0.1245
     81  CA        22.4700   83.6900   -4.8020 C.3   423  ARG423      0.1563
     82  C         21.4710   84.6520   -5.3920 C.2   423  ARG423      0.2260
     83  O         21.2310   85.7060   -4.8200 O.2   423  ARG423     -0.2867
     84  CB        21.7820   82.6380   -3.9040 C.3   423  ARG423      0.0307
     85  CG        22.7570   81.5200   -3.4840 C.3   423  ARG423      0.0489
     86  CD        22.0020   80.3190   -2.8220 C.3   423  ARG423      0.2205
     87  NE        22.9050   79.1720   -2.6440 N.pl3 423  ARG423     -0.0865
     88  CZ        23.0770   78.2290   -3.5560 C.cat 423  ARG423      0.5346
     89  NH1       22.3920   78.2920   -4.6970 N.pl3 423  ARG423      0.1354
     90  NH2       23.9190   77.2320   -3.3370 N.pl3 423  ARG423      0.1354
     91  N         24.0000   81.7040   -9.1010 N.3   453  ILE453     -0.1245
     92  CA        25.0780   81.9310   -8.1370 C.3   453  ILE453      0.1561
     93  C         26.1090   82.8650   -8.7450 C.2   453  ILE453      0.2260
     94  O         26.5420   82.6690   -9.8710 O.2   453  ILE453     -0.2867
     95  CB        25.7560   80.5730   -7.7070 C.3   453  ILE453      0.0252
     96  CG1       24.7070   79.6780   -7.0480 C.3   453  ILE453      0.0019
     97  CG2       26.9340   80.8160   -6.7340 C.3   453  ILE453      0.0019
     98  CD1       24.7580   78.2900   -7.4920 C.3   453  ILE453      0.0001
@<TRIPOS>BOND
     1    94    93    2
     2    91    92    1
     3    93    92    1
     4    92    95    1
     5    95    96    1
     6    95    97    1
     7    98    96    1
     8    69    70    1
     9    70    71    1
    10    70    73    1
    11    71    72    2
    12    82    83    2
    13    82    81    1
    14    73    74    1
    15    81    80    1
    16    81    84    1
    17    89    88    1
    18     9     7   ar
    19     9    10   ar
    20     7     6   ar
    21    84    85    1
    22    74    76   ar
    23    74    75   ar
    24    76    78   ar
    25    88    90    1
    26    88    87    2
    27    85    86    1
    28    10    12   ar
    29    10     8   ar
    30     6     5    1
    31     6     8   ar
    32    86    87    1
    33    75    77   ar
    34    12    14   ar
    35     5     2    1
    36     3     4    2
    37     3     2    1
    38    78    79   ar
    39     8    11   ar
    40     2     1    1
    41    77    79   ar
    42    14    13   ar
    43    11    13   ar
    44    67    66   ar
    45    66    68   ar
    46    66    65    1
    47    65    62    1
    48    62    63    1
    49    62    61    1
    50    22    21   ar
    51    64    63    2
    52    61    51   am
    53    18    17    2
    54    21    23   ar
    55    21    20    1
    56    19    20    1
    57    19    16    1
    58    55    57   ar
    59    55    54   ar
    60    57    59   ar
    61    51    52    2
    62    51    50    1
    63    33    34   ar
    64    33    31   ar
    65    53    54    1
    66    53    50    1
    67    17    16    1
    68    17    24   am
    69    34    32   ar
    70    54    56   ar
    71    16    15    1
    72    59    60    1
    73    59    58   ar
    74    50    49    1
    75    31    29   ar
    76    24    25    1
    77    56    58   ar
    78    32    30   ar
    79    47    48    1
    80    47    46    1
    81    29    30   ar
    82    29    28    1
    83    25    28    1
    84    25    26    1
    85    27    26    2
    86    46    45    1
    87    45    42    1
    88    44    43    2
    89    43    42    1
    90    42    41    1
    91    40    39    1
    92    39    36    1
    93    36    35    1
    94    36    37    1
    95    37    38    2
