@<TRIPOS>MOLECULE
tmp/2wk2A02.pdb
 138 136 0 0 0
SMALL
GASTEIGER

@<TRIPOS>ATOM
      1  N         37.1470   77.6100    2.5980 N.3   140  TYR140     -0.1241
      2  CA        37.3170   76.4500    1.7690 C.3   140  TYR140      0.1605
      3  C         38.0130   76.8000    0.4490 C.2   140  TYR140      0.2264
      4  O         37.6410   77.7510   -0.2050 O.2   140  TYR140     -0.2867
      5  CB        35.9350   75.8420    1.4280 C.3   140  TYR140      0.0534
      6  CG        35.3510   75.0060    2.5470 C.ar  140  TYR140     -0.0201
      7  CD1       34.6250   75.6150    3.5870 C.ar  140  TYR140     -0.0009
      8  CD2       35.4910   73.5830    2.5490 C.ar  140  TYR140     -0.0009
      9  CE1       34.0990   74.8460    4.6350 C.ar  140  TYR140      0.0417
     10  CE2       34.9200   72.8120    3.5770 C.ar  140  TYR140      0.0417
     11  CZ        34.2370   73.4400    4.6020 C.ar  140  TYR140      0.1957
     12  OH        33.6840   72.6620    5.6150 O.3   140  TYR140     -0.2866
     13  N         38.6810   71.6360   -7.7570 N.3   144  TRP144     -0.1241
     14  CA        38.3760   71.8580   -9.1890 C.3   144  TRP144      0.1605
     15  C         38.5240   73.3600   -9.5890 C.2   144  TRP144      0.2264
     16  O         38.4100   73.6740  -10.7630 O.2   144  TRP144     -0.2867
     17  CB        36.9360   71.4140   -9.5190 C.3   144  TRP144      0.0550
     18  CG        35.8960   72.0620   -8.6580 C.ar  144  TRP144      0.0003
     19  CD1       35.1700   73.1720   -8.9570 C.ar  144  TRP144      0.0946
     20  CD2       35.4430   71.6310   -7.3430 C.ar  144  TRP144      0.0152
     21  NE1       34.2860   73.4510   -7.9440 N.ar  144  TRP144     -0.2442
     22  CE2       34.4380   72.5390   -6.9350 C.ar  144  TRP144      0.0810
     23  CE3       35.7890   70.5490   -6.4770 C.ar  144  TRP144      0.0012
     24  CZ2       33.7600   72.4240   -5.6890 C.ar  144  TRP144      0.0191
     25  CZ3       35.1420   70.4390   -5.2470 C.ar  144  TRP144      0.0001
     26  CH2       34.1350   71.3940   -4.8520 C.ar  144  TRP144      0.0015
     27  N         37.0570   68.6540   -2.2840 N.3   168  PHE168     -0.1241
     28  CA        36.5760   67.7310   -1.2650 C.3   168  PHE168      0.1605
     29  C         37.2370   66.4120   -1.5180 C.2   168  PHE168      0.2264
     30  O         37.5580   66.0760   -2.6570 O.2   168  PHE168     -0.2867
     31  CB        35.0190   67.4540   -1.3530 C.3   168  PHE168      0.0534
     32  CG        34.1670   68.5830   -0.8750 C.ar  168  PHE168     -0.0203
     33  CD1       34.0330   68.8540    0.4800 C.ar  168  PHE168     -0.0042
     34  CD2       33.4690   69.3660   -1.7830 C.ar  168  PHE168     -0.0042
     35  CE1       33.2260   69.9340    0.9310 C.ar  168  PHE168     -0.0003
     36  CE2       32.6560   70.4280   -1.3510 C.ar  168  PHE168     -0.0003
     37  CZ        32.5140   70.6920    0.0240 C.ar  168  PHE168     -0.0000
     38  N         28.1610   68.6220   -0.9140 N.3   252  TRP252     -0.1241
     39  CA        26.8780   68.3760   -1.5490 C.3   252  TRP252      0.1605
     40  C         26.7900   67.0900   -2.3800 C.2   252  TRP252      0.2264
     41  O         25.8100   66.3550   -2.2990 O.2   252  TRP252     -0.2867
     42  CB        26.4600   69.6020   -2.4090 C.3   252  TRP252      0.0550
     43  CG        25.0290   69.4770   -2.9140 C.ar  252  TRP252      0.0003
     44  CD1       24.6200   69.2190   -4.2200 C.ar  252  TRP252      0.0946
     45  CD2       23.8230   69.5580   -2.1190 C.ar  252  TRP252      0.0152
     46  NE1       23.2230   69.1630   -4.2640 N.ar  252  TRP252     -0.2442
     47  CE2       22.7200   69.3720   -2.9990 C.ar  252  TRP252      0.0810
     48  CE3       23.5680   69.7880   -0.7380 C.ar  252  TRP252      0.0012
     49  CZ2       21.3800   69.3950   -2.5470 C.ar  252  TRP252      0.0191
     50  CZ3       22.2400   69.8070   -0.2920 C.ar  252  TRP252      0.0001
     51  CH2       21.1560   69.6080   -1.2070 C.ar  252  TRP252      0.0015
     52  N         31.9060   66.7140    6.2150 N.3   290  ASP290     -0.1239
     53  CA        30.8160   67.4510    5.6450 C.3   290  ASP290      0.1674
     54  C         29.6740   66.5950    5.0920 C.2   290  ASP290      0.2266
     55  O         29.5370   66.4340    3.9230 O.2   290  ASP290     -0.2867
     56  CB        31.3270   68.4250    4.6210 C.3   290  ASP290      0.1410
     57  CG        32.2310   69.4440    5.0950 C.2   290  ASP290      0.3668
     58  OD1       32.3100   69.6520    6.2990 O.co2 290  ASP290     -0.2456
     59  OD2       32.8960   70.0390    4.2850 O.co2 290  ASP290     -0.2456
     60  N         26.1370   65.9850    4.2130 N.3   292  GLU292     -0.1245
     61  CA        24.9390   66.7550    3.9180 C.3   292  GLU292      0.1567
     62  C         23.7550   65.8650    3.4970 C.2   292  GLU292      0.2260
     63  O         23.6360   65.5270    2.3090 O.2   292  GLU292     -0.2867
     64  CB        25.2550   67.7920    2.8210 C.3   292  GLU292      0.0388
     65  CG        26.4450   68.6510    3.2890 C.3   292  GLU292      0.1160
     66  CD        26.8770   69.8010    2.3660 C.2   292  GLU292      0.3649
     67  OE1       26.1400   70.1980    1.4270 O.co2 292  GLU292     -0.2457
     68  OE2       28.0120   70.3010    2.6220 O.co2 292  GLU292     -0.2457
     69  N         31.1780   70.5370    8.8920 N.3   339  ALA339     -0.1245
     70  CA        30.3020   71.5900    8.3570 C.3   339  ALA339      0.1562
     71  C         28.8710   71.0340    8.4420 C.2   339  ALA339      0.2260
     72  O         28.6170   69.8840    8.0010 O.2   339  ALA339     -0.2867
     73  CB        30.6400   71.8590    6.8860 C.3   339  ALA339      0.0290
     74  N         26.8480   76.1510    8.6310 N.3   365  MET365     -0.1245
     75  CA        26.6730   76.6180    7.2540 C.3   365  MET365      0.1570
     76  C         25.5370   77.6400    7.1180 C.2   365  MET365      0.2261
     77  O         24.5090   77.3610    6.4540 O.2   365  MET365     -0.2867
     78  CB        26.4990   75.4260    6.2830 C.3   365  MET365      0.0387
     79  CG        27.7810   74.5740    6.2210 C.3   365  MET365      0.0595
     80  SD        27.7730   73.4490    4.8300 S.3   365  MET365     -0.1393
     81  CE        26.6100   72.2550    5.4380 C.3   365  MET365      0.0692
     82  N         24.3070   79.9840    5.4250 N.3   367  TYR367     -0.1227
     83  CA        24.1740   80.5340    4.0680 C.3   367  TYR367      0.1736
     84  C         23.3030   79.5650    3.2850 C.2   367  TYR367      0.2595
     85  O         22.9060   78.5530    3.8530 O.2   367  TYR367     -0.2718
     86  CB        25.5290   80.7600    3.3880 C.3   367  TYR367      0.0548
     87  CG        26.6240   79.7160    3.6360 C.ar  367  TYR367     -0.0200
     88  CD1       26.5860   78.4780    2.9920 C.ar  367  TYR367     -0.0009
     89  CD2       27.7060   79.9960    4.4610 C.ar  367  TYR367     -0.0009
     90  CE1       27.5860   77.5260    3.1910 C.ar  367  TYR367      0.0417
     91  CE2       28.7500   79.0420    4.6720 C.ar  367  TYR367      0.0417
     92  CZ        28.6650   77.8060    4.0220 C.ar  367  TYR367      0.1957
     93  OH        29.6230   76.8210    4.1690 O.3   367  TYR367     -0.2866
     94  N         22.9990   79.8710    2.0180 N.am  368  ASP368     -0.1974
     95  CA        22.0660   79.0790    1.1830 C.3   368  ASP368      0.1709
     96  C         20.6820   78.9730    1.8360 C.2   368  ASP368      0.2293
     97  O         19.9660   77.9850    1.6140 O.2   368  ASP368     -0.2864
     98  CB        22.5960   77.6510    0.8690 C.3   368  ASP368      0.1436
     99  CG        23.9720   77.6470    0.2020 C.2   368  ASP368      0.3671
    100  OD1       24.3660   78.6490   -0.4740 O.co2 368  ASP368     -0.2456
    101  OD2       24.7050   76.6420    0.3700 O.co2 368  ASP368     -0.2456
    102  N         29.8960   84.5760   -2.0840 N.3   421  TYR421     -0.1241
    103  CA        29.1220   84.4510   -3.3120 C.3   421  TYR421      0.1605
    104  C         27.7280   84.9470   -2.9780 C.2   421  TYR421      0.2264
    105  O         27.3210   85.0200   -1.8080 O.2   421  TYR421     -0.2867
    106  CB        29.0800   82.9600   -3.8180 C.3   421  TYR421      0.0534
    107  CG        28.3660   82.0290   -2.8200 C.ar  421  TYR421     -0.0201
    108  CD1       29.0590   81.5020   -1.7220 C.ar  421  TYR421     -0.0009
    109  CD2       27.0120   81.7090   -2.9540 C.ar  421  TYR421     -0.0009
    110  CE1       28.4080   80.6860   -0.7770 C.ar  421  TYR421      0.0417
    111  CE2       26.3460   80.8770   -2.0120 C.ar  421  TYR421      0.0417
    112  CZ        27.0820   80.3730   -0.9220 C.ar  421  TYR421      0.1957
    113  OH        26.5090   79.5810    0.0460 O.3   421  TYR421     -0.2866
    114  N         23.4400   84.4790   -4.0520 N.3   423  ARG423     -0.1245
    115  CA        22.4700   83.6900   -4.8020 C.3   423  ARG423      0.1563
    116  C         21.4710   84.6520   -5.3920 C.2   423  ARG423      0.2260
    117  O         21.2310   85.7060   -4.8200 O.2   423  ARG423     -0.2867
    118  CB        21.7820   82.6380   -3.9040 C.3   423  ARG423      0.0307
    119  CG        22.7570   81.5200   -3.4840 C.3   423  ARG423      0.0489
    120  CD        22.0020   80.3190   -2.8220 C.3   423  ARG423      0.2205
    121  NE        22.9050   79.1720   -2.6440 N.pl3 423  ARG423     -0.0865
    122  CZ        23.0770   78.2290   -3.5560 C.cat 423  ARG423      0.5346
    123  NH1       22.3920   78.2920   -4.6970 N.pl3 423  ARG423      0.1354
    124  NH2       23.9190   77.2320   -3.3370 N.pl3 423  ARG423      0.1354
    125  N         32.7450   80.0680    2.4920 N.3   516  TRP516     -0.1241
    126  CA        32.7520   79.2910    1.2330 C.3   516  TRP516      0.1605
    127  C         32.5930   80.3190    0.0910 C.2   516  TRP516      0.2264
    128  O         31.6490   81.1320    0.1440 O.2   516  TRP516     -0.2867
    129  CB        31.5420   78.3240    1.2220 C.3   516  TRP516      0.0550
    130  CG        31.4200   77.6160   -0.0720 C.ar  516  TRP516      0.0003
    131  CD1       30.8120   78.0720   -1.2210 C.ar  516  TRP516      0.0946
    132  CD2       31.9710   76.3200   -0.3840 C.ar  516  TRP516      0.0152
    133  NE1       30.9890   77.1310   -2.2440 N.ar  516  TRP516     -0.2442
    134  CE2       31.6690   76.0420   -1.7370 C.ar  516  TRP516      0.0810
    135  CE3       32.6860   75.3640    0.3590 C.ar  516  TRP516      0.0012
    136  CZ2       32.0790   74.8320   -2.3760 C.ar  516  TRP516      0.0191
    137  CZ3       33.1110   74.1580   -0.2870 C.ar  516  TRP516      0.0001
    138  CH2       32.7820   73.9140   -1.6400 C.ar  516  TRP516      0.0015
@<TRIPOS>BOND
     1    16    15    2
     2    15    14    1
     3    17    14    1
     4    17    18    1
     5    14    13    1
     6    19    18   ar
     7    19    21   ar
     8    18    20   ar
     9    21    22   ar
    10    20    22   ar
    11    20    23   ar
    12    22    24   ar
    13    23    25   ar
    14    24    26   ar
    15   116   117    2
    16   116   115    1
    17    25    26   ar
    18   115   114    1
    19   115   118    1
    20   123   122    1
    21    46    44   ar
    22    46    47   ar
    23    44    43   ar
    24   118   119    1
    25   106   103    1
    26   106   107    1
    27   122   124    1
    28   122   121    2
    29   119   120    1
    30   103   104    1
    31   103   102    1
    32    47    49   ar
    33    47    45   ar
    34   104   105    2
    35   109   107   ar
    36   109   111   ar
    37    43    42    1
    38    43    45   ar
    39   120   121    1
    40   107   108   ar
    41    30    29    2
    42    49    51   ar
    43    42    39    1
    44    40    41    2
    45    40    39    1
    46   136   134   ar
    47   136   138   ar
    48    27    28    1
    49   133   134   ar
    50   133   131   ar
    51    45    48   ar
    52   111   112   ar
    53    34    36   ar
    54    34    32   ar
    55   134   132   ar
    56   108   110   ar
    57   138   137   ar
    58    39    38    1
    59    29    28    1
    60    31    28    1
    61    31    32    1
    62    36    37   ar
    63   131   130   ar
    64    51    50   ar
    65   112   110   ar
    66   112   113    1
    67    32    33   ar
    68    48    50   ar
    69   100    99   ar
    70   132   130   ar
    71   132   135   ar
    72   137   135   ar
    73     4     3    2
    74   130   129    1
    75    37    35   ar
    76   127   128    2
    77   127   126    1
    78    99   101   ar
    79    99    98    1
    80     3     2    1
    81    33    35   ar
    82    98    95    1
    83    95    96    1
    84    95    94    1
    85   129   126    1
    86   126   125    1
    87    67    66   ar
    88     5     2    1
    89     5     6    1
    90    97    96    2
    91     2     1    1
    92    94    84   am
    93    63    62    2
    94    66    68   ar
    95    66    65    1
    96     6     8   ar
    97     6     7   ar
    98     8    10   ar
    99    64    65    1
   100    64    61    1
   101    88    90   ar
   102    88    87   ar
   103    90    92   ar
   104    84    85    2
   105    84    83    1
   106    86    87    1
   107    86    83    1
   108    62    61    1
   109    10    11   ar
   110     7     9   ar
   111    87    89   ar
   112    61    60    1
   113    55    54    2
   114    92    93    1
   115    92    91   ar
   116    83    82    1
   117    59    57   ar
   118    89    91   ar
   119    11     9   ar
   120    11    12    1
   121    56    57    1
   122    56    53    1
   123    80    81    1
   124    80    79    1
   125    54    53    1
   126    57    58   ar
   127    53    52    1
   128    79    78    1
   129    78    75    1
   130    77    76    2
   131    73    70    1
   132    76    75    1
   133    75    74    1
   134    72    71    2
   135    70    71    1
   136    70    69    1
