@<TRIPOS>MOLECULE
tmp/2wk2A00.pdb
 106 103 0 0 0
SMALL
GASTEIGER

@<TRIPOS>ATOM
      1  N         38.6810   71.6360   -7.7570 N.3   144  TRP144     -0.1241
      2  CA        38.3760   71.8580   -9.1890 C.3   144  TRP144      0.1605
      3  C         38.5240   73.3600   -9.5890 C.2   144  TRP144      0.2264
      4  O         38.4100   73.6740  -10.7630 O.2   144  TRP144     -0.2867
      5  CB        36.9360   71.4140   -9.5190 C.3   144  TRP144      0.0550
      6  CG        35.8960   72.0620   -8.6580 C.ar  144  TRP144      0.0003
      7  CD1       35.1700   73.1720   -8.9570 C.ar  144  TRP144      0.0946
      8  CD2       35.4430   71.6310   -7.3430 C.ar  144  TRP144      0.0152
      9  NE1       34.2860   73.4510   -7.9440 N.ar  144  TRP144     -0.2442
     10  CE2       34.4380   72.5390   -6.9350 C.ar  144  TRP144      0.0810
     11  CE3       35.7890   70.5490   -6.4770 C.ar  144  TRP144      0.0012
     12  CZ2       33.7600   72.4240   -5.6890 C.ar  144  TRP144      0.0191
     13  CZ3       35.1420   70.4390   -5.2470 C.ar  144  TRP144      0.0001
     14  CH2       34.1350   71.3940   -4.8520 C.ar  144  TRP144      0.0015
     15  N         38.1480   78.4230  -12.9830 N.3   149  ARG149     -0.1245
     16  CA        38.2330   79.5170  -12.0520 C.3   149  ARG149      0.1563
     17  C         39.6930   79.9720  -11.9430 C.2   149  ARG149      0.2260
     18  O         39.9470   81.0240  -11.3980 O.2   149  ARG149     -0.2867
     19  CB        37.7050   79.0870  -10.6920 C.3   149  ARG149      0.0307
     20  CG        36.2040   78.9330  -10.6220 C.3   149  ARG149      0.0489
     21  CD        35.8610   78.1470   -9.3630 C.3   149  ARG149      0.2205
     22  NE        34.4630   78.2970   -9.0000 N.pl3 149  ARG149     -0.0865
     23  CZ        33.4830   77.5240   -9.4530 C.cat 149  ARG149      0.5346
     24  NH1       33.7330   76.5200  -10.2840 N.pl3 149  ARG149      0.1354
     25  NH2       32.2410   77.7620   -9.0680 N.pl3 149  ARG149      0.1354
     26  N         37.0570   68.6540   -2.2840 N.3   168  PHE168     -0.1241
     27  CA        36.5760   67.7310   -1.2650 C.3   168  PHE168      0.1605
     28  C         37.2370   66.4120   -1.5180 C.2   168  PHE168      0.2264
     29  O         37.5580   66.0760   -2.6570 O.2   168  PHE168     -0.2867
     30  CB        35.0190   67.4540   -1.3530 C.3   168  PHE168      0.0534
     31  CG        34.1670   68.5830   -0.8750 C.ar  168  PHE168     -0.0203
     32  CD1       34.0330   68.8540    0.4800 C.ar  168  PHE168     -0.0042
     33  CD2       33.4690   69.3660   -1.7830 C.ar  168  PHE168     -0.0042
     34  CE1       33.2260   69.9340    0.9310 C.ar  168  PHE168     -0.0003
     35  CE2       32.6560   70.4280   -1.3510 C.ar  168  PHE168     -0.0003
     36  CZ        32.5140   70.6920    0.0240 C.ar  168  PHE168     -0.0000
     37  N         26.8580   61.9820   -7.6980 N.3   181  LEU181     -0.1245
     38  CA        27.8990   62.4090   -8.6470 C.3   181  LEU181      0.1561
     39  C         27.4600   62.3640  -10.1030 C.2   181  LEU181      0.2260
     40  O         27.9980   63.1100  -10.9500 O.2   181  LEU181     -0.2867
     41  CB        29.1470   61.5390   -8.5380 C.3   181  LEU181      0.0270
     42  CG        29.9680   61.8210   -7.2800 C.3   181  LEU181      0.0019
     43  CD1       31.2560   60.9640   -7.3700 C.3   181  LEU181      0.0001
     44  CD2       30.2720   63.3190   -7.2910 C.3   181  LEU181      0.0001
     45  N         26.7100   65.2620  -12.3170 N.3   184  ILE184     -0.1245
     46  CA        27.8180   66.0740  -12.7900 C.3   184  ILE184      0.1561
     47  C         28.6000   65.3160  -13.8540 C.2   184  ILE184      0.2260
     48  O         29.1250   64.2180  -13.6140 O.2   184  ILE184     -0.2867
     49  CB        28.7450   66.4850  -11.6290 C.3   184  ILE184      0.0252
     50  CG1       27.9680   67.3340  -10.6360 C.3   184  ILE184      0.0019
     51  CG2       29.8570   67.3580  -12.1350 C.3   184  ILE184      0.0019
     52  CD1       27.2790   66.5330   -9.5550 C.3   184  ILE184      0.0001
     53  N         31.8870   63.0430  -13.5010 N.3   187  SER187     -0.1217
     54  CA        32.3690   63.0920  -12.1030 C.3   187  SER187      0.1889
     55  C         32.2880   61.6830  -11.4590 C.2   187  SER187      0.2288
     56  O         33.2010   61.2520  -10.7680 O.2   187  SER187     -0.2866
     57  CB        31.5150   64.0610  -11.2930 C.3   187  SER187      0.2089
     58  OG        32.0790   64.1950  -10.0040 O.3   187  SER187     -0.2183
     59  N         39.5220   62.6610   -5.6880 N.3   206  HIS206     -0.1241
     60  CA        38.5690   62.7230   -6.7820 C.3   206  HIS206      0.1621
     61  C         39.2470   63.0520   -8.1480 C.2   206  HIS206      0.2264
     62  O         38.9730   62.3970   -9.1550 O.2   206  HIS206     -0.2867
     63  CB        37.5190   63.7650   -6.4770 C.3   206  HIS206      0.0745
     64  CG        36.2480   63.5650   -7.2400 C.ar  206  HIS206      0.0817
     65  ND1       35.1370   64.3530   -7.0490 N.ar  206  HIS206     -0.2268
     66  CD2       35.9090   62.6680   -8.1930 C.ar  206  HIS206      0.1154
     67  CE1       34.1710   63.9620   -7.8550 C.ar  206  HIS206      0.1986
     68  NE2       34.6160   62.9370   -8.5580 N.ar  206  HIS206     -0.2212
     69  N         27.8010   66.8050   -3.1760 N.3   253  THR253     -0.1203
     70  CA        27.7240   65.6790   -4.1230 C.3   253  THR253      0.1994
     71  C         28.4450   64.4020   -3.6900 C.2   253  THR253      0.2617
     72  O         28.3280   63.3700   -4.3570 O.2   253  THR253     -0.2717
     73  CB        28.3220   66.0710   -5.4610 C.3   253  THR253      0.1784
     74  OG1       29.7020   66.3600   -5.2510 O.3   253  THR253     -0.2211
     75  CG2       27.5910   67.3310   -6.0680 C.3   253  THR253      0.0376
     76  N         29.2070   64.4560   -2.5910 N.am  254  LEU254     -0.1979
     77  CA        29.9820   63.3130   -2.1560 C.3   254  LEU254      0.1596
     78  C         29.5510   62.8140   -0.7740 C.2   254  LEU254      0.2287
     79  O         30.2930   62.0720   -0.1140 O.2   254  LEU254     -0.2864
     80  CB        31.4600   63.7020   -2.1520 C.3   254  LEU254      0.0297
     81  CG        32.0910   63.8140   -3.5610 C.3   254  LEU254      0.0022
     82  CD1       33.4910   64.5600   -3.5120 C.3   254  LEU254      0.0001
     83  CD2       32.2600   62.3860   -4.1010 C.3   254  LEU254      0.0001
     84  N         29.5670   81.0050  -12.8620 N.3   449  TRP449     -0.1227
     85  CA        29.9560   79.6940  -13.3420 C.3   449  TRP449      0.1737
     86  C         28.7080   78.8080  -13.5070 C.2   449  TRP449      0.2595
     87  O         28.6460   77.9690  -14.3910 O.2   449  TRP449     -0.2718
     88  CB        30.9620   79.0480  -12.3810 C.3   449  TRP449      0.0564
     89  CG        32.0620   79.9820  -11.9510 C.ar  449  TRP449      0.0003
     90  CD1       32.1720   80.6280  -10.7390 C.ar  449  TRP449      0.0946
     91  CD2       33.1880   80.3970  -12.7330 C.ar  449  TRP449      0.0152
     92  NE1       33.3060   81.4020  -10.7250 N.ar  449  TRP449     -0.2442
     93  CE2       33.9520   81.2770  -11.9290 C.ar  449  TRP449      0.0810
     94  CE3       33.6410   80.0940  -14.0310 C.ar  449  TRP449      0.0012
     95  CZ2       35.1350   81.8890  -12.3920 C.ar  449  TRP449      0.0191
     96  CZ3       34.8260   80.6910  -14.4850 C.ar  449  TRP449      0.0001
     97  CH2       35.5580   81.5830  -13.6550 C.ar  449  TRP449      0.0015
     98  N         27.7100   78.9890  -12.6560 N.am  450  GLU450     -0.1979
     99  CA        26.4780   78.2430  -12.7790 C.3   450  GLU450      0.1602
    100  C         25.3260   79.1390  -12.3940 C.2   450  GLU450      0.2287
    101  O         25.4430   80.0110  -11.5210 O.2   450  GLU450     -0.2864
    102  CB        26.5120   76.9620  -11.9260 C.3   450  GLU450      0.0415
    103  CG        26.5630   77.1740  -10.4090 C.3   450  GLU450      0.1163
    104  CD        26.8680   75.8740   -9.6090 C.2   450  GLU450      0.3649
    105  OE1       25.9080   75.0630   -9.3900 O.co2 450  GLU450     -0.2457
    106  OE2       28.0590   75.6830   -9.1900 O.co2 450  GLU450     -0.2457
@<TRIPOS>BOND
     1    96    94   ar
     2    96    97   ar
     3    87    86    2
     4    94    91   ar
     5    47    48    2
     6    47    46    1
     7    97    95   ar
     8    86    85    1
     9    86    98   am
    10    53    54    1
    11    85    84    1
    12    85    88    1
    13    15    16    1
    14    46    45    1
    15    46    49    1
    16    99    98    1
    17    99   100    1
    18    99   102    1
    19    91    89   ar
    20    91    93   ar
    21   100   101    2
    22    95    93   ar
    23    88    89    1
    24    51    49    1
    25    54    55    1
    26    54    57    1
    27    16    17    1
    28    16    19    1
    29    89    90   ar
    30    17    18    2
    31    93    92   ar
    32   102   103    1
    33    49    50    1
    34    55    56    2
    35    57    58    1
    36    40    39    2
    37     4     3    2
    38    90    92   ar
    39    19    20    1
    40    50    52    1
    41    20    21    1
    42   103   104    1
    43    24    23    1
    44    39    38    1
    45   104   105   ar
    46   104   106   ar
    47     3     2    1
    48     5     2    1
    49     5     6    1
    50    23    25    1
    51    23    22    2
    52    21    22    1
    53     2     1    1
    54    62    61    2
    55     7     6   ar
    56     7     9   ar
    57     6     8   ar
    58    38    41    1
    59    38    37    1
    60    68    66   ar
    61    68    67   ar
    62    41    42    1
    63    66    64   ar
    64    61    60    1
    65     9    10   ar
    66    67    65   ar
    67    43    42    1
    68     8    10   ar
    69     8    11   ar
    70    44    42    1
    71    64    65   ar
    72    64    63    1
    73    10    12   ar
    74    60    63    1
    75    60    59    1
    76    11    13   ar
    77    75    73    1
    78    12    14   ar
    79    73    74    1
    80    73    70    1
    81    13    14   ar
    82    72    71    2
    83    70    71    1
    84    70    69    1
    85    83    81    1
    86    71    76   am
    87    81    82    1
    88    81    80    1
    89    29    28    2
    90    76    77    1
    91    26    27    1
    92    77    80    1
    93    77    78    1
    94    33    35   ar
    95    33    31   ar
    96    28    27    1
    97    30    27    1
    98    30    31    1
    99    35    36   ar
   100    31    32   ar
   101    78    79    2
   102    36    34   ar
   103    32    34   ar
