@<TRIPOS>MOLECULE
tmp/2wk2A04.pdb
 126 123 0 0 0
SMALL
GASTEIGER

@<TRIPOS>ATOM
      1  N         28.1610   68.6220   -0.9140 N.3   252  TRP252     -0.1241
      2  CA        26.8780   68.3760   -1.5490 C.3   252  TRP252      0.1605
      3  C         26.7900   67.0900   -2.3800 C.2   252  TRP252      0.2264
      4  O         25.8100   66.3550   -2.2990 O.2   252  TRP252     -0.2867
      5  CB        26.4600   69.6020   -2.4090 C.3   252  TRP252      0.0550
      6  CG        25.0290   69.4770   -2.9140 C.ar  252  TRP252      0.0003
      7  CD1       24.6200   69.2190   -4.2200 C.ar  252  TRP252      0.0946
      8  CD2       23.8230   69.5580   -2.1190 C.ar  252  TRP252      0.0152
      9  NE1       23.2230   69.1630   -4.2640 N.ar  252  TRP252     -0.2442
     10  CE2       22.7200   69.3720   -2.9990 C.ar  252  TRP252      0.0810
     11  CE3       23.5680   69.7880   -0.7380 C.ar  252  TRP252      0.0012
     12  CZ2       21.3800   69.3950   -2.5470 C.ar  252  TRP252      0.0191
     13  CZ3       22.2400   69.8070   -0.2920 C.ar  252  TRP252      0.0001
     14  CH2       21.1560   69.6080   -1.2070 C.ar  252  TRP252      0.0015
     15  N         22.8770   65.4800    4.4190 N.3   293  PHE293     -0.1241
     16  CA        22.8410   65.8360    5.8320 C.3   293  PHE293      0.1605
     17  C         22.3230   64.5980    6.5540 C.2   293  PHE293      0.2264
     18  O         21.5690   63.8330    5.9820 O.2   293  PHE293     -0.2867
     19  CB        21.8010   66.9600    6.0960 C.3   293  PHE293      0.0534
     20  CG        22.0090   68.1590    5.2590 C.ar  293  PHE293     -0.0203
     21  CD1       23.0210   69.0830    5.5750 C.ar  293  PHE293     -0.0042
     22  CD2       21.2430   68.3550    4.1140 C.ar  293  PHE293     -0.0042
     23  CE1       23.2240   70.2080    4.7750 C.ar  293  PHE293     -0.0003
     24  CE2       21.4350   69.5130    3.3170 C.ar  293  PHE293     -0.0003
     25  CZ        22.4440   70.4000    3.6320 C.ar  293  PHE293     -0.0000
     26  N         17.4950   65.0060    2.8350 N.3   297  LYS297     -0.1245
     27  CA        17.3140   66.3530    2.2560 C.3   297  LYS297      0.1561
     28  C         18.5930   66.9370    1.7050 C.2   297  LYS297      0.2260
     29  O         18.6440   68.1420    1.4760 O.2   297  LYS297     -0.2867
     30  CB        16.6530   67.3420    3.2350 C.3   297  LYS297      0.0271
     31  CG        15.2770   66.7940    3.6690 C.3   297  LYS297      0.0035
     32  CD        14.3710   67.8400    4.2880 C.3   297  LYS297      0.0206
     33  CE        12.8980   67.4810    3.9870 C.3   297  LYS297      0.1093
     34  NZ        11.9200   68.3620    4.7190 N.3   297  LYS297     -0.1314
     35  N         24.3000   71.7240    8.4770 N.3   341  SER341     -0.1217
     36  CA        23.1970   72.6030    8.1480 C.3   341  SER341      0.1889
     37  C         22.9530   73.6120    9.3130 C.2   341  SER341      0.2288
     38  O         23.0450   73.2560   10.5000 O.2   341  SER341     -0.2866
     39  CB        21.9280   71.7930    7.8960 C.3   341  SER341      0.2089
     40  OG        20.8390   72.6510    7.6680 O.3   341  SER341     -0.2183
     41  N         19.9460   74.9990    9.4030 N.3   343  GLY343     -0.1225
     42  CA        18.4820   74.9470    9.5620 C.3   343  GLY343      0.1811
     43  C         18.1270   74.1540   10.8280 C.2   343  GLY343      0.2280
     44  O         18.6470   73.0400   11.0320 O.2   343  GLY343     -0.2866
     45  N         15.5520   72.5040   11.5790 N.3   345  ASP345     -0.1225
     46  CA        14.9270   71.2200   11.2880 C.3   345  ASP345      0.1805
     47  C         15.9980   70.1260   11.0280 C.2   345  ASP345      0.2597
     48  O         15.8210   68.9660   11.4300 O.2   345  ASP345     -0.2718
     49  CB        13.9310   71.3640   10.1170 C.3   345  ASP345      0.1424
     50  CG        14.5610   72.0140    8.8740 C.2   345  ASP345      0.3668
     51  OD1       15.5220   72.8130    8.9650 O.co2 345  ASP345     -0.2456
     52  OD2       14.1180   71.7070    7.7670 O.co2 345  ASP345     -0.2456
     53  N         17.1220   70.5020   10.4120 N.am  346  LYS346     -0.1979
     54  CA        18.2130   69.5560   10.2110 C.3   346  LYS346      0.1596
     55  C         19.0670   69.4200   11.4560 C.2   346  LYS346      0.2287
     56  O         19.5260   68.3140   11.7720 O.2   346  LYS346     -0.2864
     57  CB        19.0440   69.9230    8.9790 C.3   346  LYS346      0.0298
     58  CG        18.2110   69.8030    7.7140 C.3   346  LYS346      0.0038
     59  CD        18.9660   70.3050    6.5310 C.3   346  LYS346      0.0206
     60  CE        18.1710   70.1510    5.2350 C.3   346  LYS346      0.1093
     61  NZ        17.1890   71.2500    5.1190 N.3   346  LYS346     -0.1314
     62  N         24.3070   79.9840    5.4250 N.3   367  TYR367     -0.1227
     63  CA        24.1740   80.5340    4.0680 C.3   367  TYR367      0.1736
     64  C         23.3030   79.5650    3.2850 C.2   367  TYR367      0.2595
     65  O         22.9060   78.5530    3.8530 O.2   367  TYR367     -0.2718
     66  CB        25.5290   80.7600    3.3880 C.3   367  TYR367      0.0548
     67  CG        26.6240   79.7160    3.6360 C.ar  367  TYR367     -0.0200
     68  CD1       26.5860   78.4780    2.9920 C.ar  367  TYR367     -0.0009
     69  CD2       27.7060   79.9960    4.4610 C.ar  367  TYR367     -0.0009
     70  CE1       27.5860   77.5260    3.1910 C.ar  367  TYR367      0.0417
     71  CE2       28.7500   79.0420    4.6720 C.ar  367  TYR367      0.0417
     72  CZ        28.6650   77.8060    4.0220 C.ar  367  TYR367      0.1957
     73  OH        29.6230   76.8210    4.1690 O.3   367  TYR367     -0.2866
     74  N         22.9990   79.8710    2.0180 N.am  368  ASP368     -0.1960
     75  CA        22.0660   79.0790    1.1830 C.3   368  ASP368      0.1840
     76  C         20.6820   78.9730    1.8360 C.2   368  ASP368      0.2622
     77  O         19.9660   77.9850    1.6140 O.2   368  ASP368     -0.2715
     78  CB        22.5960   77.6510    0.8690 C.3   368  ASP368      0.1450
     79  CG        23.9720   77.6470    0.2020 C.2   368  ASP368      0.3671
     80  OD1       24.3660   78.6490   -0.4740 O.co2 368  ASP368     -0.2456
     81  OD2       24.7050   76.6420    0.3700 O.co2 368  ASP368     -0.2456
     82  N         20.2900   79.9730    2.6360 N.am  369  PHE369     -0.1974
     83  CA        18.9570   79.9710    3.2680 C.3   369  PHE369      0.1639
     84  C         17.8500   80.1100    2.2150 C.2   369  PHE369      0.2290
     85  O         16.7340   79.6830    2.4430 O.2   369  PHE369     -0.2864
     86  CB        18.8030   81.1410    4.2520 C.3   369  PHE369      0.0560
     87  CG        19.6810   81.0550    5.4750 C.ar  369  PHE369     -0.0200
     88  CD1       19.9290   79.8260    6.1120 C.ar  369  PHE369     -0.0042
     89  CD2       20.2100   82.2190    6.0240 C.ar  369  PHE369     -0.0042
     90  CE1       20.7130   79.7490    7.2510 C.ar  369  PHE369     -0.0003
     91  CE2       21.0230   82.1620    7.1720 C.ar  369  PHE369     -0.0003
     92  CZ        21.2860   80.9210    7.7850 C.ar  369  PHE369     -0.0000
     93  N         16.6410   77.7990   -6.2060 N.3   373  PHE373     -0.1241
     94  CA        16.0680   76.4500   -6.0470 C.3   373  PHE373      0.1605
     95  C         14.6400   76.5710   -5.5300 C.2   373  PHE373      0.2264
     96  O         13.8970   75.5870   -5.4820 O.2   373  PHE373     -0.2867
     97  CB        16.9240   75.6140   -5.0580 C.3   373  PHE373      0.0534
     98  CG        17.2800   76.3520   -3.7500 C.ar  373  PHE373     -0.0203
     99  CD1       16.3470   76.4630   -2.7150 C.ar  373  PHE373     -0.0042
    100  CD2       18.5620   76.9350   -3.5740 C.ar  373  PHE373     -0.0042
    101  CE1       16.6560   77.0960   -1.5310 C.ar  373  PHE373     -0.0003
    102  CE2       18.8880   77.5900   -2.3790 C.ar  373  PHE373     -0.0003
    103  CZ        17.9140   77.6700   -1.3530 C.ar  373  PHE373     -0.0000
    104  N         14.8380   80.4890    8.4390 N.3   395  TYR395     -0.1241
    105  CA        16.2660   80.3510    8.1520 C.3   395  TYR395      0.1605
    106  C         17.0430   81.6470    8.2500 C.2   395  TYR395      0.2264
    107  O         17.0950   82.4260    7.2900 O.2   395  TYR395     -0.2867
    108  CB        16.4990   79.6860    6.7900 C.3   395  TYR395      0.0534
    109  CG        15.7790   78.3670    6.6890 C.ar  395  TYR395     -0.0201
    110  CD1       15.9540   77.3890    7.6720 C.ar  395  TYR395     -0.0009
    111  CD2       14.8790   78.1170    5.6360 C.ar  395  TYR395     -0.0009
    112  CE1       15.2870   76.1650    7.6020 C.ar  395  TYR395      0.0417
    113  CE2       14.1740   76.8880    5.5460 C.ar  395  TYR395      0.0417
    114  CZ        14.3960   75.9140    6.5430 C.ar  395  TYR395      0.1957
    115  OH        13.7410   74.6950    6.4870 O.3   395  TYR395     -0.2866
    116  N         23.4400   84.4790   -4.0520 N.3   423  ARG423     -0.1245
    117  CA        22.4700   83.6900   -4.8020 C.3   423  ARG423      0.1563
    118  C         21.4710   84.6520   -5.3920 C.2   423  ARG423      0.2260
    119  O         21.2310   85.7060   -4.8200 O.2   423  ARG423     -0.2867
    120  CB        21.7820   82.6380   -3.9040 C.3   423  ARG423      0.0307
    121  CG        22.7570   81.5200   -3.4840 C.3   423  ARG423      0.0489
    122  CD        22.0020   80.3190   -2.8220 C.3   423  ARG423      0.2205
    123  NE        22.9050   79.1720   -2.6440 N.pl3 423  ARG423     -0.0865
    124  CZ        23.0770   78.2290   -3.5560 C.cat 423  ARG423      0.5346
    125  NH1       22.3920   78.2920   -4.6970 N.pl3 423  ARG423      0.1354
    126  NH2       23.9190   77.2320   -3.3370 N.pl3 423  ARG423      0.1354
@<TRIPOS>BOND
     1    93    94    1
     2    94    95    1
     3    94    97    1
     4    95    96    2
     5   118   119    2
     6   118   117    1
     7    97    98    1
     8   117   116    1
     9   117   120    1
    10   125   124    1
    11     9     7   ar
    12     9    10   ar
    13     7     6   ar
    14   120   121    1
    15    98   100   ar
    16    98    99   ar
    17   100   102   ar
    18   124   126    1
    19   124   123    2
    20   121   122    1
    21    10    12   ar
    22    10     8   ar
    23     6     5    1
    24     6     8   ar
    25   122   123    1
    26    99   101   ar
    27    12    14   ar
    28     5     2    1
    29     3     4    2
    30     3     2    1
    31   102   103   ar
    32     8    11   ar
    33     2     1    1
    34   101   103   ar
    35    14    13   ar
    36    11    13   ar
    37    80    79   ar
    38    79    81   ar
    39    79    78    1
    40    78    75    1
    41    75    76    1
    42    75    74    1
    43    29    28    2
    44    77    76    2
    45    28    27    1
    46    76    82   am
    47    74    64   am
    48    84    85    2
    49    84    83    1
    50    27    26    1
    51    27    30    1
    52    82    83    1
    53    68    70   ar
    54    68    67   ar
    55    70    72   ar
    56    30    31    1
    57    83    86    1
    58    64    65    2
    59    64    63    1
    60    24    25   ar
    61    24    22   ar
    62    66    67    1
    63    66    63    1
    64    25    23   ar
    65    67    69   ar
    66    31    32    1
    67    33    32    1
    68    33    34    1
    69    72    73    1
    70    72    71   ar
    71    63    62    1
    72    22    20   ar
    73    86    87    1
    74    15    16    1
    75    69    71   ar
    76    23    21   ar
    77    61    60    1
    78    60    59    1
    79    20    21   ar
    80    20    19    1
    81    87    89   ar
    82    87    88   ar
    83   113   111   ar
    84   113   114   ar
    85   111   109   ar
    86    16    19    1
    87    16    17    1
    88    18    17    2
    89    89    91   ar
    90    88    90   ar
    91   115   114    1
    92    59    58    1
    93   114   112   ar
    94   109   108    1
    95   109   110   ar
    96   108   105    1
    97    91    92   ar
    98    90    92   ar
    99   107   106    2
   100   112   110   ar
   101    40    39    1
   102    58    57    1
   103    52    50   ar
   104    39    36    1
   105    36    35    1
   106    36    37    1
   107   105   106    1
   108   105   104    1
   109    50    51   ar
   110    50    49    1
   111    57    54    1
   112    37    38    2
   113    41    42    1
   114    42    43    1
   115    49    46    1
   116    54    53    1
   117    54    55    1
   118    53    47   am
   119    43    44    2
   120    47    46    1
   121    47    48    2
   122    46    45    1
   123    55    56    2
