@<TRIPOS>MOLECULE
tmp/2wk2A01.pdb
 136 134 0 0 0
SMALL
GASTEIGER

@<TRIPOS>ATOM
      1  N         38.6810   71.6360   -7.7570 N.3   144  TRP144     -0.1241
      2  CA        38.3760   71.8580   -9.1890 C.3   144  TRP144      0.1605
      3  C         38.5240   73.3600   -9.5890 C.2   144  TRP144      0.2264
      4  O         38.4100   73.6740  -10.7630 O.2   144  TRP144     -0.2867
      5  CB        36.9360   71.4140   -9.5190 C.3   144  TRP144      0.0550
      6  CG        35.8960   72.0620   -8.6580 C.ar  144  TRP144      0.0003
      7  CD1       35.1700   73.1720   -8.9570 C.ar  144  TRP144      0.0946
      8  CD2       35.4430   71.6310   -7.3430 C.ar  144  TRP144      0.0152
      9  NE1       34.2860   73.4510   -7.9440 N.ar  144  TRP144     -0.2442
     10  CE2       34.4380   72.5390   -6.9350 C.ar  144  TRP144      0.0810
     11  CE3       35.7890   70.5490   -6.4770 C.ar  144  TRP144      0.0012
     12  CZ2       33.7600   72.4240   -5.6890 C.ar  144  TRP144      0.0191
     13  CZ3       35.1420   70.4390   -5.2470 C.ar  144  TRP144      0.0001
     14  CH2       34.1350   71.3940   -4.8520 C.ar  144  TRP144      0.0015
     15  N         38.1480   78.4230  -12.9830 N.3   149  ARG149     -0.1245
     16  CA        38.2330   79.5170  -12.0520 C.3   149  ARG149      0.1563
     17  C         39.6930   79.9720  -11.9430 C.2   149  ARG149      0.2260
     18  O         39.9470   81.0240  -11.3980 O.2   149  ARG149     -0.2867
     19  CB        37.7050   79.0870  -10.6920 C.3   149  ARG149      0.0307
     20  CG        36.2040   78.9330  -10.6220 C.3   149  ARG149      0.0489
     21  CD        35.8610   78.1470   -9.3630 C.3   149  ARG149      0.2205
     22  NE        34.4630   78.2970   -9.0000 N.pl3 149  ARG149     -0.0865
     23  CZ        33.4830   77.5240   -9.4530 C.cat 149  ARG149      0.5346
     24  NH1       33.7330   76.5200  -10.2840 N.pl3 149  ARG149      0.1354
     25  NH2       32.2410   77.7620   -9.0680 N.pl3 149  ARG149      0.1354
     26  N         37.0570   68.6540   -2.2840 N.3   168  PHE168     -0.1241
     27  CA        36.5760   67.7310   -1.2650 C.3   168  PHE168      0.1605
     28  C         37.2370   66.4120   -1.5180 C.2   168  PHE168      0.2264
     29  O         37.5580   66.0760   -2.6570 O.2   168  PHE168     -0.2867
     30  CB        35.0190   67.4540   -1.3530 C.3   168  PHE168      0.0534
     31  CG        34.1670   68.5830   -0.8750 C.ar  168  PHE168     -0.0203
     32  CD1       34.0330   68.8540    0.4800 C.ar  168  PHE168     -0.0042
     33  CD2       33.4690   69.3660   -1.7830 C.ar  168  PHE168     -0.0042
     34  CE1       33.2260   69.9340    0.9310 C.ar  168  PHE168     -0.0003
     35  CE2       32.6560   70.4280   -1.3510 C.ar  168  PHE168     -0.0003
     36  CZ        32.5140   70.6920    0.0240 C.ar  168  PHE168     -0.0000
     37  N         26.7100   65.2620  -12.3170 N.3   184  ILE184     -0.1245
     38  CA        27.8180   66.0740  -12.7900 C.3   184  ILE184      0.1561
     39  C         28.6000   65.3160  -13.8540 C.2   184  ILE184      0.2260
     40  O         29.1250   64.2180  -13.6140 O.2   184  ILE184     -0.2867
     41  CB        28.7450   66.4850  -11.6290 C.3   184  ILE184      0.0252
     42  CG1       27.9680   67.3340  -10.6360 C.3   184  ILE184      0.0019
     43  CG2       29.8570   67.3580  -12.1350 C.3   184  ILE184      0.0019
     44  CD1       27.2790   66.5330   -9.5550 C.3   184  ILE184      0.0001
     45  N         33.1530   64.8920    1.8970 N.3   250  GLY250     -0.1210
     46  CA        31.7230   65.0110    1.6790 C.3   250  GLY250      0.1956
     47  C         31.4240   66.2230    0.8110 C.2   250  GLY250      0.2612
     48  O         31.9740   66.3550   -0.2840 O.2   250  GLY250     -0.2717
     49  N         30.5720   67.1110    1.3000 N.am  251  GLY251     -0.1942
     50  CA        30.0580   68.1090    0.4470 C.3   251  GLY251      0.2014
     51  C         28.7570   67.6840   -0.1850 C.2   251  GLY251      0.2639
     52  O         28.3210   66.5090   -0.0560 O.2   251  GLY251     -0.2714
     53  N         28.1610   68.6220   -0.9140 N.am  252  TRP252     -0.1959
     54  CA        26.8780   68.3760   -1.5490 C.3   252  TRP252      0.1771
     55  C         26.7900   67.0900   -2.3800 C.2   252  TRP252      0.2620
     56  O         25.8100   66.3550   -2.2990 O.2   252  TRP252     -0.2715
     57  CB        26.4600   69.6020   -2.4090 C.3   252  TRP252      0.0590
     58  CG        25.0290   69.4770   -2.9140 C.ar  252  TRP252      0.0006
     59  CD1       24.6200   69.2190   -4.2200 C.ar  252  TRP252      0.0946
     60  CD2       23.8230   69.5580   -2.1190 C.ar  252  TRP252      0.0152
     61  NE1       23.2230   69.1630   -4.2640 N.ar  252  TRP252     -0.2442
     62  CE2       22.7200   69.3720   -2.9990 C.ar  252  TRP252      0.0810
     63  CE3       23.5680   69.7880   -0.7380 C.ar  252  TRP252      0.0012
     64  CZ2       21.3800   69.3950   -2.5470 C.ar  252  TRP252      0.0191
     65  CZ3       22.2400   69.8070   -0.2920 C.ar  252  TRP252      0.0001
     66  CH2       21.1560   69.6080   -1.2070 C.ar  252  TRP252      0.0015
     67  N         27.8010   66.8050   -3.1760 N.am  253  THR253     -0.1951
     68  CA        27.7240   65.6790   -4.1230 C.3   253  THR253      0.1897
     69  C         28.4450   64.4020   -3.6900 C.2   253  THR253      0.2313
     70  O         28.3280   63.3700   -4.3570 O.2   253  THR253     -0.2863
     71  CB        28.3220   66.0710   -5.4610 C.3   253  THR253      0.1794
     72  OG1       29.7020   66.3600   -5.2510 O.3   253  THR253     -0.2208
     73  CG2       27.5910   67.3310   -6.0680 C.3   253  THR253      0.0378
     74  N         29.8960   84.5760   -2.0840 N.3   421  TYR421     -0.1241
     75  CA        29.1220   84.4510   -3.3120 C.3   421  TYR421      0.1605
     76  C         27.7280   84.9470   -2.9780 C.2   421  TYR421      0.2264
     77  O         27.3210   85.0200   -1.8080 O.2   421  TYR421     -0.2867
     78  CB        29.0800   82.9600   -3.8180 C.3   421  TYR421      0.0534
     79  CG        28.3660   82.0290   -2.8200 C.ar  421  TYR421     -0.0201
     80  CD1       29.0590   81.5020   -1.7220 C.ar  421  TYR421     -0.0009
     81  CD2       27.0120   81.7090   -2.9540 C.ar  421  TYR421     -0.0009
     82  CE1       28.4080   80.6860   -0.7770 C.ar  421  TYR421      0.0417
     83  CE2       26.3460   80.8770   -2.0120 C.ar  421  TYR421      0.0417
     84  CZ        27.0820   80.3730   -0.9220 C.ar  421  TYR421      0.1957
     85  OH        26.5090   79.5810    0.0460 O.3   421  TYR421     -0.2866
     86  N         23.4400   84.4790   -4.0520 N.3   423  ARG423     -0.1245
     87  CA        22.4700   83.6900   -4.8020 C.3   423  ARG423      0.1563
     88  C         21.4710   84.6520   -5.3920 C.2   423  ARG423      0.2260
     89  O         21.2310   85.7060   -4.8200 O.2   423  ARG423     -0.2867
     90  CB        21.7820   82.6380   -3.9040 C.3   423  ARG423      0.0307
     91  CG        22.7570   81.5200   -3.4840 C.3   423  ARG423      0.0489
     92  CD        22.0020   80.3190   -2.8220 C.3   423  ARG423      0.2205
     93  NE        22.9050   79.1720   -2.6440 N.pl3 423  ARG423     -0.0865
     94  CZ        23.0770   78.2290   -3.5560 C.cat 423  ARG423      0.5346
     95  NH1       22.3920   78.2920   -4.6970 N.pl3 423  ARG423      0.1354
     96  NH2       23.9190   77.2320   -3.3370 N.pl3 423  ARG423      0.1354
     97  N         27.7100   78.9890  -12.6560 N.3   450  GLU450     -0.1245
     98  CA        26.4780   78.2430  -12.7790 C.3   450  GLU450      0.1567
     99  C         25.3260   79.1390  -12.3940 C.2   450  GLU450      0.2260
    100  O         25.4430   80.0110  -11.5210 O.2   450  GLU450     -0.2867
    101  CB        26.5120   76.9620  -11.9260 C.3   450  GLU450      0.0388
    102  CG        26.5630   77.1740  -10.4090 C.3   450  GLU450      0.1160
    103  CD        26.8680   75.8740   -9.6090 C.2   450  GLU450      0.3649
    104  OE1       25.9080   75.0630   -9.3900 O.co2 450  GLU450     -0.2457
    105  OE2       28.0590   75.6830   -9.1900 O.co2 450  GLU450     -0.2457
    106  N         24.0000   81.7040   -9.1010 N.3   453  ILE453     -0.1245
    107  CA        25.0780   81.9310   -8.1370 C.3   453  ILE453      0.1561
    108  C         26.1090   82.8650   -8.7450 C.2   453  ILE453      0.2260
    109  O         26.5420   82.6690   -9.8710 O.2   453  ILE453     -0.2867
    110  CB        25.7560   80.5730   -7.7070 C.3   453  ILE453      0.0252
    111  CG1       24.7070   79.6780   -7.0480 C.3   453  ILE453      0.0019
    112  CG2       26.9340   80.8160   -6.7340 C.3   453  ILE453      0.0019
    113  CD1       24.7580   78.2900   -7.4920 C.3   453  ILE453      0.0001
    114  N         32.7450   80.0680    2.4920 N.3   516  TRP516     -0.1227
    115  CA        32.7520   79.2910    1.2330 C.3   516  TRP516      0.1737
    116  C         32.5930   80.3190    0.0910 C.2   516  TRP516      0.2595
    117  O         31.6490   81.1320    0.1440 O.2   516  TRP516     -0.2718
    118  CB        31.5420   78.3240    1.2220 C.3   516  TRP516      0.0564
    119  CG        31.4200   77.6160   -0.0720 C.ar  516  TRP516      0.0003
    120  CD1       30.8120   78.0720   -1.2210 C.ar  516  TRP516      0.0946
    121  CD2       31.9710   76.3200   -0.3840 C.ar  516  TRP516      0.0152
    122  NE1       30.9890   77.1310   -2.2440 N.ar  516  TRP516     -0.2442
    123  CE2       31.6690   76.0420   -1.7370 C.ar  516  TRP516      0.0810
    124  CE3       32.6860   75.3640    0.3590 C.ar  516  TRP516      0.0012
    125  CZ2       32.0790   74.8320   -2.3760 C.ar  516  TRP516      0.0191
    126  CZ3       33.1110   74.1580   -0.2870 C.ar  516  TRP516      0.0001
    127  CH2       32.7820   73.9140   -1.6400 C.ar  516  TRP516      0.0015
    128  N         33.4360   80.3290   -0.9460 N.am  517  GLU517     -0.1979
    129  CA        34.6380   79.5820   -1.1200 C.3   517  GLU517      0.1602
    130  C         35.6990   80.6340   -1.4760 C.2   517  GLU517      0.2287
    131  O         35.3190   81.6700   -2.0410 O.2   517  GLU517     -0.2864
    132  CB        34.4820   78.5640   -2.2710 C.3   517  GLU517      0.0415
    133  CG        33.8210   79.1600   -3.5320 C.3   517  GLU517      0.1163
    134  CD        33.6820   78.1220   -4.6660 C.2   517  GLU517      0.3649
    135  OE1       34.6740   77.7570   -5.3420 O.co2 517  GLU517     -0.2457
    136  OE2       32.5420   77.6840   -4.8480 O.co2 517  GLU517     -0.2457
@<TRIPOS>BOND
     1    39    40    2
     2    39    38    1
     3    15    16    1
     4    38    37    1
     5    38    41    1
     6    98    97    1
     7    98    99    1
     8    98   101    1
     9    99   100    2
    10    43    41    1
    11    16    17    1
    12    16    19    1
    13    17    18    2
    14   101   102    1
    15    41    42    1
    16     4     3    2
    17    19    20    1
    18    42    44    1
    19    20    21    1
    20   102   103    1
    21    24    23    1
    22   109   108    2
    23   103   104   ar
    24   103   105   ar
    25     3     2    1
    26     5     2    1
    27     5     6    1
    28    23    25    1
    29    23    22    2
    30    21    22    1
    31     2     1    1
    32   106   107    1
    33     7     6   ar
    34     7     9   ar
    35   108   107    1
    36     6     8   ar
    37   107   110    1
    38     9    10   ar
    39   110   111    1
    40   110   112    1
    41   113   111    1
    42     8    10   ar
    43     8    11   ar
    44    10    12   ar
    45    11    13   ar
    46    73    71    1
    47    12    14   ar
    48    71    72    1
    49    71    68    1
    50    88    89    2
    51    88    87    1
    52   135   134   ar
    53    13    14   ar
    54   136   134   ar
    55    87    86    1
    56    87    90    1
    57    95    94    1
    58   134   133    1
    59    70    69    2
    60    61    59   ar
    61    61    62   ar
    62    59    58   ar
    63    68    69    1
    64    68    67    1
    65    90    91    1
    66    78    75    1
    67    78    79    1
    68    94    96    1
    69    94    93    2
    70   133   132    1
    71    91    92    1
    72    75    76    1
    73    75    74    1
    74    67    55   am
    75    62    64   ar
    76    62    60   ar
    77    76    77    2
    78    81    79   ar
    79    81    83   ar
    80    58    57    1
    81    58    60   ar
    82    92    93    1
    83    79    80   ar
    84    29    28    2
    85    64    66   ar
    86    57    54    1
    87    55    56    2
    88    55    54    1
    89   125   123   ar
    90   125   127   ar
    91    26    27    1
    92   132   129    1
    93   122   123   ar
    94   122   120   ar
    95    60    63   ar
    96   131   130    2
    97    83    84   ar
    98    33    35   ar
    99    33    31   ar
   100   123   121   ar
   101    80    82   ar
   102   127   126   ar
   103    54    53    1
   104    28    27    1
   105   130   129    1
   106    30    27    1
   107    30    31    1
   108    35    36   ar
   109   120   119   ar
   110    66    65   ar
   111   129   128    1
   112   128   116   am
   113    84    82   ar
   114    84    85    1
   115    53    51   am
   116    31    32   ar
   117    63    65   ar
   118   121   119   ar
   119   121   124   ar
   120   126   124   ar
   121    48    47    2
   122    51    52    2
   123    51    50    1
   124   119   118    1
   125    36    34   ar
   126   116   117    2
   127   116   115    1
   128    50    49    1
   129    32    34   ar
   130    47    49   am
   131    47    46    1
   132   118   115    1
   133   115   114    1
   134    46    45    1
