@<TRIPOS>MOLECULE
tmp/2wk6B00.pdb
 110 102 0 0 0
SMALL
GASTEIGER

@<TRIPOS>ATOM
      1  N         11.3850   18.4720   94.1210 N.3    82  HIS82      -0.1226
      2  CA        10.9640   18.6080   92.7360 C.3    82  HIS82       0.1752
      3  C          9.9290   17.5540   92.3890 C.2    82  HIS82       0.2597
      4  O          9.8210   16.5220   93.0530 O.2    82  HIS82      -0.2718
      5  CB        12.1480   18.4670   91.7870 C.3    82  HIS82       0.0759
      6  CG        11.9080   19.0780   90.4440 C.ar   82  HIS82       0.0818
      7  ND1       12.1170   20.4170   90.1880 N.ar   82  HIS82      -0.2268
      8  CD2       11.4280   18.5450   89.2950 C.ar   82  HIS82       0.1154
      9  CE1       11.7750   20.6810   88.9390 C.ar   82  HIS82       0.1986
     10  NE2       11.3520   19.5630   88.3770 N.ar   82  HIS82      -0.2212
     11  N          9.1780   17.8230   91.3320 N.am   83  SER83      -0.1938
     12  CA         8.1290   16.9270   90.8770 C.3    83  SER83       0.2055
     13  C          8.3660   16.5830   89.4020 C.2    83  SER83       0.2644
     14  O          9.0530   17.3220   88.6940 O.2    83  SER83      -0.2714
     15  CB         6.7820   17.6220   91.0560 C.3    83  SER83       0.2130
     16  OG         5.7140   16.7430   90.7750 O.3    83  SER83      -0.2179
     17  N          7.8180   15.4580   88.9430 N.am   84  THR84      -0.1936
     18  CA         7.9790   15.0710   87.5440 C.3    84  THR84       0.2028
     19  C          6.8680   15.7180   86.7290 C.2    84  THR84       0.2642
     20  O          6.7820   15.5380   85.5200 O.2    84  THR84      -0.2714
     21  CB         7.9080   13.5280   87.3360 C.3    84  THR84       0.1808
     22  OG1        6.6280   13.0370   87.7510 O.3    84  THR84      -0.2208
     23  CG2        9.0050   12.8290   88.1320 C.3    84  THR84       0.0379
     24  N          6.0100   16.4700   87.4010 N.am   85  GLY85      -0.1954
     25  CA         4.9220   17.1170   86.6970 C.3    85  GLY85       0.1869
     26  C          3.6450   16.3080   86.7330 C.2    85  GLY85       0.2309
     27  O          3.6460   15.0770   86.5840 O.2    85  GLY85      -0.2863
     28  N          5.0650   21.5060   81.0520 N.3   114  LEU114     -0.1245
     29  CA         5.8110   20.5520   80.2540 C.3   114  LEU114      0.1561
     30  C          4.8060   19.5350   79.7260 C.2   114  LEU114      0.2260
     31  O          4.3070   18.6960   80.4830 O.2   114  LEU114     -0.2867
     32  CB         6.8360   19.8650   81.1460 C.3   114  LEU114      0.0270
     33  CG         8.1160   19.3610   80.5060 C.3   114  LEU114      0.0019
     34  CD1        8.8930   20.5460   79.9340 C.3   114  LEU114      0.0001
     35  CD2        8.9410   18.6330   81.5560 C.3   114  LEU114      0.0001
     36  N          1.3710   18.8540   81.5290 N.3   117  THR117     -0.1218
     37  CA         1.5360   19.1760   82.9440 C.3   117  THR117      0.1862
     38  C          1.7810   20.6460   83.2240 C.2   117  THR117      0.2287
     39  O          2.4720   21.3200   82.4710 O.2   117  THR117     -0.2866
     40  CB         2.7200   18.4270   83.5520 C.3   117  THR117      0.1770
     41  OG1        3.9390   19.0190   83.0780 O.3   117  THR117     -0.2211
     42  CG2        2.6830   16.9550   83.1590 C.3   117  THR117      0.0375
     43  N         14.2190   22.2790   77.8050 N.3   165  TYR165     -0.1241
     44  CA        12.9490   22.2030   78.5230 C.3   165  TYR165      0.1605
     45  C         11.8030   22.7900   77.6820 C.2   165  TYR165      0.2264
     46  O         10.7870   22.1280   77.4410 O.2   165  TYR165     -0.2867
     47  CB        13.0870   22.9720   79.8470 C.3   165  TYR165      0.0534
     48  CG        11.9680   22.7910   80.8530 C.ar  165  TYR165     -0.0201
     49  CD1       10.7380   23.4350   80.7010 C.ar  165  TYR165     -0.0009
     50  CD2       12.1570   21.9880   81.9780 C.ar  165  TYR165     -0.0009
     51  CE1        9.7170   23.2800   81.6530 C.ar  165  TYR165      0.0417
     52  CE2       11.1500   21.8230   82.9330 C.ar  165  TYR165      0.0417
     53  CZ         9.9350   22.4640   82.7650 C.ar  165  TYR165      0.1957
     54  OH         8.9350   22.2270   83.6830 O.3   165  TYR165     -0.2866
     55  N         11.3530   20.5310   74.4470 N.3   168  ARG168     -0.1245
     56  CA        10.8210   19.2110   74.6970 C.3   168  ARG168      0.1563
     57  C          9.3100   19.3020   74.8950 C.2   168  ARG168      0.2260
     58  O          8.5480   18.4920   74.3680 O.2   168  ARG168     -0.2867
     59  CB        11.4980   18.6160   75.9320 C.3   168  ARG168      0.0307
     60  CG        12.9620   18.2730   75.7110 C.3   168  ARG168      0.0489
     61  CD        13.6620   18.0100   77.0290 C.3   168  ARG168      0.2205
     62  NE        12.9690   16.9780   77.7810 N.pl3 168  ARG168     -0.0865
     63  CZ        12.7310   17.0360   79.0860 C.cat 168  ARG168      0.5346
     64  NH1       13.1370   18.0860   79.7810 N.pl3 168  ARG168      0.1354
     65  NH2       12.0760   16.0470   79.6900 N.pl3 168  ARG168      0.1354
     66  N          9.2090   14.9690   76.0120 N.3   174  VAL174     -0.1245
     67  CA         9.2300   15.1770   77.4570 C.3   174  VAL174      0.1561
     68  C          9.4470   13.8300   78.1330 C.2   174  VAL174      0.2260
     69  O         10.3090   13.6800   78.9880 O.2   174  VAL174     -0.2867
     70  CB         7.8980   15.7470   77.9870 C.3   174  VAL174      0.0252
     71  CG1        7.8910   15.6960   79.5330 C.3   174  VAL174      0.0019
     72  CG2        7.6990   17.1740   77.4810 C.3   174  VAL174      0.0019
     73  N         14.6220   13.7630   81.2760 N.3   180  ILE180     -0.1245
     74  CA        13.9850   14.1950   82.5150 C.3   180  ILE180      0.1561
     75  C         15.0420   14.1890   83.6010 C.2   180  ILE180      0.2260
     76  O         15.1740   15.1460   84.3750 O.2   180  ILE180     -0.2867
     77  CB        12.8650   13.2380   82.9400 C.3   180  ILE180      0.0252
     78  CG1       11.7400   13.2720   81.9040 C.3   180  ILE180      0.0019
     79  CG2       12.3530   13.6220   84.3270 C.3   180  ILE180      0.0019
     80  CD1       10.7250   12.1370   82.0200 C.3   180  ILE180      0.0001
     81  N         17.5520   16.9720   83.1790 N.3   183  SER183     -0.1202
     82  CA        16.8290   18.2280   83.3750 C.3   183  SER183      0.2020
     83  C         16.5950   18.5350   84.8550 C.2   183  SER183      0.2618
     84  O         16.9420   19.6140   85.3410 O.2   183  SER183     -0.2717
     85  CB        15.4860   18.1830   82.6400 C.3   183  SER183      0.2103
     86  OG        14.7640   19.3840   82.8370 O.3   183  SER183     -0.2182
     87  N         16.0090   17.5790   85.5680 N.am  184  ILE184     -0.1979
     88  CA        15.7190   17.7470   86.9890 C.3   184  ILE184      0.1595
     89  C         16.9790   17.9070   87.8410 C.2   184  ILE184      0.2287
     90  O         17.1170   18.8880   88.5800 O.2   184  ILE184     -0.2864
     91  CB        14.8900   16.5500   87.5300 C.3   184  ILE184      0.0276
     92  CG1       13.5330   16.5200   86.8210 C.3   184  ILE184      0.0022
     93  CG2       14.7290   16.6540   89.0510 C.3   184  ILE184      0.0022
     94  CD1       12.6770   15.2850   87.1050 C.3   184  ILE184      0.0001
     95  N         19.2300   21.1960   87.4540 N.3   187  LYS187     -0.1245
     96  CA        18.7410   22.3550   88.1910 C.3   187  LYS187      0.1561
     97  C         19.0810   22.2460   89.6710 C.2   187  LYS187      0.2260
     98  O         19.4900   23.2290   90.2980 O.2   187  LYS187     -0.2867
     99  CB        17.2250   22.5160   88.0020 C.3   187  LYS187      0.0271
    100  CG        16.8350   23.1890   86.6870 C.3   187  LYS187      0.0035
    101  CD        15.3510   23.5540   86.6350 C.3   187  LYS187      0.0206
    102  CE        14.4920   22.3310   86.4200 C.3   187  LYS187      0.1093
    103  NZ        14.7120   21.7320   85.0830 N.3   187  LYS187     -0.1314
    104  N          3.9860   11.6120   83.5070 N.3   207  VAL207     -0.1245
    105  CA         4.7990   11.6030   82.2960 C.3   207  VAL207      0.1561
    106  C          4.9340   10.1250   81.9380 C.2   207  VAL207      0.2260
    107  O          4.7270    9.7210   80.7820 O.2   207  VAL207     -0.2867
    108  CB         6.1930   12.2250   82.5340 C.3   207  VAL207      0.0252
    109  CG1        7.0320   12.1160   81.2730 C.3   207  VAL207      0.0019
    110  CG2        6.0530   13.6890   82.9220 C.3   207  VAL207      0.0019
@<TRIPOS>BOND
     1    58    57    2
     2    55    56    1
     3    56    57    1
     4    56    59    1
     5    60    59    1
     6    60    61    1
     7    66    67    1
     8    61    62    1
     9    46    45    2
    10    67    70    1
    11    67    68    1
    12    72    70    1
    13    45    44    1
    14    62    63    2
    15    43    44    1
    16    70    71    1
    17    68    69    2
    18    44    47    1
    19    63    65    1
    20    63    64    1
    21    30    29    1
    22    30    31    2
    23    47    48    1
    24    34    33    1
    25    29    28    1
    26    29    32    1
    27    33    32    1
    28    33    35    1
    29    49    48   ar
    30    49    51   ar
    31   107   106    2
    32    48    50   ar
    33   109   108    1
    34    73    74    1
    35    36    37    1
    36    51    53   ar
    37    78    80    1
    38    78    77    1
    39   106   105    1
    40    50    52   ar
    41   105   108    1
    42   105   104    1
    43    39    38    2
    44    74    77    1
    45    74    75    1
    46   108   110    1
    47    85    86    1
    48    85    82    1
    49    53    52   ar
    50    53    54    1
    51    77    79    1
    52    37    38    1
    53    37    40    1
    54    41    40    1
    55    42    40    1
    56    81    82    1
    57    82    83    1
    58    75    76    2
    59    83    84    2
    60    83    87   am
    61   103   102    1
    62    20    19    2
    63    87    88    1
    64   102   101    1
    65    27    26    2
    66   101   100    1
    67   100    99    1
    68    25    26    1
    69    25    24    1
    70    19    24   am
    71    19    18    1
    72    92    94    1
    73    92    91    1
    74    88    91    1
    75    88    89    1
    76    21    18    1
    77    21    22    1
    78    21    23    1
    79    95    96    1
    80    91    93    1
    81    18    17    1
    82    89    90    2
    83    99    96    1
    84    96    97    1
    85    10     9   ar
    86    10     8   ar
    87    14    13    2
    88     9     7   ar
    89    17    13   am
    90     8     6   ar
    91    13    12    1
    92    97    98    2
    93     7     6   ar
    94     6     5    1
    95    16    15    1
    96    12    15    1
    97    12    11    1
    98    11     3   am
    99     5     2    1
   100     3     2    1
   101     3     4    2
   102     2     1    1
