@<TRIPOS>MOLECULE
tmp/2wk9A00.pdb
 130 121 0 0 0
SMALL
GASTEIGER

@<TRIPOS>ATOM
      1  N         64.7530   63.6640    3.9940 N.3   100  SER100     -0.1202
      2  CA        64.9050   62.6550    2.9460 C.3   100  SER100      0.2020
      3  C         63.8810   62.9130    1.8600 C.2   100  SER100      0.2619
      4  O         62.9070   63.6130    2.0930 O.2   100  SER100     -0.2717
      5  CB        64.6690   61.2560    3.5130 C.3   100  SER100      0.2103
      6  OG        63.3580   61.1430    4.0620 O.3   100  SER100     -0.2182
      7  N         64.0980   62.3390    0.6760 N.am  101  GLY101     -0.1942
      8  CA        63.1110   62.3990   -0.3920 C.3   101  GLY101      0.2014
      9  C         61.8170   61.7230    0.0390 C.2   101  GLY101      0.2638
     10  O         60.7190   62.1640   -0.3090 O.2   101  GLY101     -0.2714
     11  N         61.9490   60.6410    0.7990 N.am  102  TRP102     -0.1973
     12  CA        60.7900   59.9290    1.3220 C.3   102  TRP102      0.1640
     13  C         59.9250   60.8770    2.1530 C.2   102  TRP102      0.2290
     14  O         58.7190   60.9780    1.9460 O.2   102  TRP102     -0.2864
     15  CB        61.2390   58.7470    2.1910 C.3   102  TRP102      0.0576
     16  CG        60.0940   58.0210    2.8170 C.ar  102  TRP102      0.0006
     17  CD1       59.3960   58.3910    3.9360 C.ar  102  TRP102      0.0946
     18  CD2       59.5050   56.8010    2.3630 C.ar  102  TRP102      0.0152
     19  NE1       58.4060   57.4780    4.1960 N.ar  102  TRP102     -0.2442
     20  CE2       58.4560   56.4870    3.2520 C.ar  102  TRP102      0.0810
     21  CE3       59.7700   55.9370    1.2960 C.ar  102  TRP102      0.0012
     22  CZ2       57.6640   55.3500    3.1010 C.ar  102  TRP102      0.0191
     23  CZ3       58.9800   54.8080    1.1440 C.ar  102  TRP102      0.0001
     24  CH2       57.9400   54.5260    2.0420 C.ar  102  TRP102      0.0015
     25  N         58.0220   63.6640    0.1630 N.3   105  ASN105     -0.1240
     26  CA        56.7940   63.1710   -0.4490 C.3   105  ASN105      0.1653
     27  C         55.6800   62.8890    0.5620 C.2   105  ASN105      0.2266
     28  O         54.5320   63.3020    0.3670 O.2   105  ASN105     -0.2867
     29  CB        57.0780   61.9180   -1.2790 C.3   105  ASN105      0.1155
     30  CG        57.7460   62.2360   -2.5930 C.2   105  ASN105      0.2627
     31  OD1       57.6690   63.3660   -3.0860 O.2   105  ASN105     -0.2716
     32  ND2       58.3970   61.2410   -3.1770 N.am  105  ASN105     -0.0877
     33  N         57.0870   56.2740   -7.2740 N.3   126  HIS126     -0.1241
     34  CA        57.8560   55.7610   -6.1450 C.3   126  HIS126      0.1621
     35  C         56.9770   55.3710   -4.9580 C.2   126  HIS126      0.2264
     36  O         55.9390   55.9820   -4.7160 O.2   126  HIS126     -0.2867
     37  CB        58.9000   56.7780   -5.6930 C.3   126  HIS126      0.0745
     38  CG        59.9560   56.1930   -4.8120 C.ar  126  HIS126      0.0817
     39  ND1       60.0320   56.4560   -3.4620 N.ar  126  HIS126     -0.2268
     40  CD2       60.9770   55.3490   -5.0920 C.ar  126  HIS126      0.1154
     41  CE1       61.0580   55.8010   -2.9460 C.ar  126  HIS126      0.1986
     42  NE2       61.6520   55.1290   -3.9140 N.ar  126  HIS126     -0.2212
     43  N         57.2410   55.9530   -1.8720 N.3   128  SER128     -0.1217
     44  CA        57.0040   57.0540   -0.9390 C.3   128  SER128      0.1889
     45  C         55.7450   57.8450   -1.2930 C.2   128  SER128      0.2288
     46  O         55.0770   58.3830   -0.4110 O.2   128  SER128     -0.2866
     47  CB        58.2270   57.9890   -0.8600 C.3   128  SER128      0.2089
     48  OG        58.5420   58.5410   -2.1430 O.3   128  SER128     -0.2183
     49  N         56.5930   60.3610  -11.2630 N.3   166  ASP166     -0.1239
     50  CA        58.0350   60.5820  -11.2670 C.3   166  ASP166      0.1674
     51  C         58.3260   61.2500  -12.6100 C.2   166  ASP166      0.2266
     52  O         57.6980   60.9100  -13.6060 O.2   166  ASP166     -0.2867
     53  CB        58.7970   59.2490  -11.2640 C.3   166  ASP166      0.1410
     54  CG        58.7090   58.4840   -9.9400 C.2   166  ASP166      0.3668
     55  OD1       57.9220   58.8460   -9.0340 O.co2 166  ASP166     -0.2456
     56  OD2       59.4500   57.4820   -9.8210 O.co2 166  ASP166     -0.2456
     57  N         61.4090   60.9820  -14.0600 N.3   168  ILE168     -0.1245
     58  CA        62.1010   59.8070  -14.5610 C.3   168  ILE168      0.1561
     59  C         61.9380   58.6850  -13.5450 C.2   168  ILE168      0.2260
     60  O         62.2160   58.8620  -12.3530 O.2   168  ILE168     -0.2867
     61  CB        63.5910   60.0880  -14.8050 C.3   168  ILE168      0.0252
     62  CG1       63.7500   61.1930  -15.8540 C.3   168  ILE168      0.0019
     63  CG2       64.3060   58.8130  -15.2340 C.3   168  ILE168      0.0019
     64  CD1       65.1950   61.4480  -16.2740 C.3   168  ILE168      0.0001
     65  N         62.2170   55.4050  -11.2580 N.3   170  SER170     -0.1217
     66  CA        63.3970   54.9270  -10.5460 C.3   170  SER170      0.1889
     67  C         63.8060   53.5030  -10.9110 C.2   170  SER170      0.2288
     68  O         64.9770   53.1450  -10.8080 O.2   170  SER170     -0.2866
     69  CB        63.2320   55.0910   -9.0300 C.3   170  SER170      0.2089
     70  OG        62.0210   54.5360   -8.5700 O.3   170  SER170     -0.2183
     71  N         57.8410   64.1970   -9.0620 N.3   195  ASP195     -0.1239
     72  CA        59.0390   63.8220   -8.3160 C.3   195  ASP195      0.1674
     73  C         60.2360   63.7540   -9.2690 C.2   195  ASP195      0.2266
     74  O         60.3370   62.8280  -10.0750 O.2   195  ASP195     -0.2867
     75  CB        58.8070   62.4690   -7.6350 C.3   195  ASP195      0.1410
     76  CG        59.9520   62.0490   -6.7450 C.2   195  ASP195      0.3668
     77  OD1       61.1120   62.4250   -7.0200 O.co2 195  ASP195     -0.2456
     78  OD2       59.6870   61.3220   -5.7620 O.co2 195  ASP195     -0.2456
     79  N         63.4750   63.3120   -8.5220 N.3   197  SER197     -0.1202
     80  CA        64.6490   62.7120   -7.8890 C.3   197  SER197      0.2020
     81  C         65.7030   62.2530   -8.9010 C.2   197  SER197      0.2618
     82  O         66.9080   62.3650   -8.6520 O.2   197  SER197     -0.2717
     83  CB        64.2380   61.5430   -6.9910 C.3   197  SER197      0.2103
     84  OG        63.4310   61.9880   -5.9160 O.3   197  SER197     -0.2182
     85  N         65.2590   61.7390  -10.0430 N.am  198  HIS198     -0.1975
     86  CA        66.1990   61.1840  -11.0130 C.3   198  HIS198      0.1656
     87  C         66.4540   62.0750  -12.2320 C.2   198  HIS198      0.2291
     88  O         67.1450   61.6690  -13.1610 O.2   198  HIS198     -0.2864
     89  CB        65.7650   59.7770  -11.4330 C.3   198  HIS198      0.0771
     90  CG        65.6750   58.8220  -10.2880 C.ar  198  HIS198      0.0820
     91  ND1       66.7680   58.1460   -9.7980 N.ar  198  HIS198     -0.2267
     92  CD2       64.6270   58.4650   -9.5080 C.ar  198  HIS198      0.1154
     93  CE1       66.3950   57.3930   -8.7770 C.ar  198  HIS198      0.1986
     94  NE2       65.1030   57.5700   -8.5800 N.ar  198  HIS198     -0.2212
     95  N         64.4070   63.7360   -3.8930 N.3   226  SER226     -0.1217
     96  CA        65.4850   63.2700   -3.0370 C.3   226  SER226      0.1889
     97  C         66.7260   64.0540   -3.4280 C.2   226  SER226      0.2288
     98  O         66.9870   64.2600   -4.6160 O.2   226  SER226     -0.2866
     99  CB        65.7630   61.7850   -3.2630 C.3   226  SER226      0.2089
    100  OG        66.9570   61.4130   -2.5940 O.3   226  SER226     -0.2183
    101  N         69.5150   62.8770   -2.4420 N.3   228  ALA228     -0.1231
    102  CA        70.4650   61.7810   -2.2630 C.3   228  ALA228      0.1694
    103  C         70.8440   61.0910   -3.5680 C.2   228  ALA228      0.2591
    104  O         71.4490   60.0210   -3.5670 O.2   228  ALA228     -0.2718
    105  CB        69.9120   60.7570   -1.2570 C.3   228  ALA228      0.0304
    106  N         70.4890   61.7160   -4.6830 N.am  229  LYS229     -0.1980
    107  CA        70.8360   61.1890   -5.9900 C.3   229  LYS229      0.1596
    108  C         71.9470   62.0730   -6.5550 C.2   229  LYS229      0.2287
    109  O         73.0870   61.9780   -6.1040 O.2   229  LYS229     -0.2864
    110  CB        69.6050   61.1460   -6.8910 C.3   229  LYS229      0.0298
    111  CG        68.4010   60.4450   -6.2500 C.3   229  LYS229      0.0038
    112  CD        68.7110   58.9900   -5.9200 C.3   229  LYS229      0.0206
    113  CE        67.4830   58.2410   -5.4040 C.3   229  LYS229      0.1093
    114  NZ        67.2570   58.4620   -3.9500 N.3   229  LYS229     -0.1314
    115  N         69.0320   63.8800    2.2110 N.3   235  ALA235     -0.1245
    116  CA        68.0490   64.9060    2.4810 C.3   235  ALA235      0.1562
    117  C         67.0450   64.9110    1.3470 C.2   235  ALA235      0.2260
    118  O         67.1670   64.1350    0.3980 O.2   235  ALA235     -0.2867
    119  CB        68.7090   66.2690    2.6050 C.3   235  ALA235      0.0290
    120  N         68.5500   46.8000  -11.9920 N.3   351  ARG351     -0.1245
    121  CA        68.7580   48.1590  -12.4690 C.3   351  ARG351      0.1563
    122  C         70.2250   48.5130  -12.6850 C.2   351  ARG351      0.2260
    123  O         71.0510   48.3980  -11.7790 O.2   351  ARG351     -0.2867
    124  CB        68.1150   49.1690  -11.5200 C.3   351  ARG351      0.0307
    125  CG        68.3140   50.6090  -11.9450 C.3   351  ARG351      0.0489
    126  CD        67.6340   51.5620  -10.9880 C.3   351  ARG351      0.2205
    127  NE        68.3970   51.7330   -9.7530 N.pl3 351  ARG351     -0.0865
    128  CZ        67.9850   52.4630   -8.7220 C.cat 351  ARG351      0.5346
    129  NH1       66.8160   53.0870   -8.7760 N.pl3 351  ARG351      0.1354
    130  NH2       68.7400   52.5700   -7.6370 N.pl3 351  ARG351      0.1354
@<TRIPOS>BOND
     1    64    62    1
     2    62    61    1
     3    63    61    1
     4    61    58    1
     5    58    57    1
     6    58    59    1
     7    52    51    2
     8    59    60    2
     9    88    87    2
    10   122   121    1
    11   122   123    2
    12    51    50    1
    13   121   120    1
    14   121   124    1
    15    87    86    1
    16   125   124    1
    17   125   126    1
    18    89    86    1
    19    89    90    1
    20    50    53    1
    21    50    49    1
    22    53    54    1
    23    65    66    1
    24    86    85    1
    25   126   127    1
    26    67    68    2
    27    67    66    1
    28    66    69    1
    29    90    91   ar
    30    90    92   ar
    31    74    73    2
    32    85    81   am
    33    54    56   ar
    34    54    55   ar
    35    91    93   ar
    36   127   128    2
    37    92    94   ar
    38    73    72    1
    39    71    72    1
    40    69    70    1
    41    81    82    2
    42    81    80    1
    43    93    94   ar
    44   129   128    1
    45   128   130    1
    46    79    80    1
    47    72    75    1
    48    80    83    1
    49    75    76    1
    50    33    34    1
    51    77    76   ar
    52    83    84    1
    53   110   111    1
    54   110   107    1
    55    76    78   ar
    56   108   109    2
    57   108   107    1
    58   111   112    1
    59    34    37    1
    60    34    35    1
    61   107   106    1
    62   112   113    1
    63    37    38    1
    64   113   114    1
    65    40    38   ar
    66    40    42   ar
    67    35    36    2
    68    38    39   ar
    69   106   103   am
    70    98    97    2
    71    42    41   ar
    72    95    96    1
    73   103   104    2
    74   103   102    1
    75    39    41   ar
    76    97    96    1
    77    99    96    1
    78    99   100    1
    79    32    30   am
    80    31    30    2
    81    30    29    1
    82   101   102    1
    83   102   105    1
    84    48    47    1
    85    43    44    1
    86    45    44    1
    87    45    46    2
    88    29    26    1
    89    44    47    1
    90    26    25    1
    91    26    27    1
    92     8     9    1
    93     8     7    1
    94    10     9    2
    95     9    11   am
    96    28    27    2
    97   118   117    2
    98     7     3   am
    99    11    12    1
   100    23    21   ar
   101    23    24   ar
   102    21    18   ar
   103    12    13    1
   104    12    15    1
   105   117   116    1
   106     3     4    2
   107     3     2    1
   108    14    13    2
   109    24    22   ar
   110    15    16    1
   111   115   116    1
   112    18    16   ar
   113    18    20   ar
   114   116   119    1
   115    16    17   ar
   116     2     5    1
   117     2     1    1
   118    22    20   ar
   119    20    19   ar
   120     5     6    1
   121    17    19   ar
