@<TRIPOS>MOLECULE
tmp/2wk9B00.pdb
 154 144 0 0 0
SMALL
GASTEIGER

@<TRIPOS>ATOM
      1  N         67.6120   69.1430   22.5340 N.3    44  ASN44      -0.1240
      2  CA        67.6410   67.8190   23.1490 C.3    44  ASN44       0.1653
      3  C         69.0710   67.3200   23.3460 C.2    44  ASN44       0.2266
      4  O         69.2910   66.1530   23.6590 O.2    44  ASN44      -0.2867
      5  CB        66.9000   66.8180   22.2640 C.3    44  ASN44       0.1155
      6  CG        65.4540   67.1960   22.0360 C.2    44  ASN44       0.2627
      7  OD1       65.0770   67.6090   20.9410 O.2    44  ASN44      -0.2716
      8  ND2       64.6350   67.0510   23.0660 N.am   44  ASN44      -0.0877
      9  N         66.9570   57.9250   11.3670 N.3    98  SER98      -0.1202
     10  CA        66.3620   58.7620   12.4050 C.3    98  SER98       0.2020
     11  C         65.6950   57.8660   13.4350 C.2    98  SER98       0.2619
     12  O         65.4570   56.6900   13.1730 O.2    98  SER98      -0.2717
     13  CB        65.3290   59.7210   11.8120 C.3    98  SER98       0.2103
     14  OG        64.2480   59.0220   11.2160 O.3    98  SER98      -0.2182
     15  N         65.4230   58.4160   14.6140 N.am   99  GLY99      -0.1942
     16  CA        64.6500   57.7030   15.6160 C.3    99  GLY99       0.2014
     17  C         63.2650   57.4000   15.0740 C.2    99  GLY99       0.2638
     18  O         62.7060   56.3360   15.3380 O.2    99  GLY99      -0.2714
     19  N         62.7000   58.3390   14.3180 N.am  100  TRP100     -0.1973
     20  CA        61.3910   58.1190   13.7110 C.3   100  TRP100      0.1640
     21  C         61.4100   56.8450   12.8630 C.2   100  TRP100      0.2290
     22  O         60.5120   55.9980   12.9760 O.2   100  TRP100     -0.2864
     23  CB        60.9630   59.3260   12.8590 C.3   100  TRP100      0.0576
     24  CG        59.7010   59.1030   12.0690 C.ar  100  TRP100      0.0006
     25  CD1       59.5740   58.4000   10.8930 C.ar  100  TRP100      0.0946
     26  CD2       58.3880   59.5860   12.3880 C.ar  100  TRP100      0.0152
     27  NE1       58.2680   58.4150   10.4730 N.ar  100  TRP100     -0.2442
     28  CE2       57.5190   59.1340   11.3670 C.ar  100  TRP100      0.0810
     29  CE3       57.8640   60.3570   13.4300 C.ar  100  TRP100      0.0012
     30  CZ2       56.1570   59.4250   11.3660 C.ar  100  TRP100      0.0191
     31  CZ3       56.5080   60.6440   13.4250 C.ar  100  TRP100      0.0001
     32  CH2       55.6700   60.1780   12.4020 C.ar  100  TRP100      0.0015
     33  N         61.6700   53.4750   14.9060 N.3   103  ASN103     -0.1240
     34  CA        60.3830   53.0370   15.4340 C.3   103  ASN103      0.1653
     35  C         59.4430   52.5130   14.3650 C.2   103  ASN103      0.2266
     36  O         58.8450   51.4460   14.5120 O.2   103  ASN103     -0.2867
     37  CB        59.7000   54.1850   16.1770 C.3   103  ASN103      0.1155
     38  CG        60.2870   54.4030   17.5440 C.2   103  ASN103      0.2627
     39  OD1       60.9410   53.5160   18.0840 O.2   103  ASN103     -0.2716
     40  ND2       60.0650   55.5810   18.1150 N.am  103  ASN103     -0.0877
     41  N         55.6840   58.3870   21.9600 N.3   124  HIS124     -0.1241
     42  CA        56.0020   59.2450   20.8130 C.3   124  HIS124      0.1621
     43  C         55.1750   58.9440   19.5550 C.2   124  HIS124      0.2264
     44  O         54.8890   57.7870   19.2460 O.2   124  HIS124     -0.2867
     45  CB        57.5020   59.2070   20.4850 C.3   124  HIS124      0.0745
     46  CG        57.9330   60.3070   19.5660 C.ar  124  HIS124      0.0817
     47  ND1       58.1940   60.1030   18.2250 N.ar  124  HIS124     -0.2268
     48  CD2       58.1110   61.6310   19.7850 C.ar  124  HIS124      0.1154
     49  CE1       58.5360   61.2480   17.6670 C.ar  124  HIS124      0.1986
     50  NE2       58.4880   62.1950   18.5900 N.ar  124  HIS124     -0.2212
     51  N         55.8520   58.7030   16.6170 N.3   126  SER126     -0.1217
     52  CA        56.4800   57.7700   15.6820 C.3   126  SER126      0.1889
     53  C         56.0690   56.3290   15.9730 C.2   126  SER126      0.2288
     54  O         56.0400   55.4850   15.0760 O.2   126  SER126     -0.2866
     55  CB        58.0060   57.8940   15.7310 C.3   126  SER126      0.2089
     56  OG        58.5050   57.5430   17.0180 O.3   126  SER126     -0.2183
     57  N         57.6710   54.9460   26.1110 N.3   164  ASP164     -0.1239
     58  CA        58.9000   55.7300   26.2140 C.3   164  ASP164      0.1674
     59  C         59.4780   55.3990   27.5870 C.2   164  ASP164      0.2266
     60  O         58.7280   55.2480   28.5440 O.2   164  ASP164     -0.2867
     61  CB        58.6150   57.2380   26.1770 C.3   164  ASP164      0.1410
     62  CG        58.1490   57.7370   24.8170 C.2   164  ASP164      0.3668
     63  OD1       57.8830   56.9180   23.9130 O.co2 164  ASP164     -0.2456
     64  OD2       58.0450   58.9770   24.6590 O.co2 164  ASP164     -0.2456
     65  N         61.5370   57.5450   29.1400 N.3   166  ILE166     -0.1245
     66  CA        61.2810   58.8910   29.6470 C.3   166  ILE166      0.1561
     67  C         60.4650   59.6320   28.5940 C.2   166  ILE166      0.2260
     68  O         60.8520   59.6800   27.4240 O.2   166  ILE166     -0.2867
     69  CB        62.5920   59.6600   29.9150 C.3   166  ILE166      0.0252
     70  CG1       63.3740   59.0060   31.0560 C.3   166  ILE166      0.0019
     71  CG2       62.3060   61.1210   30.2400 C.3   166  ILE166      0.0019
     72  CD1       64.6330   59.7600   31.4480 C.3   166  ILE166      0.0001
     73  N         58.5910   62.3200   26.2300 N.3   168  SER168     -0.1217
     74  CA        59.1860   63.4630   25.5340 C.3   168  SER168      0.1889
     75  C         58.6110   64.8260   25.9220 C.2   168  SER168      0.2288
     76  O         59.3370   65.8200   25.9200 O.2   168  SER168     -0.2866
     77  CB        59.1260   63.2710   24.0120 C.3   168  SER168      0.2089
     78  OG        57.7910   63.1610   23.5540 O.3   168  SER168     -0.2183
     79  N         61.3220   52.8490   24.0120 N.3   193  ASP193     -0.1239
     80  CA        62.0040   53.9510   23.3270 C.3   193  ASP193      0.1674
     81  C         62.7980   54.7620   24.3610 C.2   193  ASP193      0.2266
     82  O         62.2150   55.4780   25.1910 O.2   193  ASP193     -0.2867
     83  CB        60.9670   54.8210   22.5950 C.3   193  ASP193      0.1410
     84  CG        61.5920   55.9570   21.7770 C.2   193  ASP193      0.3668
     85  OD1       62.6800   56.4470   22.1390 O.co2 193  ASP193     -0.2456
     86  OD2       60.9620   56.3730   20.7790 O.co2 193  ASP193     -0.2456
     87  N         64.9400   57.2330   23.7910 N.3   195  SER195     -0.1202
     88  CA        65.4370   58.4760   23.1980 C.3   195  SER195      0.2020
     89  C         65.8680   59.5140   24.2290 C.2   195  SER195      0.2618
     90  O         66.8500   60.2240   24.0240 O.2   195  SER195     -0.2717
     91  CB        64.3840   59.0990   22.2770 C.3   195  SER195      0.2103
     92  OG        64.1940   58.3250   21.1090 O.3   195  SER195     -0.2182
     93  N         65.1340   59.6110   25.3340 N.am  196  HIS196     -0.1975
     94  CA        65.4090   60.6590   26.3150 C.3   196  HIS196      0.1656
     95  C         66.1180   60.1770   27.5760 C.2   196  HIS196      0.2291
     96  O         66.2940   60.9470   28.5230 O.2   196  HIS196     -0.2864
     97  CB        64.1270   61.4320   26.6480 C.3   196  HIS196      0.0771
     98  CG        63.5050   62.0740   25.4490 C.ar  196  HIS196      0.0820
     99  ND1       63.9770   63.2510   24.9120 N.ar  196  HIS196     -0.2267
    100  CD2       62.4790   61.6830   24.6580 C.ar  196  HIS196      0.1154
    101  CE1       63.2590   63.5680   23.8490 C.ar  196  HIS196      0.1986
    102  NE2       62.3430   62.6320   23.6710 N.ar  196  HIS196     -0.2212
    103  N         66.0020   54.1610   19.9040 N.3   223  ALA223     -0.1231
    104  CA        66.3900   55.4970   20.3340 C.3   223  ALA223      0.1694
    105  C         66.7110   56.3920   19.1520 C.2   223  ALA223      0.2592
    106  O         67.3340   55.9560   18.1730 O.2   223  ALA223     -0.2718
    107  CB        67.5840   55.4310   21.2840 C.3   223  ALA223      0.0304
    108  N         66.2540   57.6370   19.2350 N.am  224  SER224     -0.1952
    109  CA        66.7970   58.6850   18.3900 C.3   224  SER224      0.1924
    110  C         68.2230   58.9050   18.8280 C.2   224  SER224      0.2314
    111  O         68.5250   58.8790   20.0200 O.2   224  SER224     -0.2863
    112  CB        66.0480   59.9980   18.5820 C.3   224  SER224      0.2116
    113  OG        66.7570   61.0510   17.9410 O.3   224  SER224     -0.2180
    114  N         69.5170   61.6890   17.9700 N.3   226  ALA226     -0.1231
    115  CA        69.5140   63.1430   17.8340 C.3   226  ALA226      0.1694
    116  C         69.2760   63.8710   19.1520 C.2   226  ALA226      0.2591
    117  O         69.0080   65.0740   19.1720 O.2   226  ALA226     -0.2718
    118  CB        68.4840   63.5700   16.7970 C.3   226  ALA226      0.0304
    119  N         69.3640   63.1380   20.2520 N.am  227  LYS227     -0.1980
    120  CA        69.2340   63.7440   21.5740 C.3   227  LYS227      0.1596
    121  C         70.6290   63.8310   22.1970 C.2   227  LYS227      0.2287
    122  O         71.4540   64.6420   21.7650 O.2   227  LYS227     -0.2864
    123  CB        68.2700   62.9470   22.4610 C.3   227  LYS227      0.0298
    124  CG        66.9360   62.5850   21.7930 C.3   227  LYS227      0.0038
    125  CD        66.3330   63.7880   21.1100 C.3   227  LYS227      0.0206
    126  CE        64.9660   63.4980   20.5340 C.3   227  LYS227      0.1093
    127  NZ        64.4880   64.7040   19.8160 N.3   227  LYS227     -0.1314
    128  N         70.2470   60.5770   13.3810 N.3   233  ALA233     -0.1245
    129  CA        70.1530   59.1510   13.1120 C.3   233  ALA233      0.1562
    130  C         69.3150   58.4870   14.2050 C.2   233  ALA233      0.2260
    131  O         68.8670   59.1440   15.1420 O.2   233  ALA233     -0.2867
    132  CB        71.5400   58.5230   13.0450 C.3   233  ALA233      0.0290
    133  N         54.6430   72.8320   22.9080 N.3   336  PHE336     -0.1241
    134  CA        54.0710   71.6130   22.3550 C.3   336  PHE336      0.1605
    135  C         52.5500   71.7410   22.3210 C.2   336  PHE336      0.2264
    136  O         51.8900   71.8470   23.3630 O.2   336  PHE336     -0.2867
    137  CB        54.5260   70.3890   23.1570 C.3   336  PHE336      0.0534
    138  CG        55.8930   69.8950   22.7660 C.ar  336  PHE336     -0.0203
    139  CD1       57.0300   70.4910   23.2770 C.ar  336  PHE336     -0.0042
    140  CD2       56.0370   68.8540   21.8610 C.ar  336  PHE336     -0.0042
    141  CE1       58.2880   70.0560   22.9050 C.ar  336  PHE336     -0.0003
    142  CE2       57.2910   68.4090   21.4860 C.ar  336  PHE336     -0.0003
    143  CZ        58.4200   69.0110   22.0090 C.ar  336  PHE336     -0.0000
    144  N         57.6370   73.0230   27.0970 N.3   349  ARG349     -0.1245
    145  CA        58.6570   72.1110   27.5700 C.3   349  ARG349      0.1563
    146  C         59.9830   72.8140   27.8110 C.2   349  ARG349      0.2260
    147  O         60.5020   73.5190   26.9430 O.2   349  ARG349     -0.2867
    148  CB        58.8540   70.9440   26.5920 C.3   349  ARG349      0.0307
    149  CG        59.9010   69.9330   27.0720 C.3   349  ARG349      0.0489
    150  CD        60.1180   68.8010   26.0690 C.3   349  ARG349      0.2205
    151  NE        60.8910   69.2310   24.9040 N.pl3 349  ARG349     -0.0865
    152  CZ        61.2000   68.4370   23.8830 C.cat 349  ARG349      0.5346
    153  NH1       60.7970   67.1710   23.8760 N.pl3 349  ARG349      0.1354
    154  NH2       61.9050   68.9060   22.8620 N.pl3 349  ARG349      0.1354
@<TRIPOS>BOND
     1    27    25   ar
     2    27    28   ar
     3    25    24   ar
     4    14    13    1
     5    30    28   ar
     6    30    32   ar
     7     9    10    1
     8    28    26   ar
     9    13    10    1
    10    24    26   ar
    11    24    23    1
    12    26    29   ar
    13    32    31   ar
    14    10    11    1
    15    23    20    1
    16    21    22    2
    17    21    20    1
    18   132   129    1
    19   129   128    1
    20   129   130    1
    21    12    11    2
    22    31    29   ar
    23    11    15   am
    24    20    19    1
    25   130   131    2
    26    19    17   am
    27    35    36    2
    28    35    34    1
    29    15    16    1
    30    33    34    1
    31    17    18    2
    32    17    16    1
    33    54    53    2
    34    34    37    1
    35    52    55    1
    36    52    53    1
    37    52    51    1
    38    55    56    1
    39    37    38    1
    40   118   115    1
    41    38    39    2
    42    38    40   am
    43    49    47   ar
    44    49    50   ar
    45   115   114    1
    46   115   116    1
    47   113   112    1
    48   106   105    2
    49    47    46   ar
    50   109   112    1
    51   109   110    1
    52   109   108    1
    53    50    48   ar
    54   110   111    2
    55   116   117    2
    56   116   119   am
    57   105   108   am
    58   105   104    1
    59    44    43    2
    60    43    42    1
    61    46    48   ar
    62    46    45    1
    63   127   126    1
    64   103   104    1
    65   119   120    1
    66   104   107    1
    67    45    42    1
    68   126   125    1
    69    86    84   ar
    70    42    41    1
    71     7     6    2
    72    92    91    1
    73   125   124    1
    74   142   140   ar
    75   142   143   ar
    76   120   121    1
    77   120   123    1
    78   122   121    2
    79    84    85   ar
    80    84    83    1
    81   124   123    1
    82   140   138   ar
    83   143   141   ar
    84     6     5    1
    85     6     8   am
    86     5     2    1
    87    91    88    1
    88   135   134    1
    89   135   136    2
    90   134   133    1
    91   134   137    1
    92     1     2    1
    93    83    80    1
    94   138   137    1
    95   138   139   ar
    96   154   152    1
    97   141   139   ar
    98     2     3    1
    99    88    87    1
   100    88    89    1
   101    80    79    1
   102    80    81    1
   103     3     4    2
   104    78    77    1
   105   102   101   ar
   106   102   100   ar
   107   101    99   ar
   108   153   152    1
   109   152   151    2
   110    63    62   ar
   111    77    74    1
   112    90    89    2
   113    89    93   am
   114    81    82    2
   115   100    98   ar
   116    64    62   ar
   117    62    61    1
   118   151   150    1
   119    99    98   ar
   120    93    94    1
   121    98    97    1
   122    74    75    1
   123    74    73    1
   124    76    75    2
   125   150   149    1
   126    57    58    1
   127    61    58    1
   128    58    59    1
   129    94    97    1
   130    94    95    1
   131   148   149    1
   132   148   145    1
   133   147   146    2
   134   144   145    1
   135    68    67    2
   136   145   146    1
   137    95    96    2
   138    59    60    2
   139    67    66    1
   140    65    66    1
   141    66    69    1
   142    69    71    1
   143    69    70    1
   144    70    72    1
