@<TRIPOS>MOLECULE
tmp/2wkaA00.pdb
 214 204 0 0 0
SMALL
GASTEIGER

@<TRIPOS>ATOM
      1  N         59.9490   35.0170    7.6290 N.3    14  TYR14      -0.1241
      2  CA        60.6040   35.9360    6.7020 C.3    14  TYR14       0.1605
      3  C         61.9710   35.3980    6.3140 C.2    14  TYR14       0.2264
      4  O         62.3260   35.3560    5.1390 O.2    14  TYR14      -0.2867
      5  CB        60.7560   37.3290    7.3120 C.3    14  TYR14       0.0534
      6  CG        61.3870   38.3130    6.3520 C.ar   14  TYR14      -0.0201
      7  CD1       60.6120   38.9660    5.3990 C.ar   14  TYR14      -0.0009
      8  CD2       62.7540   38.5780    6.3850 C.ar   14  TYR14      -0.0009
      9  CE1       61.1740   39.8590    4.5100 C.ar   14  TYR14       0.0417
     10  CE2       63.3270   39.4740    5.4870 C.ar   14  TYR14       0.0417
     11  CZ        62.5250   40.1100    4.5510 C.ar   14  TYR14       0.1957
     12  OH        63.0640   41.0080    3.6530 O.3    14  TYR14      -0.2866
     13  N         69.6840   37.9630    1.4000 N.3    27  HIS27      -0.1241
     14  CA        68.5990   38.6140    0.6930 C.3    27  HIS27       0.1621
     15  C         69.0350   38.8140   -0.7480 C.2    27  HIS27       0.2264
     16  O         70.2130   39.0300   -1.0220 O.2    27  HIS27      -0.2867
     17  CB        68.2560   39.9670    1.3170 C.3    27  HIS27       0.0745
     18  CG        67.0450   40.6080    0.7160 C.ar   27  HIS27       0.0817
     19  ND1       67.0780   41.2780   -0.4880 N.ar   27  HIS27      -0.2268
     20  CD2       65.7610   40.6600    1.1440 C.ar   27  HIS27       0.1154
     21  CE1       65.8670   41.7250   -0.7720 C.ar   27  HIS27       0.1986
     22  NE2       65.0500   41.3630    0.2030 N.ar   27  HIS27      -0.2212
     23  N         69.0280   41.1510   -2.8090 N.3    29  VAL29      -0.1245
     24  CA        69.7470   42.3600   -3.2110 C.3    29  VAL29       0.1561
     25  C         71.2340   42.2640   -2.8980 C.2    29  VAL29       0.2260
     26  O         72.0110   43.1150   -3.3240 O.2    29  VAL29      -0.2867
     27  CB        69.1710   43.6370   -2.5580 C.3    29  VAL29       0.0252
     28  CG1       67.7350   43.8740   -3.0140 C.3    29  VAL29       0.0019
     29  CG2       69.2700   43.5510   -1.0440 C.3    29  VAL29       0.0019
     30  N         73.6310   56.8080   -7.1210 N.3    44  ASN44      -0.1240
     31  CA        72.7860   57.8310   -7.7320 C.3    44  ASN44       0.1653
     32  C         73.4980   59.1680   -7.7990 C.2    44  ASN44       0.2266
     33  O         72.8920   60.1940   -8.1040 O.2    44  ASN44      -0.2867
     34  CB        71.4980   58.0000   -6.9280 C.3    44  ASN44       0.1155
     35  CG        70.7430   56.7090   -6.7690 C.2    44  ASN44       0.2627
     36  OD1       70.2450   56.1510   -7.7400 O.2    44  ASN44      -0.2716
     37  ND2       70.6220   56.2420   -5.5310 N.am   44  ASN44      -0.0877
     38  N         64.9960   64.3680    4.0020 N.3   104  SER104     -0.1202
     39  CA        65.1290   63.3380    2.9880 C.3   104  SER104      0.2020
     40  C         64.0870   63.5920    1.9210 C.2   104  SER104      0.2619
     41  O         63.1100   64.2980    2.1670 O.2   104  SER104     -0.2717
     42  CB        64.8970   61.9510    3.6000 C.3   104  SER104      0.2103
     43  OG        63.5930   61.8410    4.1590 O.3   104  SER104     -0.2182
     44  N         64.2890   63.0290    0.7320 N.am  105  GLY105     -0.1942
     45  CA        63.2770   63.1040   -0.3200 C.3   105  GLY105      0.2014
     46  C         61.9860   62.4290    0.1220 C.2   105  GLY105      0.2638
     47  O         60.8810   62.8630   -0.2610 O.2   105  GLY105     -0.2714
     48  N         62.1300   61.3530    0.8950 N.am  106  TRP106     -0.1973
     49  CA        60.9750   60.6170    1.4200 C.3   106  TRP106      0.1640
     50  C         60.1090   61.5790    2.2580 C.2   106  TRP106      0.2290
     51  O         58.9090   61.7230    2.0210 O.2   106  TRP106     -0.2864
     52  CB        61.4240   59.4090    2.2630 C.3   106  TRP106      0.0576
     53  CG        60.2730   58.6810    2.9150 C.ar  106  TRP106      0.0006
     54  CD1       59.5680   59.0890    4.0060 C.ar  106  TRP106      0.0946
     55  CD2       59.6590   57.4580    2.4750 C.ar  106  TRP106      0.0152
     56  NE1       58.5630   58.1950    4.2840 N.ar  106  TRP106     -0.2442
     57  CE2       58.6010   57.1780    3.3690 C.ar  106  TRP106      0.0810
     58  CE3       59.9150   56.5650    1.4310 C.ar  106  TRP106      0.0012
     59  CZ2       57.7930   56.0430    3.2450 C.ar  106  TRP106      0.0191
     60  CZ3       59.1070   55.4350    1.3070 C.ar  106  TRP106      0.0001
     61  CH2       58.0640   55.1860    2.2100 C.ar  106  TRP106      0.0015
     62  N         58.2180   64.2910    0.2140 N.3   109  ASN109     -0.1240
     63  CA        57.0000   63.8160   -0.4210 C.3   109  ASN109      0.1653
     64  C         55.8480   63.5730    0.5830 C.2   109  ASN109      0.2266
     65  O         54.6900   63.9940    0.3520 O.2   109  ASN109     -0.2867
     66  CB        57.3060   62.5450   -1.2070 C.3   109  ASN109      0.1155
     67  CG        57.9890   62.8300   -2.5380 C.2   109  ASN109      0.2627
     68  OD1       57.9110   63.9470   -3.0710 O.2   109  ASN109     -0.2716
     69  ND2       58.6280   61.8160   -3.0970 N.am  109  ASN109     -0.0877
     70  N         57.1900   56.9360   -7.1370 N.3   130  HIS130     -0.1241
     71  CA        57.9940   56.4510   -6.0340 C.3   130  HIS130      0.1621
     72  C         57.1480   56.0470   -4.8310 C.2   130  HIS130      0.2264
     73  O         56.1070   56.6270   -4.5810 O.2   130  HIS130     -0.2867
     74  CB        59.0530   57.4820   -5.6280 C.3   130  HIS130      0.0745
     75  CG        60.0820   56.9340   -4.6930 C.ar  130  HIS130      0.0817
     76  ND1       60.0720   57.1870   -3.3410 N.ar  130  HIS130     -0.2268
     77  CD2       61.1430   56.1220   -4.9170 C.ar  130  HIS130      0.1154
     78  CE1       61.0930   56.5700   -2.7700 C.ar  130  HIS130      0.1986
     79  NE2       61.7630   55.9230   -3.7050 N.ar  130  HIS130     -0.2212
     80  N         57.3980   56.5660   -1.7160 N.3   132  SER132     -0.1217
     81  CA        57.1420   57.6540   -0.7780 C.3   132  SER132      0.1889
     82  C         55.9050   58.4650   -1.1630 C.2   132  SER132      0.2288
     83  O         55.2160   59.0110   -0.2960 O.2   132  SER132     -0.2866
     84  CB        58.3680   58.5770   -0.6570 C.3   132  SER132      0.2089
     85  OG        58.6880   59.1670   -1.9170 O.3   132  SER132     -0.2183
     86  N         56.7830   60.9190  -11.1380 N.3   170  ASP170     -0.1239
     87  CA        58.2360   61.1420  -11.1490 C.3   170  ASP170      0.1674
     88  C         58.5060   61.8210  -12.4910 C.2   170  ASP170      0.2266
     89  O         57.8480   61.5030  -13.4890 O.2   170  ASP170     -0.2867
     90  CB        59.0250   59.8240  -11.1560 C.3   170  ASP170      0.1410
     91  CG        58.9430   59.0380   -9.8480 C.2   170  ASP170      0.3668
     92  OD1       58.1880   59.3880   -8.9110 O.co2 170  ASP170     -0.2456
     93  OD2       59.6620   58.0220   -9.7710 O.co2 170  ASP170     -0.2456
     94  N         61.5790   61.6190  -13.9280 N.3   172  ILE172     -0.1245
     95  CA        62.2670   60.4550  -14.4370 C.3   172  ILE172      0.1561
     96  C         62.0920   59.3240  -13.4420 C.2   172  ILE172      0.2260
     97  O         62.3880   59.4810  -12.2530 O.2   172  ILE172     -0.2867
     98  CB        63.7730   60.7330  -14.6700 C.3   172  ILE172      0.0252
     99  CG1       63.9440   61.7300  -15.8200 C.3   172  ILE172      0.0019
    100  CG2       64.5130   59.4340  -14.9740 C.3   172  ILE172      0.0019
    101  CD1       65.3930   62.1590  -16.0540 C.3   172  ILE172      0.0001
    102  N         62.2850   55.9340  -11.2340 N.3   174  SER174     -0.1217
    103  CA        63.4440   55.4410  -10.5130 C.3   174  SER174      0.1889
    104  C         63.8770   54.0190  -10.8670 C.2   174  SER174      0.2288
    105  O         65.0510   53.7060  -10.7730 O.2   174  SER174     -0.2866
    106  CB        63.2670   55.6160   -8.9950 C.3   174  SER174      0.2089
    107  OG        62.1720   54.8750   -8.5120 O.3   174  SER174     -0.2183
    108  N         58.0650   64.8090   -8.9230 N.3   199  ASP199     -0.1239
    109  CA        59.2700   64.4180   -8.1860 C.3   199  ASP199      0.1674
    110  C         60.4530   64.3770   -9.1680 C.2   199  ASP199      0.2266
    111  O         60.5320   63.4830  -10.0230 O.2   199  ASP199     -0.2867
    112  CB        59.0550   63.0600   -7.4900 C.3   199  ASP199      0.1410
    113  CG        60.2590   62.6070   -6.6550 C.2   199  ASP199      0.3668
    114  OD1       61.4180   62.9430   -6.9920 O.co2 199  ASP199     -0.2456
    115  OD2       60.0510   61.8870   -5.6520 O.co2 199  ASP199     -0.2456
    116  N         63.6740   63.9170   -8.4300 N.3   201  SER201     -0.1202
    117  CA        64.8680   63.3290   -7.8020 C.3   201  SER201      0.2020
    118  C         65.9280   62.8820   -8.8180 C.2   201  SER201      0.2618
    119  O         67.1410   63.0180   -8.5740 O.2   201  SER201     -0.2717
    120  CB        64.4900   62.1470   -6.9040 C.3   201  SER201      0.2103
    121  OG        63.6360   62.5520   -5.8550 O.3   201  SER201     -0.2182
    122  N         65.4780   62.3340   -9.9430 N.am  202  HIS202     -0.1975
    123  CA        66.4090   61.7720  -10.9230 C.3   202  HIS202      0.1656
    124  C         66.6990   62.6720  -12.1340 C.2   202  HIS202      0.2291
    125  O         67.4860   62.3060  -13.0090 O.2   202  HIS202     -0.2864
    126  CB        65.9680   60.3640  -11.3450 C.3   202  HIS202      0.0771
    127  CG        65.8870   59.4070  -10.1960 C.ar  202  HIS202      0.0820
    128  ND1       66.9930   58.7650   -9.6870 N.ar  202  HIS202     -0.2267
    129  CD2       64.8390   59.0210   -9.4260 C.ar  202  HIS202      0.1154
    130  CE1       66.6300   58.0120   -8.6630 C.ar  202  HIS202      0.1986
    131  NE2       65.3280   58.1470   -8.4840 N.ar  202  HIS202     -0.2212
    132  N         64.6590   64.3020   -3.7740 N.3   230  SER230     -0.1217
    133  CA        65.7370   63.8680   -2.8960 C.3   230  SER230      0.1889
    134  C         66.9930   64.6540   -3.2630 C.2   230  SER230      0.2288
    135  O         67.2860   64.8340   -4.4610 O.2   230  SER230     -0.2866
    136  CB        66.0610   62.3980   -3.1230 C.3   230  SER230      0.2089
    137  OG        67.2180   62.0550   -2.3780 O.3   230  SER230     -0.2183
    138  N         69.7420   63.3490   -2.3520 N.3   232  ALA232     -0.1231
    139  CA        70.6640   62.2110   -2.1970 C.3   232  ALA232      0.1694
    140  C         71.0880   61.5790   -3.5280 C.2   232  ALA232      0.2591
    141  O         71.7300   60.5320   -3.5510 O.2   232  ALA232     -0.2718
    142  CB        70.0520   61.1450   -1.2780 C.3   232  ALA232      0.0304
    143  N         70.7420   62.2310   -4.6330 N.am  233  LYS233     -0.1980
    144  CA        71.1130   61.7360   -5.9460 C.3   233  LYS233      0.1596
    145  C         72.1840   62.6640   -6.5140 C.2   233  LYS233      0.2287
    146  O         73.3110   62.6380   -6.0540 O.2   233  LYS233     -0.2864
    147  CB        69.8910   61.6520   -6.8730 C.3   233  LYS233      0.0298
    148  CG        68.6200   61.0410   -6.2450 C.3   233  LYS233      0.0038
    149  CD        68.8910   59.7530   -5.5100 C.3   233  LYS233      0.0206
    150  CE        67.5800   59.1370   -5.0110 C.3   233  LYS233      0.1093
    151  NZ        67.7890   58.4940   -3.7030 N.3   233  LYS233     -0.1314
    152  N         69.1990   64.4230    2.2710 N.3   239  ALA239     -0.1245
    153  CA        68.2350   65.4880    2.5250 C.3   239  ALA239      0.1562
    154  C         67.2490   65.5200    1.3790 C.2   239  ALA239      0.2260
    155  O         67.3450   64.7100    0.4530 O.2   239  ALA239     -0.2867
    156  CB        68.9300   66.8150    2.6630 C.3   239  ALA239      0.0290
    157  N         69.8610   45.1240   -7.7660 N.3   341  VAL341     -0.1231
    158  CA        68.6310   44.3500   -7.8160 C.3   341  VAL341      0.1692
    159  C         67.4650   45.1430   -7.2300 C.2   341  VAL341      0.2592
    160  O         67.4850   45.5290   -6.0680 O.2   341  VAL341     -0.2718
    161  CB        68.7290   43.0540   -6.9990 C.3   341  VAL341      0.0266
    162  CG1       67.3520   42.4340   -6.8800 C.3   341  VAL341      0.0020
    163  CG2       69.7120   42.0850   -7.6280 C.3   341  VAL341      0.0020
    164  N         66.4460   45.3830   -8.0380 N.am  342  PHE342     -0.1962
    165  CA        65.2060   45.9320   -7.5280 C.3   342  PHE342      0.1771
    166  C         64.1690   44.8180   -7.4860 C.2   342  PHE342      0.2620
    167  O         63.8900   44.1720   -8.4890 O.2   342  PHE342     -0.2715
    168  CB        64.7300   47.1060   -8.3880 C.3   342  PHE342      0.0574
    169  CG        65.2810   48.4300   -7.9470 C.ar  342  PHE342     -0.0200
    170  CD1       66.6300   48.7100   -8.0780 C.ar  342  PHE342     -0.0042
    171  CD2       64.4530   49.3890   -7.3880 C.ar  342  PHE342     -0.0042
    172  CE1       67.1440   49.9300   -7.6610 C.ar  342  PHE342     -0.0003
    173  CE2       64.9550   50.6090   -6.9660 C.ar  342  PHE342     -0.0003
    174  CZ        66.2960   50.8830   -7.1040 C.ar  342  PHE342     -0.0000
    175  N         63.6250   44.5760   -6.3060 N.am  343  CYS343     -0.1954
    176  CA        62.7080   43.4730   -6.1280 C.3   343  CYS343      0.1843
    177  C         61.5970   43.9140   -5.2130 C.2   343  CYS343      0.2625
    178  O         61.4490   45.0940   -4.9080 O.2   343  CYS343     -0.2714
    179  CB        63.4290   42.2500   -5.5490 C.3   343  CYS343      0.0997
    180  SG        64.2960   42.5370   -3.9710 S.3   343  CYS343     -0.0797
    181  N         60.8100   42.9580   -4.7670 N.am  344  ARG344     -0.1964
    182  CA        59.6850   43.2970   -3.9430 C.3   344  ARG344      0.1714
    183  C         60.0650   43.8130   -2.5700 C.2   344  ARG344      0.2458
    184  O         60.9000   43.2030   -1.9120 O.2   344  ARG344     -0.2730
    185  CB        58.8150   42.0680   -3.7160 C.3   344  ARG344      0.0347
    186  CG        59.3820   41.1970   -2.6170 C.3   344  ARG344      0.0492
    187  CD        59.2830   39.7270   -2.9440 C.3   344  ARG344      0.2205
    188  NE        58.0210   39.1750   -2.4860 N.pl3 344  ARG344     -0.0865
    189  CZ        57.8910   37.9480   -1.9990 C.cat 344  ARG344      0.5346
    190  NH1       58.9510   37.1550   -1.9050 N.pl3 344  ARG344      0.1354
    191  NH2       56.7050   37.5190   -1.5980 N.pl3 344  ARG344      0.1354
    192  N         59.7270   45.0770   -2.3210 N.am  345  PRO345     -0.2716
    193  CA        58.3920   45.5470   -2.0600 C.3   345  PRO345      0.1536
    194  C         58.3790   46.6760   -3.0920 C.2   345  PRO345      0.2598
    195  O         57.3700   47.3380   -3.3100 O.2   345  PRO345     -0.2715
    196  CB        58.4340   46.0750   -0.6200 C.3   345  PRO345      0.0310
    197  CG        59.8270   46.3440   -0.3300 C.3   345  PRO345      0.0237
    198  CD        60.6910   45.7420   -1.4260 C.3   345  PRO345      0.0939
    199  N         59.5300   46.8690   -3.7430 N.am  346  ALA346     -0.1978
    200  CA        59.6770   47.9170   -4.7590 C.3   346  ALA346      0.1597
    201  C         59.0200   47.5330   -6.0780 C.2   346  ALA346      0.2287
    202  O         58.4430   48.3710   -6.7530 O.2   346  ALA346     -0.2864
    203  CB        61.1520   48.2620   -4.9810 C.3   346  ALA346      0.0319
    204  N         68.8700   47.2240  -12.0160 N.3   355  ARG355     -0.1245
    205  CA        69.0020   48.5950  -12.4720 C.3   355  ARG355      0.1563
    206  C         70.4520   49.0140  -12.6910 C.2   355  ARG355      0.2260
    207  O         71.2930   48.8640  -11.8060 O.2   355  ARG355     -0.2867
    208  CB        68.3300   49.5550  -11.4860 C.3   355  ARG355      0.0307
    209  CG        68.1950   50.9660  -12.0300 C.3   355  ARG355      0.0489
    210  CD        67.6120   51.8970  -10.9940 C.3   355  ARG355      0.2205
    211  NE        68.5730   52.1840   -9.9290 N.pl3 355  ARG355     -0.0865
    212  CZ        68.3330   53.0320   -8.9350 C.cat 355  ARG355      0.5346
    213  NH1       67.1740   53.6750   -8.8940 N.pl3 355  ARG355      0.1354
    214  NH2       69.2460   53.2390   -7.9930 N.pl3 355  ARG355      0.1354
@<TRIPOS>BOND
     1   101    99    1
     2    99    98    1
     3   100    98    1
     4    98    95    1
     5    95    94    1
     6    95    96    1
     7    89    88    2
     8    96    97    2
     9   125   124    2
    10   206   205    1
    11   206   207    2
    12    88    87    1
    13   205   204    1
    14   205   208    1
    15   124   123    1
    16   209   208    1
    17   209   210    1
    18   126   123    1
    19   126   127    1
    20   102   103    1
    21    90    87    1
    22    90    91    1
    23    87    86    1
    24   210   211    1
    25   123   122    1
    26   104   105    2
    27   104   103    1
    28   103   106    1
    29   127   128   ar
    30   127   129   ar
    31   111   110    2
    32   122   118   am
    33   211   212    2
    34    91    93   ar
    35    91    92   ar
    36   128   130   ar
    37   129   131   ar
    38   110   109    1
    39   106   107    1
    40   212   213    1
    41   212   214    1
    42   108   109    1
    43   118   119    2
    44   118   117    1
    45   130   131   ar
    46   167   166    2
    47   116   117    1
    48   168   169    1
    49   168   165    1
    50   109   112    1
    51    33    32    2
    52   170   169   ar
    53   170   172   ar
    54   164   165    1
    55   164   159   am
    56   169   171   ar
    57   158   157    1
    58   158   159    1
    59   158   161    1
    60   117   120    1
    61    32    31    1
    62    36    35    2
    63    31    30    1
    64    31    34    1
    65   172   174   ar
    66   163   161    1
    67   165   166    1
    68   112   113    1
    69   166   175   am
    70   171   173   ar
    71   159   160    2
    72    70    71    1
    73   174   173   ar
    74   161   162    1
    75   114   113   ar
    76    34    35    1
    77   120   121    1
    78   147   148    1
    79   147   144    1
    80    35    37   am
    81   202   201    2
    82   113   115   ar
    83   145   146    2
    84   145   144    1
    85   175   176    1
    86   148   149    1
    87   176   179    1
    88   176   177    1
    89   201   200    1
    90    71    74    1
    91    71    72    1
    92   144   143    1
    93    74    75    1
    94   179   180    1
    95   149   150    1
    96   177   178    2
    97   177   181   am
    98   150   151    1
    99   203   200    1
   100    77    75   ar
   101    77    79   ar
   102    72    73    2
   103   181   182    1
   104   200   199    1
   105    75    76   ar
   106   143   140   am
   107   135   134    2
   108   182   185    1
   109   182   183    1
   110   132   133    1
   111   199   194   am
   112   185   186    1
   113    79    78   ar
   114   141   140    2
   115   140   139    1
   116    76    78   ar
   117    26    25    2
   118   195   194    2
   119   134   133    1
   120    24    25    1
   121    24    23    1
   122    24    27    1
   123   136   133    1
   124   136   137    1
   125    69    67   am
   126   194   193    1
   127    68    67    2
   128    28    27    1
   129   187   186    1
   130   187   188    1
   131   183   192   am
   132   183   184    2
   133    27    29    1
   134    67    66    1
   135   188   189    2
   136   138   139    1
   137   192   193    1
   138   192   198    1
   139   139   142    1
   140   193   196    1
   141   189   190    1
   142   189   191    1
   143    85    84    1
   144    80    81    1
   145   198   197    1
   146    66    63    1
   147    82    81    1
   148    82    83    2
   149    16    15    2
   150    81    84    1
   151    21    19   ar
   152    21    22   ar
   153    15    14    1
   154   196   197    1
   155    19    18   ar
   156    63    62    1
   157    63    64    1
   158    45    46    1
   159    45    44    1
   160    47    46    2
   161    46    48   am
   162    22    20   ar
   163    65    64    2
   164   155   154    2
   165    14    17    1
   166    14    13    1
   167    18    20   ar
   168    18    17    1
   169    44    40   am
   170    48    49    1
   171    60    58   ar
   172    60    61   ar
   173   154   153    1
   174    49    50    1
   175    49    52    1
   176    58    55   ar
   177    40    41    2
   178    40    39    1
   179    51    50    2
   180    61    59   ar
   181    52    53    1
   182   152   153    1
   183    55    53   ar
   184    55    57   ar
   185   153   156    1
   186    53    54   ar
   187    39    42    1
   188    39    38    1
   189    59    57   ar
   190    57    56   ar
   191    42    43    1
   192    12    11    1
   193    54    56   ar
   194     9    11   ar
   195     9     7   ar
   196    11    10   ar
   197     4     3    2
   198     7     6   ar
   199    10     8   ar
   200     3     2    1
   201     6     8   ar
   202     6     5    1
   203     2     5    1
   204     2     1    1
