@<TRIPOS>MOLECULE
tmp/2wkeA00.pdb
 91 86 0 0 0
SMALL
GASTEIGER

@<TRIPOS>ATOM
      1  N         -1.4200   -5.8350   31.2340 N.3    48  ALA48      -0.1231
      2  CA        -1.2480   -4.7000   32.1630 C.3    48  ALA48       0.1694
      3  C         -0.1670   -5.0450   33.2120 C.2    48  ALA48       0.2592
      4  O          0.8750   -5.5900   32.8370 O.2    48  ALA48      -0.2718
      5  CB        -2.5570   -4.3250   32.8190 C.3    48  ALA48       0.0304
      6  N         -0.4250   -4.7780   34.4990 N.am   49  SER49      -0.1952
      7  CA         0.5570   -4.9750   35.5780 C.3    49  SER49       0.1924
      8  C          0.9300   -6.4120   35.9110 C.2    49  SER49       0.2314
      9  O          1.8010   -6.6160   36.7480 O.2    49  SER49      -0.2863
     10  CB         0.1510   -4.2430   36.8800 C.3    49  SER49       0.2116
     11  OG         0.1460   -2.8300   36.7180 O.3    49  SER49      -0.2180
     12  N          1.8140    6.7690   38.2380 N.3   147  TYR147     -0.1241
     13  CA         2.1640    5.4910   37.6020 C.3   147  TYR147      0.1605
     14  C          2.9590    5.7460   36.3250 C.2   147  TYR147      0.2264
     15  O          3.5540    4.8270   35.7650 O.2   147  TYR147     -0.2867
     16  CB         0.8970    4.6850   37.2660 C.3   147  TYR147      0.0534
     17  CG        -0.0420    5.3810   36.2800 C.ar  147  TYR147     -0.0201
     18  CD1       -1.0240    6.2740   36.7260 C.ar  147  TYR147     -0.0009
     19  CD2        0.0650    5.1570   34.9110 C.ar  147  TYR147     -0.0009
     20  CE1       -1.8890    6.9310   35.8300 C.ar  147  TYR147      0.0417
     21  CE2       -0.7940    5.7930   33.9920 C.ar  147  TYR147      0.0417
     22  CZ        -1.7700    6.6810   34.4630 C.ar  147  TYR147      0.1957
     23  OH        -2.6180    7.3170   33.5690 O.3   147  TYR147     -0.2866
     24  N          1.6490   -2.5230   45.7420 N.3   297  PHE297     -0.1227
     25  CA         0.9800   -1.3430   45.2030 C.3   297  PHE297      0.1736
     26  C          1.1630   -1.2330   43.6910 C.2   297  PHE297      0.2596
     27  O          0.6600   -0.2930   43.0520 O.2   297  PHE297     -0.2718
     28  CB         1.4570   -0.0950   45.9400 C.3   297  PHE297      0.0547
     29  CG         1.2730   -0.1900   47.4240 C.ar  297  PHE297     -0.0202
     30  CD1        0.0010   -0.1190   47.9840 C.ar  297  PHE297     -0.0042
     31  CD2        2.3730   -0.3810   48.2660 C.ar  297  PHE297     -0.0042
     32  CE1       -0.1850   -0.2500   49.3550 C.ar  297  PHE297     -0.0003
     33  CE2        2.2080   -0.4940   49.6450 C.ar  297  PHE297     -0.0003
     34  CZ         0.9220   -0.4240   50.1960 C.ar  297  PHE297     -0.0000
     35  N          1.8690   -2.2180   43.1310 N.am  298  SER298     -0.1952
     36  CA         2.1200   -2.2970   41.7040 C.3   298  SER298      0.1924
     37  C          2.7990   -1.0040   41.2170 C.2   298  SER298      0.2314
     38  O          2.2400   -0.2290   40.4050 O.2   298  SER298     -0.2863
     39  CB         0.8030   -2.5440   40.9670 C.3   298  SER298      0.2116
     40  OG         1.0700   -2.8650   39.6290 O.3   298  SER298     -0.2180
     41  N          5.0570    1.1980   39.2090 N.3   300  ASN300     -0.1240
     42  CA         5.5720    1.2780   37.8440 C.3   300  ASN300      0.1653
     43  C          6.9940    1.7900   37.7390 C.2   300  ASN300      0.2266
     44  O          7.7910    1.1800   37.0500 O.2   300  ASN300     -0.2867
     45  CB         4.6690    2.1640   36.9670 C.3   300  ASN300      0.1155
     46  CG         3.4010    1.4540   36.4860 C.2   300  ASN300      0.2627
     47  OD1        3.1820    0.2420   36.7130 O.2   300  ASN300     -0.2716
     48  ND2        2.5700    2.2070   35.7740 N.am  300  ASN300     -0.0877
     49  N          6.8480   -2.6800   33.7910 N.3   347  SER347     -0.1202
     50  CA         5.6750   -2.3830   34.6130 C.3   347  SER347      0.2020
     51  C          4.3400   -2.9540   34.1080 C.2   347  SER347      0.2619
     52  O          3.4080   -3.1380   34.9040 O.2   347  SER347     -0.2717
     53  CB         5.5530   -0.8670   34.8350 C.3   347  SER347      0.2103
     54  OG         5.2230   -0.1800   33.6350 O.3   347  SER347     -0.2182
     55  N          4.2470   -3.2200   32.8020 N.am  348  GLY348     -0.1942
     56  CA         2.9590   -3.4920   32.1400 C.3   348  GLY348      0.2014
     57  C          2.1900   -2.2680   31.6540 C.2   348  GLY348      0.2638
     58  O          1.1700   -2.4020   30.9890 O.2   348  GLY348     -0.2714
     59  N          2.6650   -1.0650   31.9750 N.am  349  LEU349     -0.1977
     60  CA         2.0210    0.1540   31.4660 C.3   349  LEU349      0.1596
     61  C          1.8530    0.1010   29.9280 C.2   349  LEU349      0.2287
     62  O          0.8130    0.5000   29.4050 O.2   349  LEU349     -0.2864
     63  CB         2.7900    1.4100   31.9030 C.3   349  LEU349      0.0297
     64  CG         2.0920    2.7560   32.2100 C.3   349  LEU349      0.0022
     65  CD1        3.0930    3.8880   32.4120 C.3   349  LEU349      0.0001
     66  CD2        1.0650    3.1960   31.1970 C.3   349  LEU349      0.0001
     67  N         -3.0790   -3.9410   46.2850 N.3   393  THR393     -0.1218
     68  CA        -4.2190   -3.7160   45.3870 C.3   393  THR393      0.1862
     69  C         -5.3560   -4.7470   45.5660 C.2   393  THR393      0.2287
     70  O         -6.3810   -4.6330   44.9230 O.2   393  THR393     -0.2866
     71  CB        -3.7770   -3.7590   43.9210 C.3   393  THR393      0.1770
     72  OG1       -3.1030   -4.9900   43.7030 O.3   393  THR393     -0.2211
     73  CG2       -2.8350   -2.6060   43.5880 C.3   393  THR393      0.0375
     74  N         -2.4250   -8.1050   40.4710 N.3   411  THR411     -0.1203
     75  CA        -3.4650   -7.5060   39.6680 C.3   411  THR411      0.1994
     76  C         -2.8680   -6.7800   38.4650 C.2   411  THR411      0.2618
     77  O         -1.6510   -6.5740   38.3770 O.2   411  THR411     -0.2717
     78  CB        -4.2500   -6.5060   40.4670 C.3   411  THR411      0.1784
     79  OG1       -3.3370   -5.5750   41.0580 O.3   411  THR411     -0.2211
     80  CG2       -5.0650   -7.1990   41.5330 C.3   411  THR411      0.0376
     81  N         -3.7390   -6.3960   37.5430 N.am  412  GLY412     -0.1942
     82  CA        -3.3400   -5.6150   36.3920 C.3   412  GLY412      0.2014
     83  C         -4.5990   -5.0580   35.7660 C.2   412  GLY412      0.2639
     84  O         -5.5980   -5.7710   35.6420 O.2   412  GLY412     -0.2714
     85  N         -4.5590   -3.7850   35.3820 N.am  413  THR413     -0.1950
     86  CA        -5.7640   -3.1090   34.9460 C.3   413  THR413      0.1897
     87  C         -5.4510   -1.9420   34.0490 C.2   413  THR413      0.2313
     88  O         -4.5740   -1.1500   34.3740 O.2   413  THR413     -0.2863
     89  CB        -6.5830   -2.6250   36.1590 C.3   413  THR413      0.1794
     90  OG1       -6.8360   -3.7460   37.0420 O.3   413  THR413     -0.2208
     91  CG2       -7.9000   -1.9960   35.7180 C.3   413  THR413      0.0378
@<TRIPOS>BOND
     1    62    61    2
     2    61    60    1
     3    58    57    2
     4    66    64    1
     5     1     2    1
     6    60    63    1
     7    60    59    1
     8    57    59   am
     9    57    56    1
    10    63    64    1
    11    56    55    1
    12     2     5    1
    13     2     3    1
    14    64    65    1
    15    55    51   am
    16     4     3    2
    17     3     6   am
    18    23    22    1
    19    54    53    1
    20    49    50    1
    21    21    22   ar
    22    21    19   ar
    23    87    88    2
    24    87    86    1
    25    51    50    1
    26    51    52    2
    27    22    20   ar
    28     6     7    1
    29    50    53    1
    30    19    17   ar
    31    86    85    1
    32    86    89    1
    33    85    83   am
    34     7     8    1
    35     7    10    1
    36    84    83    2
    37    91    89    1
    38    15    14    2
    39    83    82    1
    40    48    46   am
    41    20    18   ar
    42     8     9    2
    43    89    90    1
    44    17    18   ar
    45    17    16    1
    46    14    13    1
    47    82    81    1
    48    46    47    2
    49    46    45    1
    50    11    10    1
    51    45    42    1
    52    44    43    2
    53    16    13    1
    54    81    76   am
    55    13    12    1
    56    43    42    1
    57    42    41    1
    58    77    76    2
    59    76    75    1
    60    40    39    1
    61    75    78    1
    62    75    74    1
    63    38    37    2
    64    78    79    1
    65    78    80    1
    66    39    36    1
    67    37    36    1
    68    36    35    1
    69    27    26    2
    70    35    26   am
    71    73    71    1
    72    26    25    1
    73    72    71    1
    74    71    68    1
    75    70    69    2
    76    25    24    1
    77    25    28    1
    78    68    69    1
    79    68    67    1
    80    28    29    1
    81    29    30   ar
    82    29    31   ar
    83    30    32   ar
    84    31    33   ar
    85    32    34   ar
    86    33    34   ar
