@<TRIPOS>MOLECULE
tmp/2wkhB00.pdb
 137 130 0 0 0
SMALL
GASTEIGER

@<TRIPOS>ATOM
      1  N         15.4670  -17.7790   91.1840 N.3    48  ALA48      -0.1231
      2  CA        15.1840  -18.5270   89.9720 C.3    48  ALA48       0.1694
      3  C         15.4600  -17.6320   88.7650 C.2    48  ALA48       0.2592
      4  O         16.4820  -16.9320   88.7130 O.2    48  ALA48      -0.2718
      5  CB        13.7090  -19.0840   89.9720 C.3    48  ALA48       0.0304
      6  N         14.5390  -17.6100   87.8130 N.am   49  SER49      -0.1952
      7  CA        14.8250  -16.9570   86.5380 C.3    49  SER49       0.1924
      8  C         14.9580  -15.4270   86.6070 C.2    49  SER49       0.2314
      9  O         15.4350  -14.7730   85.6440 O.2    49  SER49      -0.2863
     10  CB        13.8150  -17.4060   85.4880 C.3    49  SER49       0.2116
     11  OG        13.9480  -18.8160   85.2760 O.3    49  SER49      -0.2180
     12  N         12.6980  -27.9140   77.5240 N.3    81  MET81      -0.1245
     13  CA        11.4660  -27.3120   77.0430 C.3    81  MET81       0.1570
     14  C         11.5570  -26.9800   75.5640 C.2    81  MET81       0.2261
     15  O         12.5960  -26.5290   75.0790 O.2    81  MET81      -0.2867
     16  CB        11.1240  -26.0730   77.8720 C.3    81  MET81       0.0387
     17  CG        11.1060  -26.3320   79.3710 C.3    81  MET81       0.0595
     18  SD        10.3070  -24.9970   80.2460 S.3    81  MET81      -0.1393
     19  CE         8.5850  -25.3730   79.9520 C.3    81  MET81       0.0692
     20  N         10.4720  -24.6620   73.7170 N.3    83  GLN83      -0.1231
     21  CA        10.7230  -23.2830   73.3060 C.3    83  GLN83       0.1698
     22  C         12.2040  -22.9260   73.3980 C.2    83  GLN83       0.2592
     23  O         12.6290  -21.8600   72.9430 O.2    83  GLN83      -0.2718
     24  CB         9.9010  -22.3200   74.1570 C.3    83  GLN83       0.0381
     25  CG         8.6800  -22.9650   74.8080 C.3    83  GLN83       0.0905
     26  CD         8.9900  -23.5350   76.1900 C.2    83  GLN83       0.2608
     27  OE1        8.6500  -24.6850   76.4910 O.2    83  GLN83      -0.2717
     28  NE2        9.6430  -22.7270   77.0340 N.am   83  GLN83      -0.0878
     29  N         12.9940  -23.8160   73.9900 N.am   84  TRP84      -0.1976
     30  CA        14.4400  -23.6000   74.1040 C.3    84  TRP84       0.1640
     31  C         15.2520  -24.1980   72.9430 C.2    84  TRP84       0.2290
     32  O         16.4690  -23.9750   72.8260 O.2    84  TRP84      -0.2864
     33  CB        14.9590  -24.1770   75.4150 C.3    84  TRP84       0.0576
     34  CG        14.3600  -23.5500   76.6000 C.ar   84  TRP84       0.0006
     35  CD1       13.6220  -22.3990   76.6470 C.ar   84  TRP84       0.0946
     36  CD2       14.4910  -24.0030   77.9480 C.ar   84  TRP84       0.0152
     37  NE1       13.2580  -22.1290   77.9510 N.ar   84  TRP84      -0.2442
     38  CE2       13.7880  -23.0970   78.7670 C.ar   84  TRP84       0.0810
     39  CE3       15.1320  -25.0930   78.5420 C.ar   84  TRP84       0.0012
     40  CZ2       13.6990  -23.2580   80.1510 C.ar   84  TRP84       0.0191
     41  CZ3       15.0340  -25.2540   79.9110 C.ar   84  TRP84       0.0001
     42  CH2       14.3240  -24.3380   80.7000 C.ar   84  TRP84       0.0015
     43  N         12.1560  -16.2430   77.2800 N.3    96  VAL96      -0.1231
     44  CA        11.5790  -17.5810   77.5180 C.3    96  VAL96       0.1692
     45  C         12.2650  -18.2890   78.6630 C.2    96  VAL96       0.2592
     46  O         12.0210  -19.4710   78.9160 O.2    96  VAL96      -0.2718
     47  CB        11.6210  -18.4880   76.2780 C.3    96  VAL96       0.0266
     48  CG1       11.0090  -17.7610   75.0970 C.3    96  VAL96       0.0020
     49  CG2       13.0430  -18.9120   75.9740 C.3    96  VAL96       0.0020
     50  N         13.1450  -17.5730   79.3500 N.am   97  SER97      -0.1952
     51  CA        13.8180  -18.1320   80.5150 C.3    97  SER97       0.1924
     52  C         14.7020  -19.3450   80.1650 C.2    97  SER97       0.2314
     53  O         14.6470  -20.3740   80.8450 O.2    97  SER97      -0.2863
     54  CB        12.7690  -18.5300   81.5640 C.3    97  SER97       0.2116
     55  OG        11.7970  -17.5020   81.7320 O.3    97  SER97      -0.2180
     56  N         17.0910  -21.4120   80.5950 N.3    99  VAL99      -0.1245
     57  CA        18.0430  -21.9660   81.5640 C.3    99  VAL99       0.1561
     58  C         19.4140  -22.4220   81.0250 C.2    99  VAL99       0.2260
     59  O         20.4640  -21.9050   81.4600 O.2    99  VAL99      -0.2867
     60  CB        17.3550  -23.0860   82.4570 C.3    99  VAL99       0.0252
     61  CG1       18.3610  -23.8030   83.3300 C.3    99  VAL99       0.0019
     62  CG2       16.2560  -22.4760   83.3270 C.3    99  VAL99       0.0019
     63  N         18.9610  -21.6100   91.1210 N.3   137  LEU137     -0.1245
     64  CA        17.8150  -22.4310   90.7870 C.3   137  LEU137      0.1561
     65  C         17.5290  -23.4750   91.8530 C.2   137  LEU137      0.2260
     66  O         16.3740  -23.8390   92.0730 O.2   137  LEU137     -0.2867
     67  CB        18.0880  -23.1720   89.4730 C.3   137  LEU137      0.0270
     68  CG        18.4050  -22.3340   88.2420 C.3   137  LEU137      0.0019
     69  CD1       19.1660  -23.1750   87.2360 C.3   137  LEU137      0.0001
     70  CD2       17.0970  -21.8050   87.6640 C.3   137  LEU137      0.0001
     71  N         10.0040  -12.7480   84.8640 N.3   188  THR188     -0.1203
     72  CA         9.3660  -13.7100   85.7340 C.3   188  THR188      0.1994
     73  C         10.3930  -14.7170   86.2910 C.2   188  THR188      0.2618
     74  O         11.5280  -14.7890   85.8280 O.2   188  THR188     -0.2717
     75  CB         8.2450  -14.4720   85.0050 C.3   188  THR188      0.1784
     76  OG1        8.7980  -15.2270   83.9170 O.3   188  THR188     -0.2211
     77  CG2        7.2180  -13.4930   84.4680 C.3   188  THR188      0.0376
     78  N          9.9630  -15.4740   87.2980 N.am  189  GLY189     -0.1942
     79  CA        10.7520  -16.5600   87.8700 C.3   189  GLY189      0.2014
     80  C          9.8230  -17.5860   88.4980 C.2   189  GLY189      0.2639
     81  O          8.7110  -17.2530   88.8940 O.2   189  GLY189     -0.2714
     82  N         10.2580  -18.8440   88.5800 N.am  190  PHE190     -0.1959
     83  CA         9.4470  -19.8770   89.1730 C.3   190  PHE190      0.1771
     84  C         10.4080  -21.0080   89.4920 C.2   190  PHE190      0.2620
     85  O         11.0090  -21.5770   88.5800 O.2   190  PHE190     -0.2715
     86  CB         8.3690  -20.3350   88.1710 C.3   190  PHE190      0.0574
     87  CG         7.6220  -21.5740   88.5830 C.ar  190  PHE190     -0.0200
     88  CD1        7.3120  -21.8010   89.9090 C.ar  190  PHE190     -0.0042
     89  CD2        7.1640  -22.4800   87.6170 C.ar  190  PHE190     -0.0042
     90  CE1        6.5970  -22.9270   90.2860 C.ar  190  PHE190     -0.0003
     91  CE2        6.4540  -23.6190   87.9860 C.ar  190  PHE190     -0.0003
     92  CZ         6.1630  -23.8360   89.3240 C.ar  190  PHE190     -0.0000
     93  N         10.5650  -21.2840   90.7880 N.am  191  SER191     -0.1936
     94  CA        11.5220  -22.2610   91.3100 C.3   191  SER191      0.2055
     95  C         11.0630  -23.6940   91.0880 C.2   191  SER191      0.2644
     96  O         11.8860  -24.6080   90.9980 O.2   191  SER191     -0.2714
     97  CB        11.7130  -22.0470   92.8140 C.3   191  SER191      0.2130
     98  OG        10.5690  -22.4980   93.5280 O.3   191  SER191     -0.2179
     99  N          9.7520  -23.8900   91.0030 N.am  192  GLY192     -0.1939
    100  CA         9.1750  -25.2290   90.9210 C.3   192  GLY192      0.2014
    101  C          8.0910  -25.3450   91.9700 C.2   192  GLY192      0.2638
    102  O          7.9100  -24.4060   92.7360 O.2   192  GLY192     -0.2714
    103  N          7.3620  -26.4620   92.0340 N.am  193  VAL193     -0.1977
    104  CA         6.1880  -26.4990   92.9150 C.3   193  VAL193      0.1596
    105  C          6.5080  -26.9580   94.3270 C.2   193  VAL193      0.2287
    106  O          5.6610  -26.8810   95.2190 O.2   193  VAL193     -0.2864
    107  CB         5.0500  -27.3660   92.3550 C.3   193  VAL193      0.0276
    108  CG1        4.3120  -26.6250   91.2260 C.3   193  VAL193      0.0022
    109  CG2        5.6090  -28.7050   91.8850 C.3   193  VAL193      0.0022
    110  N          1.0650  -25.6260   89.5280 N.3   226  GLU226     -0.1245
    111  CA         1.2810  -24.8370   88.3220 C.3   226  GLU226      0.1567
    112  C          0.0410  -24.0910   87.8540 C.2   226  GLU226      0.2260
    113  O          0.1500  -23.0970   87.1550 O.2   226  GLU226     -0.2867
    114  CB         1.8490  -25.6950   87.1930 C.3   226  GLU226      0.0388
    115  CG         3.0960  -26.4580   87.6110 C.3   226  GLU226      0.1160
    116  CD         4.0540  -26.7100   86.4600 C.2   226  GLU226      0.3649
    117  OE1        5.2710  -26.8890   86.7190 O.co2 226  GLU226     -0.2457
    118  OE2        3.5870  -26.7220   85.3000 O.co2 226  GLU226     -0.2457
    119  N          0.1190  -20.2690   88.4370 N.3   229  LEU229     -0.1245
    120  CA         1.2750  -19.4900   88.0270 C.3   229  LEU229      0.1561
    121  C          0.9050  -18.1270   87.4000 C.2   229  LEU229      0.2260
    122  O          1.5590  -17.1260   87.6570 O.2   229  LEU229     -0.2867
    123  CB         2.1700  -20.3220   87.1140 C.3   229  LEU229      0.0270
    124  CG         3.5330  -19.7020   86.8000 C.3   229  LEU229      0.0019
    125  CD1        4.3350  -19.4770   88.0560 C.3   229  LEU229      0.0001
    126  CD2        4.2740  -20.6470   85.8590 C.3   229  LEU229      0.0001
    127  N          0.9520  -14.7670   89.3220 N.3   232  ARG232     -0.1245
    128  CA         2.1720  -13.9870   89.5560 C.3   232  ARG232      0.1563
    129  C          2.1830  -12.7220   88.7020 C.2   232  ARG232      0.2260
    130  O          2.9410  -11.8040   88.9550 O.2   232  ARG232     -0.2867
    131  CB         3.4330  -14.8140   89.2920 C.3   232  ARG232      0.0307
    132  CG         3.8280  -14.8250   87.8470 C.3   232  ARG232      0.0489
    133  CD         4.9890  -15.7450   87.5850 C.3   232  ARG232      0.2205
    134  NE         5.0290  -16.1350   86.1770 N.pl3 232  ARG232     -0.0865
    135  CZ         5.9630  -16.9160   85.6300 C.cat 232  ARG232      0.5346
    136  NH1        6.9670  -17.4010   86.3680 N.pl3 232  ARG232      0.1354
    137  NH2        5.8930  -17.2150   84.3340 N.pl3 232  ARG232      0.1354
@<TRIPOS>BOND
     1    32    31    2
     2    31    30    1
     3    23    22    2
     4    21    22    1
     5    21    20    1
     6    21    24    1
     7    22    29   am
     8    29    30    1
     9    30    33    1
    10    24    25    1
    11    25    26    1
    12    15    14    2
    13    48    47    1
    14    33    34    1
    15    14    13    1
    16    49    47    1
    17    26    27    2
    18    26    28   am
    19    47    44    1
    20    34    35   ar
    21    34    36   ar
    22    35    37   ar
    23    13    12    1
    24    13    16    1
    25    43    44    1
    26    44    45    1
    27    16    17    1
    28    36    39   ar
    29    36    38   ar
    30    37    38   ar
    31    39    41   ar
    32    45    46    2
    33    45    50   am
    34    38    40   ar
    35    50    51    1
    36    17    18    1
    37    41    42   ar
    38    19    18    1
    39    40    42   ar
    40    52    51    1
    41    52    53    2
    42    51    54    1
    43    56    57    1
    44    58    59    2
    45    58    57    1
    46    54    55    1
    47    57    60    1
    48    60    62    1
    49    60    61    1
    50    76    75    1
    51   137   135    1
    52    77    75    1
    53    71    72    1
    54    75    72    1
    55    11    10    1
    56   118   116   ar
    57    10     7    1
    58   135   134    2
    59   135   136    1
    60     9     8    2
    61    72    73    1
    62    74    73    2
    63   126   124    1
    64   134   133    1
    65    73    78   am
    66   116   117   ar
    67   116   115    1
    68     7     8    1
    69     7     6    1
    70   124   123    1
    71   124   125    1
    72   123   120    1
    73   113   112    2
    74   114   115    1
    75   114   111    1
    76    69    68    1
    77    78    79    1
    78   121   122    2
    79   121   120    1
    80   133   132    1
    81    89    91   ar
    82    89    87   ar
    83    70    68    1
    84     6     3   am
    85   132   131    1
    86   112   111    1
    87    79    80    1
    88    91    92   ar
    89   120   119    1
    90    86    87    1
    91    86    83    1
    92    68    67    1
    93   111   110    1
    94    80    82   am
    95    80    81    2
    96    85    84    2
    97    82    83    1
    98    87    88   ar
    99   129   130    2
   100   129   128    1
   101     4     3    2
   102     3     2    1
   103    83    84    1
   104   131   128    1
   105   127   128    1
   106    92    90   ar
   107    67    64    1
   108    84    93   am
   109    88    90   ar
   110     5     2    1
   111     2     1    1
   112    64    63    1
   113    64    65    1
   114    93    94    1
   115   100    99    1
   116   100   101    1
   117    96    95    2
   118    99    95   am
   119    95    94    1
   120   108   107    1
   121    94    97    1
   122    65    66    2
   123   109   107    1
   124   101   103   am
   125   101   102    2
   126   103   104    1
   127   107   104    1
   128    97    98    1
   129   104   105    1
   130   105   106    2
