@<TRIPOS>MOLECULE
tmp/2wkkA00.pdb
 92 85 0 0 0
SMALL
GASTEIGER

@<TRIPOS>ATOM
      1  N         -5.6190   -9.4100   11.3580 N.3    38  VAL38      -0.1245
      2  CA        -6.4480  -10.2770   12.1980 C.3    38  VAL38       0.1561
      3  C         -5.7220  -11.5390   12.6520 C.2    38  VAL38       0.2260
      4  O         -5.0380  -12.1800   11.8570 O.2    38  VAL38      -0.2867
      5  CB        -7.7300  -10.7140   11.4240 C.3    38  VAL38       0.0252
      6  CG1       -8.4860  -11.8260   12.1610 C.3    38  VAL38       0.0019
      7  CG2       -8.6250   -9.5240   11.1600 C.3    38  VAL38       0.0019
      8  N        -11.2190  -13.7230   18.3680 N.3    51  HIS51      -0.1241
      9  CA       -10.9260  -12.9560   17.1610 C.3    51  HIS51       0.1621
     10  C        -10.2950  -11.6520   17.6180 C.2    51  HIS51       0.2264
     11  O        -10.8360  -10.9610   18.4850 O.2    51  HIS51      -0.2867
     12  CB       -12.2550  -12.6930   16.4280 C.3    51  HIS51       0.0745
     13  CG       -12.1890  -11.6960   15.3060 C.ar   51  HIS51       0.0817
     14  ND1      -11.6140  -11.9770   14.0840 N.ar   51  HIS51      -0.2268
     15  CD2      -12.7110  -10.4490   15.1950 C.ar   51  HIS51       0.1154
     16  CE1      -11.7510  -10.9340   13.2830 C.ar   51  HIS51       0.1986
     17  NE2      -12.4250   -9.9980   13.9280 N.ar   51  HIS51      -0.2212
     18  N         -9.0250   -8.2140   15.8930 N.3    53  SER53      -0.1217
     19  CA        -9.0050   -7.4240   14.6690 C.3    53  SER53       0.1889
     20  C         -8.3290   -6.0950   14.9560 C.2    53  SER53       0.2288
     21  O         -8.8870   -5.2520   15.6540 O.2    53  SER53      -0.2866
     22  CB       -10.4330   -7.1960   14.1470 C.3    53  SER53       0.2089
     23  OG       -10.4250   -6.3900   12.9790 O.3    53  SER53      -0.2183
     24  N         -7.0400   -2.5970   13.8800 N.3    55  ARG55      -0.1245
     25  CA        -7.5010   -1.6620   12.8450 C.3    55  ARG55       0.1563
     26  C         -6.8730   -0.2760   12.9700 C.2    55  ARG55       0.2260
     27  O         -7.4270    0.6210   13.6170 O.2    55  ARG55      -0.2867
     28  CB        -9.0320   -1.5340   12.8750 C.3    55  ARG55       0.0307
     29  CG        -9.7720   -2.8660   12.8220 C.3    55  ARG55       0.0489
     30  CD       -11.2780   -2.6490   12.8840 C.3    55  ARG55       0.2205
     31  NE       -12.0150   -3.9050   12.9830 N.pl3  55  ARG55      -0.0865
     32  CZ       -13.3410   -3.9750   13.0850 C.cat  55  ARG55       0.5346
     33  NH1      -14.0670   -2.8620   13.1190 N.pl3  55  ARG55       0.1354
     34  NH2      -13.9420   -5.1590   13.1720 N.pl3  55  ARG55       0.1354
     35  N         -9.0670    2.8140   11.9680 N.3    58  GLU58      -0.1245
     36  CA       -10.1680    3.1250   12.8620 C.3    58  GLU58       0.1567
     37  C         -9.6630    3.3930   14.2740 C.2    58  GLU58       0.2260
     38  O        -10.4330    3.7780   15.1580 O.2    58  GLU58      -0.2867
     39  CB       -11.1780    1.9820   12.8780 C.3    58  GLU58       0.0388
     40  CG       -12.5570    2.4230   13.2980 C.3    58  GLU58       0.1160
     41  CD       -13.5260    1.2770   13.4510 C.2    58  GLU58       0.3649
     42  OE1      -13.2000    0.1520   13.0140 O.co2  58  GLU58      -0.2457
     43  OE2      -14.6180    1.5100   14.0090 O.co2  58  GLU58      -0.2457
     44  N        -10.3840   -4.7840   18.0350 N.3    62  VAL62      -0.1245
     45  CA       -11.6970   -5.3660   18.3040 C.3    62  VAL62       0.1561
     46  C        -11.5640   -6.8450   18.6400 C.2    62  VAL62       0.2260
     47  O        -10.8990   -7.5930   17.9180 O.2    62  VAL62      -0.2867
     48  CB       -12.6090   -5.2270   17.0600 C.3    62  VAL62       0.0252
     49  CG1      -13.9810   -5.8810   17.3020 C.3    62  VAL62       0.0019
     50  CG2      -12.7760   -3.7590   16.6780 C.3    62  VAL62       0.0019
     51  N        -13.7850  -10.3960   19.5400 N.3    64  ASN64      -0.1240
     52  CA       -15.0990  -10.9890   19.3200 C.3    64  ASN64       0.1653
     53  C        -14.9590  -12.4990   19.1850 C.2    64  ASN64       0.2266
     54  O        -13.8440  -13.0320   19.2560 O.2    64  ASN64      -0.2867
     55  CB       -15.7540  -10.3760   18.0700 C.3    64  ASN64       0.1155
     56  CG       -17.2760  -10.3180   18.1610 C.2    64  ASN64       0.2627
     57  OD1      -17.9060  -11.1250   18.8490 O.2    64  ASN64      -0.2716
     58  ND2      -17.8710   -9.3630   17.4480 N.am   64  ASN64      -0.0877
     59  N        -21.2350  -12.6660   14.1460 N.3    72  TRP72      -0.1241
     60  CA       -20.4210  -12.1210   15.2200 C.3    72  TRP72       0.1605
     61  C        -21.2980  -11.7390   16.4090 C.2    72  TRP72       0.2264
     62  O        -22.4730  -11.3950   16.2480 O.2    72  TRP72      -0.2867
     63  CB       -19.6600  -10.8890   14.7260 C.3    72  TRP72       0.0550
     64  CG       -18.5750  -11.2020   13.7440 C.ar   72  TRP72       0.0003
     65  CD1      -18.5570  -10.8980   12.4080 C.ar   72  TRP72       0.0946
     66  CD2      -17.3460  -11.8840   14.0190 C.ar   72  TRP72       0.0152
     67  NE1      -17.3830  -11.3440   11.8420 N.ar   72  TRP72      -0.2442
     68  CE2      -16.6260  -11.9550   12.8100 C.ar   72  TRP72       0.0810
     69  CE3      -16.7840  -12.4400   15.1750 C.ar   72  TRP72       0.0012
     70  CZ2      -15.3720  -12.5570   12.7220 C.ar   72  TRP72       0.0191
     71  CZ3      -15.5420  -13.0420   15.0850 C.ar   72  TRP72       0.0001
     72  CH2      -14.8500  -13.0900   13.8670 C.ar   72  TRP72       0.0015
     73  N        -19.0580   -6.6350   20.1630 N.3    75  GLU75      -0.1245
     74  CA       -17.6380   -6.3220   20.1240 C.3    75  GLU75       0.1567
     75  C        -17.1310   -5.8020   21.4570 C.2    75  GLU75       0.2260
     76  O        -17.8530   -5.1190   22.1930 O.2    75  GLU75      -0.2867
     77  CB       -17.3560   -5.2900   19.0340 C.3    75  GLU75       0.0388
     78  CG       -17.6000   -5.8260   17.6440 C.3    75  GLU75       0.1160
     79  CD       -17.3190   -4.8070   16.5740 C.2    75  GLU75       0.3649
     80  OE1      -17.2730   -3.5960   16.8860 O.co2  75  GLU75      -0.2457
     81  OE2      -17.1570   -5.2250   15.4140 O.co2  75  GLU75      -0.2457
     82  N        -14.0270   -3.4220   22.4650 N.3    77  ARG77      -0.1245
     83  CA       -13.0550   -2.5700   21.7730 C.3    77  ARG77       0.1563
     84  C        -12.0960   -1.8460   22.7060 C.2    77  ARG77       0.2260
     85  O        -12.4690   -1.4390   23.8090 O.2    77  ARG77      -0.2867
     86  CB       -13.7680   -1.5150   20.9210 C.3    77  ARG77       0.0307
     87  CG       -14.6880   -2.0560   19.8440 C.3    77  ARG77       0.0489
     88  CD       -15.2770   -0.9090   19.0220 C.3    77  ARG77       0.2205
     89  NE       -15.7340   -1.3840   17.7210 N.pl3  77  ARG77      -0.0865
     90  CZ       -15.6420   -0.6910   16.5920 C.cat  77  ARG77       0.5346
     91  NH1      -15.1070    0.5260   16.5940 N.pl3  77  ARG77       0.1354
     92  NH2      -16.0750   -1.2230   15.4590 N.pl3  77  ARG77       0.1354
@<TRIPOS>BOND
     1     7     5    1
     2     1     2    1
     3     5     6    1
     4     5     2    1
     5    67    65   ar
     6    67    68   ar
     7     4     3    2
     8    35    36    1
     9     2     3    1
    10    65    64   ar
    11    70    68   ar
    12    70    72   ar
    13    68    66   ar
    14    29    28    1
    15    29    30    1
    16    25    28    1
    17    25    26    1
    18    25    24    1
    19    36    39    1
    20    36    37    1
    21    39    40    1
    22    30    31    1
    23    26    27    2
    24    23    22    1
    25    31    32    2
    26    42    41   ar
    27    32    33    1
    28    32    34    1
    29    16    17   ar
    30    16    14   ar
    31    40    41    1
    32    41    43   ar
    33    64    66   ar
    34    64    63    1
    35    72    71   ar
    36    17    15   ar
    37    66    69   ar
    38    14    13   ar
    39    59    60    1
    40    22    19    1
    41    37    38    2
    42    19    20    1
    43    19    18    1
    44    63    60    1
    45    20    21    2
    46    71    69   ar
    47    15    13   ar
    48    60    61    1
    49    13    12    1
    50    81    79   ar
    51    92    90    1
    52    62    61    2
    53    12     9    1
    54    79    80   ar
    55    79    78    1
    56    90    91    1
    57    90    89    2
    58    50    48    1
    59    48    49    1
    60    48    45    1
    61     9    10    1
    62     9     8    1
    63    58    56   am
    64    10    11    2
    65    78    77    1
    66    89    88    1
    67    47    46    2
    68    44    45    1
    69    55    56    1
    70    55    52    1
    71    56    57    2
    72    45    46    1
    73    88    87    1
    74    77    74    1
    75    53    54    2
    76    53    52    1
    77    52    51    1
    78    87    86    1
    79    74    73    1
    80    74    75    1
    81    86    83    1
    82    75    76    2
    83    83    82    1
    84    83    84    1
    85    84    85    2
