@<TRIPOS>MOLECULE
tmp/2wkmA00.pdb
 193 186 0 0 0
SMALL
GASTEIGER

@<TRIPOS>ATOM
      1  N         17.7720    4.6580   -0.4280 N.3    26  ILE26      -0.1231
      2  CA        17.5170    6.0590   -0.1540 C.3    26  ILE26       0.1692
      3  C         18.7980    6.8540    0.0710 C.2    26  ILE26       0.2592
      4  O         18.7640    8.0770    0.1600 O.2    26  ILE26      -0.2718
      5  CB        16.5470    6.2270    1.0450 C.3    26  ILE26       0.0266
      6  CG1       16.9250    5.3000    2.1940 C.3    26  ILE26       0.0019
      7  CG2       15.1450    5.8750    0.6190 C.3    26  ILE26       0.0020
      8  CD1       15.7750    5.1020    3.1900 C.3    26  ILE26       0.0001
      9  N         19.9280    6.1590    0.1370 N.am   27  GLY27      -0.1957
     10  CA        21.2070    6.8440    0.1800 C.3    27  GLY27       0.1869
     11  C         22.3880    5.8950    0.2670 C.2    27  GLY27       0.2309
     12  O         22.2820    4.8080    0.8310 O.2    27  GLY27      -0.2863
     13  N         21.6630    2.8340    2.5880 N.3    34  VAL34      -0.1245
     14  CA        20.5180    2.9780    3.4820 C.3    34  VAL34       0.1561
     15  C         19.2700    2.5940    2.6870 C.2    34  VAL34       0.2260
     16  O         19.0560    3.0840    1.5770 O.2    34  VAL34      -0.2867
     17  CB        20.3750    4.4460    3.9810 C.3    34  VAL34       0.0252
     18  CG1       19.1750    4.5750    4.9220 C.3    34  VAL34       0.0019
     19  CG2       21.6570    4.8790    4.6930 C.3    34  VAL34       0.0019
     20  N         14.9220    1.5930    2.4060 N.3    36  HIS36      -0.1241
     21  CA        13.5740    1.5700    2.9540 C.3    36  HIS36       0.1621
     22  C         13.4320    0.3140    3.8030 C.2    36  HIS36       0.2264
     23  O         13.9700   -0.7420    3.4640 O.2    36  HIS36      -0.2867
     24  CB        12.5340    1.5200    1.8370 C.3    36  HIS36       0.0745
     25  CG        12.2250    2.8510    1.2320 C.ar   36  HIS36       0.0817
     26  ND1       11.0960    3.5700    1.5590 N.ar   36  HIS36      -0.2268
     27  CD2       12.8920    3.5900    0.3150 C.ar   36  HIS36       0.1154
     28  CE1       11.0810    4.6970    0.8680 C.ar   36  HIS36       0.1986
     29  NE2       12.1600    4.7340    0.1070 N.ar   36  HIS36      -0.2212
     30  N         14.2960    3.8190    7.9790 N.3    50  ALA50      -0.1245
     31  CA        15.4670    3.8270    7.1050 C.3    50  ALA50       0.1562
     32  C         16.5250    2.8930    7.6850 C.2    50  ALA50       0.2260
     33  O         16.9280    3.0420    8.8430 O.2    50  ALA50      -0.2867
     34  CB        16.0220    5.2500    6.9760 C.3    50  ALA50       0.0290
     35  N         20.2410    1.4080    7.7360 N.3    52  LYS52      -0.1245
     36  CA        21.6230    1.6340    7.3310 C.3    52  LYS52       0.1561
     37  C         22.4310    0.3490    7.4250 C.2    52  LYS52       0.2260
     38  O         22.5530   -0.2440    8.5000 O.2    52  LYS52      -0.2867
     39  CB        22.2670    2.7110    8.2060 C.3    52  LYS52       0.0271
     40  CG        23.7380    2.9890    7.8880 C.3    52  LYS52       0.0035
     41  CD        23.9460    3.1880    6.3890 C.3    52  LYS52       0.0206
     42  CE        25.4170    3.4010    6.0170 C.3    52  LYS52       0.1093
     43  NZ        25.8430    4.7980    6.2860 N.3    52  LYS52      -0.1314
     44  N         17.3780   13.6450   15.7660 N.3    82  LEU82      -0.1245
     45  CA        17.1400   12.3260   15.1970 C.3    82  LEU82       0.1561
     46  C         17.3120   11.2490   16.2640 C.2    82  LEU82       0.2260
     47  O         18.2860   11.2540   17.0170 O.2    82  LEU82      -0.2867
     48  CB        18.1100   12.0660   14.0440 C.3    82  LEU82       0.0270
     49  CG        18.0990   10.6530   13.4530 C.3    82  LEU82       0.0019
     50  CD1       16.7960   10.4090   12.7210 C.3    82  LEU82       0.0001
     51  CD2       19.2850   10.4860   12.5170 C.3    82  LEU82       0.0001
     52  N         16.7890    3.4440   11.7410 N.3    99  LEU99      -0.1231
     53  CA        16.5520    4.8560   11.9920 C.3    99  LEU99       0.1678
     54  C         15.1760    5.2320   11.4930 C.2    99  LEU99       0.2434
     55  O         14.6060    4.5500   10.6450 O.2    99  LEU99      -0.2733
     56  CB        17.6150    5.6970   11.2800 C.3    99  LEU99       0.0284
     57  CG        19.0440    5.4970   11.7990 C.3    99  LEU99       0.0019
     58  CD1       20.0330    6.1490   10.8390 C.3    99  LEU99       0.0001
     59  CD2       19.1680    6.0860   13.2050 C.3    99  LEU99       0.0001
     60  N         14.6200    6.3230   12.0170 N.am  100  PRO100     -0.2718
     61  CA        13.2820    6.7440   11.5930 C.3   100  PRO100      0.1535
     62  C         13.2640    7.0760   10.1000 C.2   100  PRO100      0.2599
     63  O         14.2900    7.4800    9.5240 O.2   100  PRO100     -0.2715
     64  CB        13.0000    7.9790   12.4530 C.3   100  PRO100      0.0310
     65  CG        13.9600    7.8750   13.6040 C.3   100  PRO100      0.0237
     66  CD        15.1780    7.2110   13.0490 C.3   100  PRO100      0.0939
     67  N         12.1010    6.9080    9.4780 N.am  101  TYR101     -0.1960
     68  CA        11.9100    7.3570    8.1080 C.3   101  TYR101      0.1771
     69  C         11.6320    8.8610    8.0740 C.2   101  TYR101      0.2619
     70  O         10.8570    9.3800    8.8740 O.2   101  TYR101     -0.2715
     71  CB        10.7470    6.6040    7.4690 C.3   101  TYR101      0.0574
     72  CG        10.6050    6.8630    5.9910 C.ar  101  TYR101     -0.0198
     73  CD1       11.5900    6.4640    5.1030 C.ar  101  TYR101     -0.0009
     74  CD2        9.4880    7.5150    5.4850 C.ar  101  TYR101     -0.0009
     75  CE1       11.4730    6.7110    3.7490 C.ar  101  TYR101      0.0417
     76  CE2        9.3570    7.7630    4.1300 C.ar  101  TYR101      0.0417
     77  CZ        10.3540    7.3620    3.2680 C.ar  101  TYR101      0.1957
     78  OH        10.2390    7.6180    1.9210 O.3   101  TYR101     -0.2866
     79  N         12.2760    9.5570    7.1480 N.am  102  MET102     -0.1963
     80  CA        12.0640   10.9860    6.9810 C.3   102  MET102      0.1736
     81  C         11.4450   11.2380    5.6120 C.2   102  MET102      0.2616
     82  O         12.1450   11.3520    4.6040 O.2   102  MET102     -0.2715
     83  CB        13.3950   11.7240    7.1090 C.3   102  MET102      0.0427
     84  CG        14.0250   11.5700    8.4740 C.3   102  MET102      0.0599
     85  SD        13.1210   12.5090    9.7200 S.3   102  MET102     -0.1393
     86  CE        13.1050   11.3550   11.0710 C.3   102  MET102      0.0692
     87  N         10.1230   11.3210    5.5870 N.am  103  LYS103     -0.1963
     88  CA         9.3810   11.3490    4.3390 C.3   103  LYS103      0.1728
     89  C          9.8320   12.4800    3.4220 C.2   103  LYS103      0.2616
     90  O          9.8940   12.3110    2.2090 O.2   103  LYS103     -0.2715
     91  CB         7.8820   11.4770    4.6330 C.3   103  LYS103      0.0311
     92  CG         7.0390   11.8350    3.4250 C.3   103  LYS103      0.0038
     93  CD         5.6330   12.2220    3.8470 C.3   103  LYS103      0.0206
     94  CE         4.8750   12.8980    2.7050 C.3   103  LYS103      0.1093
     95  NZ         3.6140   13.5460    3.1870 N.3   103  LYS103     -0.1314
     96  N         10.1540   13.6310    3.9980 N.am  104  HIS104     -0.1959
     97  CA        10.4770   14.7960    3.1900 C.3   104  HIS104      0.1787
     98  C         11.9640   15.0420    2.9990 C.2   104  HIS104      0.2621
     99  O         12.3520   16.0600    2.4360 O.2   104  HIS104     -0.2715
    100  CB         9.8290   16.0440    3.7830 C.3   104  HIS104      0.0785
    101  CG         8.3350   16.0190    3.7320 C.ar  104  HIS104      0.0821
    102  ND1        7.5510   15.9360    4.8650 N.ar  104  HIS104     -0.2267
    103  CD2        7.4790   16.0700    2.6820 C.ar  104  HIS104      0.1154
    104  CE1        6.2770   15.9410    4.5140 C.ar  104  HIS104      0.1986
    105  NE2        6.2050   16.0220    3.1960 N.ar  104  HIS104     -0.2212
    106  N         12.7930   14.1180    3.4680 N.am  105  GLY105     -0.1940
    107  CA        14.2080   14.1960    3.1620 C.3   105  GLY105      0.2014
    108  C         14.9720   15.3360    3.8200 C.2   105  GLY105      0.2638
    109  O         14.5930   15.8370    4.8780 O.2   105  GLY105     -0.2714
    110  N         16.0800   15.7290    3.2020 N.am  106  ASP106     -0.1971
    111  CA        16.9720   16.7010    3.8100 C.3   106  ASP106      0.1709
    112  C         16.4800   18.1290    3.5800 C.2   106  ASP106      0.2293
    113  O         15.8960   18.4560    2.5380 O.2   106  ASP106     -0.2864
    114  CB        18.3830   16.5530    3.2390 C.3   106  ASP106      0.1436
    115  CG        18.4760   17.0370    1.8090 C.2   106  ASP106      0.3671
    116  OD1       18.1440   16.2600    0.8900 O.co2 106  ASP106     -0.2456
    117  OD2       18.8670   18.2030    1.6070 O.co2 106  ASP106     -0.2456
    118  N         17.5980   20.1740    0.1260 N.3   109  ASN109     -0.1225
    119  CA        16.8450   19.8990   -1.0900 C.3   109  ASN109      0.1785
    120  C         15.3990   20.3530   -0.9630 C.2   109  ASN109      0.2597
    121  O         14.8030   20.8250   -1.9330 O.2   109  ASN109     -0.2718
    122  CB        16.8930   18.4050   -1.4380 C.3   109  ASN109      0.1169
    123  CG        18.2020   18.0060   -2.1060 C.2   109  ASN109      0.2627
    124  OD1       18.6580   18.6570   -3.0550 O.2   109  ASN109     -0.2716
    125  ND2       18.8110   16.9310   -1.6140 N.am  109  ASN109     -0.0877
    126  N         14.8370   20.2270    0.2340 N.am  110  PHE110     -0.1976
    127  CA        13.4560   20.6420    0.4400 C.3   110  PHE110      0.1639
    128  C         13.2700   22.1010    0.0440 C.2   110  PHE110      0.2290
    129  O         12.3290   22.4390   -0.6720 O.2   110  PHE110     -0.2864
    130  CB        13.0400   20.4570    1.9050 C.3   110  PHE110      0.0560
    131  CG        11.5770   20.7190    2.1600 C.ar  110  PHE110     -0.0200
    132  CD1       10.6600   19.6780    2.1380 C.ar  110  PHE110     -0.0042
    133  CD2       11.1230   21.9990    2.4380 C.ar  110  PHE110     -0.0042
    134  CE1        9.3100   19.9070    2.3910 C.ar  110  PHE110     -0.0003
    135  CE2        9.7770   22.2380    2.6930 C.ar  110  PHE110     -0.0003
    136  CZ         8.8700   21.1890    2.6690 C.ar  110  PHE110     -0.0000
    137  N         22.1350   20.1230    4.7050 N.3   150  ARG150     -0.1231
    138  CA        22.1070   18.7930    4.0910 C.3   150  ARG150      0.1694
    139  C         22.0180   17.6930    5.1510 C.2   150  ARG150      0.2592
    140  O         21.7380   16.5370    4.8310 O.2   150  ARG150     -0.2718
    141  CB        23.3700   18.5700    3.2500 C.3   150  ARG150      0.0321
    142  CG        24.6340   18.5580    4.0900 C.3   150  ARG150      0.0489
    143  CD        25.8960   18.2210    3.3060 C.3   150  ARG150      0.2205
    144  NE        27.0420   18.4150    4.1850 N.pl3 150  ARG150     -0.0865
    145  CZ        27.7030   19.5660    4.3060 C.cat 150  ARG150      0.5346
    146  NH1       27.3420   20.6240    3.5900 N.pl3 150  ARG150      0.1354
    147  NH2       28.7020   19.6710    5.1750 N.pl3 150  ARG150      0.1354
    148  N         22.2680   18.0450    6.4100 N.am  151  ASN151     -0.1974
    149  CA        22.2770   17.0480    7.4780 C.3   151  ASN151      0.1688
    150  C         21.1370   17.1860    8.4660 C.2   151  ASN151      0.2292
    151  O         21.1750   16.5950    9.5360 O.2   151  ASN151     -0.2864
    152  CB        23.6140   17.0860    8.2180 C.3   151  ASN151      0.1181
    153  CG        24.7470   16.5410    7.3740 C.2   151  ASN151      0.2629
    154  OD1       24.5310   15.6760    6.5210 O.2   151  ASN151     -0.2716
    155  ND2       25.9570   17.0470    7.5920 N.am  151  ASN151     -0.0877
    156  N         16.9520   16.5370    8.5430 N.3   153  MET153     -0.1245
    157  CA        15.8750   15.9080    7.7780 C.3   153  MET153      0.1570
    158  C         14.5150   16.4400    8.2140 C.2   153  MET153      0.2261
    159  O         14.3950   17.0500    9.2740 O.2   153  MET153     -0.2867
    160  CB        15.8970   14.3890    7.9630 C.3   153  MET153      0.0387
    161  CG        17.2700   13.7340    7.8070 C.3   153  MET153      0.0595
    162  SD        18.0720   13.9490    6.2060 S.3   153  MET153     -0.1393
    163  CE        16.8450   13.6400    5.1820 C.3   153  MET153      0.0692
    164  N         20.4420   15.6790   12.3520 N.3   163  ALA163     -0.1231
    165  CA        20.8450   14.3000   12.0750 C.3   163  ALA163      0.1694
    166  C         22.2950   14.2080   11.6080 C.2   163  ALA163      0.2592
    167  O         23.0730   15.1440   11.7670 O.2   163  ALA163     -0.2718
    168  CB        19.9270   13.6850   11.0220 C.3   163  ALA163      0.0304
    169  N         22.6430   13.0640   11.0320 N.am  164  ASP164     -0.1974
    170  CA        24.0060   12.7750   10.5990 C.3   164  ASP164      0.1709
    171  C         25.0000   12.8790   11.7490 C.2   164  ASP164      0.2293
    172  O         26.0750   13.4680   11.6080 O.2   164  ASP164     -0.2864
    173  CB        24.4350   13.7110    9.4600 C.3   164  ASP164      0.1436
    174  CG        25.7150   13.2380    8.7700 C.2   164  ASP164      0.3671
    175  OD1       25.8530   12.0170    8.5440 O.co2 164  ASP164     -0.2456
    176  OD2       26.5850   14.0810    8.4580 O.co2 164  ASP164     -0.2456
    177  N         24.2930    7.3550   12.7660 N.3   168  ALA168     -0.1245
    178  CA        23.7980    7.7900   11.4660 C.3   168  ALA168      0.1562
    179  C         24.8330    8.6020   10.6890 C.2   168  ALA168      0.2260
    180  O         24.5690    9.0420    9.5680 O.2   168  ALA168     -0.2867
    181  CB        22.5240    8.6040   11.6420 C.3   168  ALA168      0.0290
    182  N         27.9780   10.8970    2.7430 N.3   172  TYR172     -0.1241
    183  CA        26.8740   10.5830    1.8490 C.3   172  TYR172      0.1605
    184  C         26.9860   11.3420    0.5420 C.2   172  TYR172      0.2264
    185  O         26.6660   10.8100   -0.5210 O.2   172  TYR172     -0.2867
    186  CB        25.5340   10.8960    2.5200 C.3   172  TYR172      0.0534
    187  CG        25.1970    9.9260    3.6240 C.ar  172  TYR172     -0.0201
    188  CD1       24.6750    8.6690    3.3370 C.ar  172  TYR172     -0.0009
    189  CD2       25.4400   10.2470    4.9510 C.ar  172  TYR172     -0.0009
    190  CE1       24.4070    7.7540    4.3520 C.ar  172  TYR172      0.0417
    191  CE2       25.1750    9.3430    5.9660 C.ar  172  TYR172      0.0417
    192  CZ        24.6590    8.1000    5.6650 C.ar  172  TYR172      0.1957
    193  OH        24.3920    7.2110    6.6870 O.3   172  TYR172     -0.2866
@<TRIPOS>BOND
     1   124   123    2
     2   123   125   am
     3   123   122    1
     4   121   120    2
     5   122   119    1
     6   119   120    1
     7   119   118    1
     8   120   126   am
     9   129   128    2
    10   185   184    2
    11     1     2    1
    12     2     3    1
    13     2     5    1
    14   128   127    1
    15     3     9   am
    16     3     4    2
    17    29    27   ar
    18    29    28   ar
    19     9    10    1
    20    10    11    1
    21   126   127    1
    22    11    12    2
    23    27    25   ar
    24   127   130    1
    25   184   183    1
    26     7     5    1
    27    28    26   ar
    28   116   115   ar
    29     5     6    1
    30    25    26   ar
    31    25    24    1
    32    16    15    2
    33   117   115   ar
    34   115   114    1
    35    24    21    1
    36   183   186    1
    37   183   182    1
    38   130   131    1
    39    78    77    1
    40   132   131   ar
    41   132   134   ar
    42   131   133   ar
    43     6     8    1
    44    90    89    2
    45   134   136   ar
    46    20    21    1
    47    99    98    2
    48   133   135   ar
    49   186   187    1
    50   113   112    2
    51    13    14    1
    52   136   135   ar
    53   103   105   ar
    54   103   101   ar
    55    15    14    1
    56    94    95    1
    57    94    93    1
    58    21    22    1
    59    98    97    1
    60    98   106   am
    61   107   106    1
    62   107   108    1
    63    97   100    1
    64    97    96    1
    65   105   104   ar
    66   110   111    1
    67   110   108   am
    68   114   111    1
    69   141   142    1
    70   141   138    1
    71    77    75   ar
    72    77    76   ar
    73   143   142    1
    74   143   144    1
    75   188   187   ar
    76   188   190   ar
    77    89    96   am
    78    89    88    1
    79    92    93    1
    80    92    91    1
    81    23    22    2
    82    14    17    1
    83   112   111    1
    84   146   145    1
    85   187   189   ar
    86   101   100    1
    87   101   102   ar
    88    75    73   ar
    89   108   109    2
    90    17    19    1
    91    17    18    1
    92   138   137    1
    93   138   139    1
    94    76    74   ar
    95   144   145    2
    96   145   147    1
    97    88    91    1
    98    88    87    1
    99   190   192   ar
   100   104   102   ar
   101    82    81    2
   102   140   139    2
   103   189   191   ar
   104    73    72   ar
   105   139   148   am
   106   163   162    1
   107    74    72   ar
   108    87    81   am
   109    81    80    1
   110   192   191   ar
   111   192   193    1
   112    72    71    1
   113    42    43    1
   114    42    41    1
   115   162   161    1
   116    41    40    1
   117   148   149    1
   118   154   153    2
   119    34    31    1
   120    80    83    1
   121    80    79    1
   122    31    32    1
   123    31    30    1
   124    83    84    1
   125    79    69   am
   126    36    37    1
   127    36    35    1
   128    36    39    1
   129   153   155   am
   130   153   152    1
   131    37    38    2
   132    71    68    1
   133   149   152    1
   134   149   150    1
   135    32    33    2
   136   157   160    1
   137   157   158    1
   138   157   156    1
   139   161   160    1
   140    40    39    1
   141    69    68    1
   142    69    70    2
   143    68    67    1
   144   158   159    2
   145   176   174   ar
   146   150   151    2
   147    84    85    1
   148   175   174   ar
   149   174   173    1
   150   173   170    1
   151    67    62   am
   152    63    62    2
   153   180   179    2
   154    85    86    1
   155    62    61    1
   156   170   169    1
   157   170   171    1
   158    55    54    2
   159   179   178    1
   160    58    57    1
   161   168   165    1
   162   169   166   am
   163    56    57    1
   164    56    53    1
   165   178   181    1
   166   178   177    1
   167    54    53    1
   168    54    60   am
   169    61    60    1
   170    61    64    1
   171   166   167    2
   172   166   165    1
   173   172   171    2
   174    52    53    1
   175    57    59    1
   176    60    66    1
   177   165   164    1
   178    64    65    1
   179    51    49    1
   180    50    49    1
   181    66    65    1
   182    49    48    1
   183    48    45    1
   184    45    44    1
   185    45    46    1
   186    46    47    2
