@<TRIPOS>MOLECULE
tmp/2wkpA00.pdb
 155 149 0 0 0
SMALL
GASTEIGER

@<TRIPOS>ATOM
      1  N         16.5100  -39.9700   20.3180 N.3   152  GLY152     -0.1210
      2  CA        17.4170  -41.0920   20.2570 C.3   152  GLY152      0.1956
      3  C         17.2870  -41.9740   21.4860 C.2   152  GLY152      0.2612
      4  O         17.0970  -41.4700   22.5970 O.2   152  GLY152     -0.2717
      5  N         17.3460  -43.2850   21.2590 N.am  153  ALA153     -0.1965
      6  CA        17.3260  -44.2920   22.3210 C.3   153  ALA153      0.1728
      7  C         15.9910  -44.4830   23.0760 C.2   153  ALA153      0.2616
      8  O         15.9610  -45.1510   24.1250 O.2   153  ALA153     -0.2715
      9  CB        18.5080  -44.0560   23.3280 C.3   153  ALA153      0.0334
     10  N         14.8900  -43.9280   22.5730 N.am  154  VAL154     -0.1963
     11  CA        13.6180  -44.1370   23.2760 C.3   154  VAL154      0.1727
     12  C         12.9900  -45.5150   23.0080 C.2   154  VAL154      0.2617
     13  O         12.0880  -45.9260   23.7180 O.2   154  VAL154     -0.2715
     14  CB        12.5870  -43.0250   23.0280 C.3   154  VAL154      0.0290
     15  CG1       13.1200  -41.6830   23.4980 C.3   154  VAL154      0.0023
     16  CG2       12.1420  -42.9880   21.5710 C.3   154  VAL154      0.0023
     17  N         13.4600  -46.2110   21.9690 N.am  155  GLY155     -0.1940
     18  CA        12.9670  -47.5410   21.6620 C.3   155  GLY155      0.2014
     19  C         12.1860  -47.6740   20.3590 C.2   155  GLY155      0.2639
     20  O         11.4790  -48.6730   20.1600 O.2   155  GLY155     -0.2714
     21  N         12.3260  -46.6980   19.4620 N.am  156  LYS156     -0.1963
     22  CA        11.5710  -46.7220   18.2010 C.3   156  LYS156      0.1728
     23  C         11.9090  -47.9800   17.4010 C.2   156  LYS156      0.2617
     24  O         11.0220  -48.7160   16.9520 O.2   156  LYS156     -0.2715
     25  CB        11.8430  -45.4480   17.3690 C.3   156  LYS156      0.0311
     26  CG        11.4520  -44.1300   18.0710 C.3   156  LYS156      0.0038
     27  CD        11.6750  -42.8940   17.1760 C.3   156  LYS156      0.0206
     28  CE        13.1450  -42.7910   16.7150 C.3   156  LYS156      0.1093
     29  NZ        14.0850  -42.6680   17.8970 N.3   156  LYS156     -0.1314
     30  N         13.1930  -48.2480   17.2380 N.am  157  THR157     -0.1937
     31  CA        13.6040  -49.3930   16.4250 C.3   157  THR157      0.2028
     32  C         13.2340  -50.7170   17.0950 C.2   157  THR157      0.2642
     33  O         12.7610  -51.6580   16.4390 O.2   157  THR157     -0.2714
     34  CB        15.1120  -49.3350   16.1140 C.3   157  THR157      0.1808
     35  OG1       15.3580  -48.1700   15.3190 O.3   157  THR157     -0.2208
     36  CG2       15.5570  -50.5580   15.3410 C.3   157  THR157      0.0379
     37  N         13.4230  -50.7870   18.4100 N.am  158  CYS158     -0.1967
     38  CA        13.0580  -51.9920   19.1350 C.3   158  CYS158      0.1712
     39  C         11.5710  -52.3120   19.0510 C.2   158  CYS158      0.2296
     40  O         11.1780  -53.4850   18.9500 O.2   158  CYS158     -0.2864
     41  CB        13.5120  -51.8870   20.5910 C.3   158  CYS158      0.0983
     42  SG        15.2790  -52.2200   20.6510 S.3   158  CYS158     -0.0798
     43  N         13.7710  -59.5210   20.1890 N.3   168  PHE168     -0.1241
     44  CA        14.2920  -58.2760   20.7410 C.3   168  PHE168      0.1605
     45  C         15.7630  -58.0490   20.4060 C.2   168  PHE168      0.2264
     46  O         16.6110  -58.8510   20.7920 O.2   168  PHE168     -0.2867
     47  CB        14.0950  -58.2230   22.2330 C.3   168  PHE168      0.0534
     48  CG        14.2490  -56.8600   22.7750 C.ar  168  PHE168     -0.0203
     49  CD1       15.5070  -56.3240   22.9710 C.ar  168  PHE168     -0.0042
     50  CD2       13.1430  -56.0860   23.0380 C.ar  168  PHE168     -0.0042
     51  CE1       15.6560  -55.0540   23.4640 C.ar  168  PHE168     -0.0003
     52  CE2       13.2860  -54.8140   23.5320 C.ar  168  PHE168     -0.0003
     53  CZ        14.5500  -54.2990   23.7430 C.ar  168  PHE168     -0.0000
     54  N         18.0930  -55.7390   21.2720 N.3   170  GLY170     -0.1225
     55  CA        19.0450  -55.3890   22.3060 C.3   170  GLY170      0.1811
     56  C         20.0230  -54.3150   21.8550 C.2   170  GLY170      0.2280
     57  O         19.6440  -53.1450   21.7700 O.2   170  GLY170     -0.2866
     58  N         22.0520  -51.3980   21.2020 N.3   172  TYR172     -0.1227
     59  CA        21.6870  -50.1240   20.5840 C.3   172  TYR172      0.1736
     60  C         22.5840  -49.7130   19.4140 C.2   172  TYR172      0.2595
     61  O         23.7860  -49.4810   19.5790 O.2   172  TYR172     -0.2718
     62  CB        21.6690  -49.0230   21.6480 C.3   172  TYR172      0.0548
     63  CG        21.3650  -47.6240   21.1340 C.ar  172  TYR172     -0.0200
     64  CD1       20.2620  -47.3770   20.3060 C.ar  172  TYR172     -0.0009
     65  CD2       22.1660  -46.5400   21.5020 C.ar  172  TYR172     -0.0009
     66  CE1       19.9770  -46.0900   19.8530 C.ar  172  TYR172      0.0417
     67  CE2       21.8900  -45.2520   21.0530 C.ar  172  TYR172      0.0417
     68  CZ        20.7880  -45.0350   20.2250 C.ar  172  TYR172      0.1957
     69  OH        20.5170  -43.7570   19.7760 O.3   172  TYR172     -0.2866
     70  N         21.9850  -49.6310   18.2290 N.am  173  ILE173     -0.1966
     71  CA        22.6380  -49.0390   17.0690 C.3   173  ILE173      0.1712
     72  C         21.7430  -47.9340   16.5600 C.2   173  ILE173      0.2458
     73  O         20.6090  -48.2010   16.1500 O.2   173  ILE173     -0.2730
     74  CB        22.8350  -50.0640   15.9440 C.3   173  ILE173      0.0289
     75  CG1       23.7750  -51.1770   16.4170 C.3   173  ILE173      0.0022
     76  CG2       23.3860  -49.3740   14.6920 C.3   173  ILE173      0.0023
     77  CD1       23.6390  -52.4710   15.6500 C.3   173  ILE173      0.0001
     78  N         22.2340  -46.6850   16.6020 N.am  174  PRO174     -0.2716
     79  CA        21.4180  -45.5480   16.1600 C.3   174  PRO174      0.1536
     80  C         20.9720  -45.7130   14.7080 C.2   174  PRO174      0.2599
     81  O         21.7300  -46.2310   13.8800 O.2   174  PRO174     -0.2715
     82  CB        22.3630  -44.3490   16.3070 C.3   174  PRO174      0.0310
     83  CG        23.3750  -44.7860   17.3460 C.3   174  PRO174      0.0237
     84  CD        23.5440  -46.2650   17.1350 C.3   174  PRO174      0.0939
     85  N         19.7500  -45.2700   14.4180 N.am  175  THR175     -0.1951
     86  CA        19.1560  -45.3910   13.0840 C.3   175  THR175      0.1897
     87  C         19.4170  -44.1400   12.2600 C.2   175  THR175      0.2313
     88  O         19.4690  -43.0320   12.8020 O.2   175  THR175     -0.2863
     89  CB        17.6220  -45.5640   13.2040 C.3   175  THR175      0.1794
     90  OG1       17.3490  -46.7500   13.9500 O.3   175  THR175     -0.2208
     91  CG2       16.9450  -45.6800   11.8260 C.3   175  THR175      0.0378
     92  N         13.0630  -43.5090   11.8350 N.3   198  THR198     -0.1218
     93  CA        13.8520  -42.2960   11.5880 C.3   198  THR198      0.1862
     94  C         14.8550  -42.0690   12.7210 C.2   198  THR198      0.2287
     95  O         14.7960  -42.7350   13.7560 O.2   198  THR198     -0.2866
     96  CB        12.9530  -41.0310   11.4520 C.3   198  THR198      0.1770
     97  OG1       12.3190  -40.7360   12.7020 O.3   198  THR198     -0.2211
     98  CG2       11.8720  -41.2170   10.3660 C.3   198  THR198      0.0375
     99  N         16.5340  -40.1880   15.8280 N.3   200  GLY200     -0.1210
    100  CA        16.1870  -39.2690   16.8940 C.3   200  GLY200      0.1956
    101  C         17.1950  -38.1350   17.0730 C.2   200  GLY200      0.2611
    102  O         16.8540  -37.0830   17.5980 O.2   200  GLY200     -0.2717
    103  N         18.4300  -38.3380   16.6270 N.am  201  LEU201     -0.1979
    104  CA        19.4910  -37.3480   16.8820 C.3   201  LEU201      0.1596
    105  C         19.2680  -36.0110   16.1810 C.2   201  LEU201      0.2287
    106  O         18.8790  -35.9590   15.0120 O.2   201  LEU201     -0.2864
    107  CB        20.8620  -37.9160   16.5300 C.3   201  LEU201      0.0297
    108  CG        21.3680  -39.1190   17.3380 C.3   201  LEU201      0.0022
    109  CD1       22.8790  -39.0160   17.4970 C.3   201  LEU201      0.0001
    110  CD2       20.7090  -39.2010   18.7070 C.3   201  LEU201      0.0001
    111  N          7.0230  -45.4430   25.5520 N.3   255  THR255     -0.1203
    112  CA         7.7230  -46.7160   25.3810 C.3   255  THR255      0.1994
    113  C          8.4180  -47.1820   26.6540 C.2   255  THR255      0.2617
    114  O          8.4790  -46.4520   27.6410 O.2   255  THR255     -0.2717
    115  CB         8.8140  -46.5620   24.3080 C.3   255  THR255      0.1784
    116  OG1        9.7800  -45.6210   24.7810 O.3   255  THR255     -0.2211
    117  CG2        8.2030  -46.0210   22.9860 C.3   255  THR255      0.0376
    118  N          8.9540  -48.3940   26.6030 N.am  256  LYS256     -0.1979
    119  CA         9.6670  -49.0110   27.7260 C.3   256  LYS256      0.1596
    120  C          8.7570  -49.1350   28.9300 C.2   256  LYS256      0.2287
    121  O          9.1950  -48.9650   30.0720 O.2   256  LYS256     -0.2864
    122  CB        10.9190  -48.2080   28.0900 C.3   256  LYS256      0.0298
    123  CG        11.9260  -48.1220   26.9430 C.3   256  LYS256      0.0038
    124  CD        13.2830  -47.5690   27.4120 C.3   256  LYS256      0.0206
    125  CE        14.1410  -47.2320   26.1940 C.3   256  LYS256      0.1093
    126  NZ        15.5020  -46.7400   26.5350 N.3   256  LYS256     -0.1314
    127  N          7.7170  -51.5420   30.4890 N.3   258  ASP258     -0.1225
    128  CA         8.1980  -52.5410   31.4390 C.3   258  ASP258      0.1805
    129  C          9.1580  -51.9610   32.4740 C.2   258  ASP258      0.2597
    130  O          9.3310  -52.5300   33.5390 O.2   258  ASP258     -0.2718
    131  CB         8.8950  -53.7040   30.7220 C.3   258  ASP258      0.1424
    132  CG        10.1060  -53.2530   29.9040 C.2   258  ASP258      0.3668
    133  OD1        9.9160  -52.6530   28.8230 O.co2 258  ASP258     -0.2456
    134  OD2       11.2530  -53.5070   30.3370 O.co2 258  ASP258     -0.2456
    135  N          9.7980  -50.8430   32.1560 N.am  259  LEU259     -0.1979
    136  CA        10.7770  -50.2530   33.0660 C.3   259  LEU259      0.1596
    137  C         10.1450  -49.2880   34.0620 C.2   259  LEU259      0.2287
    138  O         10.8090  -48.8770   35.0080 O.2   259  LEU259     -0.2864
    139  CB        11.8850  -49.5200   32.2900 C.3   259  LEU259      0.0297
    140  CG        12.8130  -50.3590   31.4070 C.3   259  LEU259      0.0022
    141  CD1       13.9150  -49.4880   30.7600 C.3   259  LEU259      0.0001
    142  CD2       13.4410  -51.5250   32.1640 C.3   259  LEU259      0.0001
    143  N          8.4580  -52.9190   24.0880 N.3   299  ALA299     -0.1231
    144  CA         8.9900  -53.7610   23.0230 C.3   299  ALA299      0.1694
    145  C          9.4950  -55.0730   23.6180 C.2   299  ALA299      0.2591
    146  O          9.5520  -56.0890   22.9410 O.2   299  ALA299     -0.2718
    147  CB        10.1180  -53.0520   22.2930 C.3   299  ALA299      0.0304
    148  N          9.8670  -55.0450   24.8930 N.am  300  LEU300     -0.1980
    149  CA        10.4800  -56.2160   25.5210 C.3   300  LEU300      0.1596
    150  C          9.4310  -57.2950   25.7910 C.2   300  LEU300      0.2287
    151  O          9.6060  -58.4560   25.4110 O.2   300  LEU300     -0.2864
    152  CB        11.1660  -55.8220   26.8270 C.3   300  LEU300      0.0297
    153  CG        11.8230  -56.9840   27.5920 C.3   300  LEU300      0.0022
    154  CD1       12.8530  -57.6510   26.7060 C.3   300  LEU300      0.0001
    155  CD2       12.4740  -56.4920   28.8920 C.3   300  LEU300      0.0001
@<TRIPOS>BOND
     1    98    96    1
     2    96    93    1
     3    96    97    1
     4    93    92    1
     5    93    94    1
     6    91    89    1
     7    87    88    2
     8    87    86    1
     9    94    95    2
    10    86    89    1
    11    86    85    1
    12    89    90    1
    13    81    80    2
    14    85    80   am
    15    76    74    1
    16    80    79    1
    17   106   105    2
    18    35    34    1
    19    36    34    1
    20    77    75    1
    21    99   100    1
    22    74    75    1
    23    74    71    1
    24    34    31    1
    25    73    72    2
    26    79    82    1
    27    79    78    1
    28   105   104    1
    29    82    83    1
    30    31    32    1
    31    31    30    1
    32    33    32    2
    33   107   104    1
    34   107   108    1
    35    72    78   am
    36    72    71    1
    37    78    84    1
    38   103   104    1
    39   103   101   am
    40    28    27    1
    41    28    29    1
    42   100   101    1
    43    24    23    2
    44    71    70    1
    45   101   102    2
    46    32    37   am
    47    84    83    1
    48    27    26    1
    49    30    23   am
    50   108   109    1
    51   108   110    1
    52    25    26    1
    53    25    22    1
    54    23    22    1
    55    22    21    1
    56    70    60   am
    57    37    38    1
    58    40    39    2
    59    39    38    1
    60    38    41    1
    61    60    61    2
    62    60    59    1
    63    21    19   am
    64    69    68    1
    65    66    68   ar
    66    66    64   ar
    67    20    19    2
    68    43    44    1
    69    68    67   ar
    70     2     1    1
    71     2     3    1
    72    64    63   ar
    73    19    18    1
    74    45    44    1
    75    45    46    2
    76    59    58    1
    77    59    62    1
    78    41    42    1
    79    44    47    1
    80    67    65   ar
    81    63    65   ar
    82    63    62    1
    83     5     3   am
    84     5     6    1
    85    54    55    1
    86     3     4    2
    87    16    14    1
    88    18    17    1
    89    57    56    2
    90    56    55    1
    91    17    12   am
    92    47    48    1
    93   147   144    1
    94     6     7    1
    95     6     9    1
    96    10     7   am
    97    10    11    1
    98    48    49   ar
    99    48    50   ar
   100   146   145    2
   101    49    51   ar
   102   117   115    1
   103    12    11    1
   104    12    13    2
   105   144   145    1
   106   144   143    1
   107    14    11    1
   108    14    15    1
   109    50    52   ar
   110     7     8    2
   111    51    53   ar
   112    52    53   ar
   113   145   148   am
   114   115   116    1
   115   115   112    1
   116   148   149    1
   117   112   111    1
   118   112   113    1
   119   151   150    2
   120   149   150    1
   121   149   152    1
   122   125   126    1
   123   125   124    1
   124   118   113   am
   125   118   119    1
   126   113   114    2
   127   154   153    1
   128   152   153    1
   129   123   124    1
   130   123   122    1
   131   153   155    1
   132   119   122    1
   133   119   120    1
   134   133   132   ar
   135   120   121    2
   136   132   134   ar
   137   132   131    1
   138   127   128    1
   139   131   128    1
   140   141   140    1
   141   140   142    1
   142   140   139    1
   143   128   129    1
   144   135   129   am
   145   135   136    1
   146   139   136    1
   147   129   130    2
   148   136   137    1
   149   137   138    2
