@<TRIPOS>MOLECULE
tmp/2wkpA01.pdb
 195 181 0 0 0
SMALL
GASTEIGER

@<TRIPOS>ATOM
      1  N          9.4960  -55.2780   -5.5930 N.3    13  VAL13      -0.1245
      2  CA         9.7960  -54.3700   -4.4910 C.3    13  VAL13       0.1561
      3  C          9.2040  -53.0080   -4.8300 C.2    13  VAL13       0.2260
      4  O          8.9060  -52.7140   -6.0000 O.2    13  VAL13      -0.2867
      5  CB        11.3100  -54.2200   -4.2510 C.3    13  VAL13       0.0252
      6  CG1       11.9380  -55.5780   -3.8710 C.3    13  VAL13       0.0019
      7  CG2       12.0060  -53.5980   -5.4790 C.3    13  VAL13       0.0019
      8  N         10.1690  -48.9370   -3.7930 N.3    15  THR15      -0.1218
      9  CA        11.1610  -48.0830   -3.1180 C.3    15  THR15       0.1862
     10  C         10.6530  -46.6580   -2.9070 C.2    15  THR15       0.2287
     11  O          9.7100  -46.2200   -3.5580 O.2    15  THR15      -0.2866
     12  CB        12.4710  -48.0030   -3.9190 C.3    15  THR15       0.1770
     13  OG1       12.2230  -47.3000   -5.1430 O.3    15  THR15      -0.2211
     14  CG2       13.0170  -49.4130   -4.2240 C.3    15  THR15       0.0375
     15  N         17.1930  -44.1900   -2.2630 N.3    22  ASN22      -0.1240
     16  CA        16.0250  -44.8540   -2.8750 C.3    22  ASN22       0.1653
     17  C         15.8180  -46.2830   -2.3380 C.2    22  ASN22       0.2266
     18  O         15.8040  -47.2620   -3.0960 O.2    22  ASN22      -0.2867
     19  CB        16.1970  -44.8640   -4.4060 C.3    22  ASN22       0.1155
     20  CG        14.8860  -45.1570   -5.1640 C.2    22  ASN22       0.2627
     21  OD1       13.7850  -45.1240   -4.6030 O.2    22  ASN22      -0.2716
     22  ND2       15.0150  -45.4180   -6.4530 N.am   22  ASN22      -0.0877
     23  N         19.0180  -50.0450   -0.8210 N.3    46  ASN46      -0.1225
     24  CA        18.9390  -49.9820   -2.2870 C.3    46  ASN46       0.1785
     25  C         19.0630  -51.3880   -2.8960 C.2    46  ASN46       0.2597
     26  O         19.8620  -52.1980   -2.4170 O.2    46  ASN46      -0.2718
     27  CB        20.0590  -49.0770   -2.8110 C.3    46  ASN46       0.1169
     28  CG        19.9520  -48.8280   -4.3050 C.2    46  ASN46       0.2627
     29  OD1       20.3100  -49.6810   -5.1110 O.2    46  ASN46      -0.2716
     30  ND2       19.4350  -47.6570   -4.6760 N.am   46  ASN46      -0.0877
     31  N         18.3080  -51.6540   -3.9700 N.am   47  CYS47      -0.1956
     32  CA        18.2500  -52.9950   -4.5590 C.3    47  CYS47       0.1843
     33  C         19.5280  -53.4350   -5.3100 C.2    47  CYS47       0.2625
     34  O         19.6160  -54.5750   -5.7830 O.2    47  CYS47      -0.2714
     35  CB        17.0130  -53.1250   -5.4770 C.3    47  CYS47       0.0997
     36  SG        16.2670  -54.7930   -5.5280 S.3    47  CYS47      -0.0797
     37  N         20.5280  -52.5640   -5.3990 N.am   48  ARG48      -0.1977
     38  CA        21.7340  -52.9110   -6.1560 C.3    48  ARG48       0.1597
     39  C         22.5000  -54.1040   -5.5680 C.2    48  ARG48       0.2287
     40  O         23.3550  -54.6680   -6.2340 O.2    48  ARG48      -0.2864
     41  CB        22.6660  -51.6950   -6.3200 C.3    48  ARG48       0.0334
     42  CG        23.3800  -51.3000   -5.0130 C.3    48  ARG48       0.0492
     43  CD        24.4460  -50.2240   -5.2310 C.3    48  ARG48       0.2205
     44  NE        23.8930  -48.9300   -5.6280 N.pl3  48  ARG48      -0.0865
     45  CZ        23.4020  -48.0220   -4.7900 C.cat  48  ARG48       0.5346
     46  NH1       23.3480  -48.2640   -3.4830 N.pl3  48  ARG48       0.1354
     47  NH2       22.9340  -46.8750   -5.2650 N.pl3  48  ARG48       0.1354
     48  N         21.6500  -56.9650   -5.4380 N.3    50  LEU50      -0.1231
     49  CA        21.4220  -58.1100   -6.3160 C.3    50  LEU50       0.1693
     50  C         22.4900  -58.2550   -7.3940 C.2    50  LEU50       0.2591
     51  O         22.5970  -59.3060   -8.0210 O.2    50  LEU50      -0.2718
     52  CB        20.0580  -57.9950   -6.9940 C.3    50  LEU50       0.0284
     53  CG        18.8620  -58.1000   -6.0360 C.3    50  LEU50       0.0019
     54  CD1       17.5550  -58.0290   -6.7770 C.3    50  LEU50       0.0001
     55  CD2       18.9510  -59.4010   -5.2330 C.3    50  LEU50       0.0001
     56  N         23.2650  -57.1990   -7.6400 N.am   51  GLN51      -0.1979
     57  CA        24.2340  -57.2470   -8.7350 C.3    51  GLN51       0.1601
     58  C         25.5490  -57.8990   -8.3190 C.2    51  GLN51       0.2287
     59  O         25.8550  -57.9680   -7.1340 O.2    51  GLN51      -0.2864
     60  CB        24.4640  -55.8400   -9.3040 C.3    51  GLN51       0.0394
     61  CG        23.1820  -55.2080   -9.8270 C.3    51  GLN51       0.0908
     62  CD        23.2190  -53.6900   -9.7880 C.2    51  GLN51       0.2608
     63  OE1       24.2840  -53.0860   -9.6420 O.2    51  GLN51      -0.2717
     64  NE2       22.0470  -53.0640   -9.8980 N.am   51  GLN51      -0.0878
     65  N         27.3000  -53.7030  -16.5590 N.3    57  ARG57      -0.1245
     66  CA        27.1960  -52.3510  -16.0000 C.3    57  ARG57       0.1563
     67  C         26.4650  -51.3520  -16.9100 C.2    57  ARG57       0.2260
     68  O         25.8420  -50.4200  -16.4180 O.2    57  ARG57      -0.2867
     69  CB        28.5790  -51.7990  -15.5910 C.3    57  ARG57       0.0307
     70  CG        29.3590  -52.6860  -14.6250 C.3    57  ARG57       0.0489
     71  CD        28.5450  -53.0320  -13.3830 C.3    57  ARG57       0.2205
     72  NE        28.1580  -51.8340  -12.6420 N.pl3  57  ARG57      -0.0865
     73  CZ        27.3170  -51.8140  -11.6100 C.cat  57  ARG57       0.5346
     74  NH1       26.7490  -52.9390  -11.1740 N.pl3  57  ARG57       0.1354
     75  NH2       27.0460  -50.6570  -11.0100 N.pl3  57  ARG57       0.1354
     76  N         22.8830  -51.6690  -16.0630 N.3    60  VAL60      -0.1231
     77  CA        22.6610  -50.9920  -14.7820 C.3    60  VAL60       0.1692
     78  C         22.5700  -49.4670  -14.9630 C.2    60  VAL60       0.2591
     79  O         21.7180  -48.7970  -14.3660 O.2    60  VAL60      -0.2718
     80  CB        23.7500  -51.3710  -13.7580 C.3    60  VAL60       0.0266
     81  CG1       23.5880  -50.5640  -12.4620 C.3    60  VAL60       0.0020
     82  CG2       23.7010  -52.9020  -13.4470 C.3    60  VAL60       0.0020
     83  N         23.4380  -48.9090  -15.7980 N.am   61  ARG61      -0.1980
     84  CA        23.3430  -47.4740  -16.0930 C.3    61  ARG61       0.1597
     85  C         22.0110  -47.0680  -16.7360 C.2    61  ARG61       0.2287
     86  O         21.4880  -45.9830  -16.4650 O.2    61  ARG61      -0.2864
     87  CB        24.5730  -46.9720  -16.8790 C.3    61  ARG61       0.0334
     88  CG        25.8530  -47.0200  -16.0300 C.3    61  ARG61       0.0492
     89  CD        27.0730  -46.3480  -16.7030 C.3    61  ARG61       0.2205
     90  NE        27.3690  -46.8550  -18.0480 N.pl3  61  ARG61      -0.0865
     91  CZ        28.1860  -47.8720  -18.3260 C.cat  61  ARG61       0.5346
     92  NH1       28.7880  -48.5400  -17.3580 N.pl3  61  ARG61       0.1354
     93  NH2       28.3810  -48.2410  -19.5840 N.pl3  61  ARG61       0.1354
     94  N         19.1500  -48.3670  -16.0300 N.3    63  ILE63      -0.1231
     95  CA        18.1920  -48.3340  -14.9390 C.3    63  ILE63       0.1692
     96  C         18.3530  -47.0310  -14.1760 C.2    63  ILE63       0.2591
     97  O         17.3830  -46.3300  -13.8890 O.2    63  ILE63      -0.2718
     98  CB        18.4110  -49.5250  -13.9810 C.3    63  ILE63       0.0266
     99  CG1       18.1420  -50.8510  -14.7100 C.3    63  ILE63       0.0019
    100  CG2       17.5170  -49.3790  -12.7640 C.3    63  ILE63       0.0020
    101  CD1       18.5980  -52.1180  -13.9250 C.3    63  ILE63       0.0001
    102  N         19.5910  -46.6970  -13.8560 N.am   64  ARG64      -0.1980
    103  CA        19.8570  -45.4540  -13.1300 C.3    64  ARG64       0.1597
    104  C         19.3200  -44.2580  -13.9220 C.2    64  ARG64       0.2287
    105  O         18.7040  -43.3410  -13.3750 O.2    64  ARG64      -0.2864
    106  CB        21.3640  -45.2980  -12.9350 C.3    64  ARG64       0.0334
    107  CG        21.7560  -43.9700  -12.2980 C.3    64  ARG64       0.0492
    108  CD        22.9220  -43.3560  -13.0490 C.3    64  ARG64       0.2205
    109  NE        24.1740  -43.9320  -12.6020 N.pl3  64  ARG64      -0.0865
    110  CZ        25.2900  -43.9870  -13.3180 C.cat  64  ARG64       0.5346
    111  NH1       25.3440  -43.5070  -14.5590 N.pl3  64  ARG64       0.1354
    112  NH2       26.3430  -44.5480  -12.7770 N.pl3  64  ARG64       0.1354
    113  N         15.5210  -44.0450  -13.6220 N.3    67  ILE67      -0.1245
    114  CA        15.1270  -43.5330  -12.3050 C.3    67  ILE67       0.1561
    115  C         15.3390  -42.0050  -12.2100 C.2    67  ILE67       0.2260
    116  O         14.4590  -41.2710  -11.7360 O.2    67  ILE67      -0.2867
    117  CB        15.8940  -44.2580  -11.1800 C.3    67  ILE67       0.0252
    118  CG1       15.5010  -45.7440  -11.1550 C.3    67  ILE67       0.0019
    119  CG2       15.6390  -43.5900   -9.8070 C.3    67  ILE67       0.0019
    120  CD1       16.4560  -46.6290  -10.3780 C.3    67  ILE67       0.0001
    121  N         19.0860  -58.4710  -16.9550 N.3    77  LEU77      -0.1245
    122  CA        20.4390  -58.4670  -16.4320 C.3    77  LEU77       0.1561
    123  C         20.6520  -59.6100  -15.4670 C.2    77  LEU77       0.2260
    124  O         19.6970  -60.1610  -14.9200 O.2    77  LEU77      -0.2867
    125  CB        20.7690  -57.1220  -15.7610 C.3    77  LEU77       0.0270
    126  CG        20.2830  -56.8600  -14.3300 C.3    77  LEU77       0.0019
    127  CD1       20.8950  -55.5490  -13.7760 C.3    77  LEU77       0.0001
    128  CD2       18.7480  -56.8040  -14.2920 C.3    77  LEU77       0.0001
    129  N         21.6050  -61.2360  -12.0390 N.3    79  ASN79      -0.1240
    130  CA        21.5760  -60.9000  -10.6200 C.3    79  ASN79       0.1653
    131  C         22.0240  -62.1150   -9.8050 C.2    79  ASN79       0.2266
    132  O         22.2160  -63.1980  -10.3620 O.2    79  ASN79      -0.2867
    133  CB        20.1590  -60.4950  -10.1820 C.3    79  ASN79       0.1155
    134  CG        19.8420  -59.0030  -10.4080 C.2    79  ASN79       0.2627
    135  OD1       18.7010  -58.5950  -10.2100 O.2    79  ASN79      -0.2716
    136  ND2       20.8340  -58.1960  -10.8040 N.am   79  ASN79      -0.0877
    137  N         17.4460  -61.8400  -14.7910 N.3    89  ASN89      -0.1240
    138  CA        16.3480  -61.0660  -14.2510 C.3    89  ASN89       0.1653
    139  C         15.7990  -60.2040  -15.3640 C.2    89  ASN89       0.2266
    140  O         16.4720  -59.2790  -15.8430 O.2    89  ASN89      -0.2867
    141  CB        16.8530  -60.2340  -13.0720 C.3    89  ASN89       0.1155
    142  CG        15.8060  -59.2720  -12.5200 C.2    89  ASN89       0.2627
    143  OD1       14.6640  -59.2150  -12.9910 O.2    89  ASN89      -0.2716
    144  ND2       16.2070  -58.4940  -11.5160 N.am   89  ASN89      -0.0877
    145  N         13.6220  -57.5030  -15.8920 N.3    91  PHE91      -0.1241
    146  CA        13.3050  -56.5270  -14.8640 C.3    91  PHE91       0.1605
    147  C         12.5240  -55.3570  -15.4450 C.2    91  PHE91       0.2264
    148  O         12.9100  -54.7780  -16.4670 O.2    91  PHE91      -0.2867
    149  CB        14.6110  -56.0350  -14.1990 C.3    91  PHE91       0.0534
    150  CG        14.4090  -54.8630  -13.2720 C.ar   91  PHE91      -0.0203
    151  CD1       13.6140  -54.9860  -12.1590 C.ar   91  PHE91      -0.0042
    152  CD2       14.9910  -53.6360  -13.5410 C.ar   91  PHE91      -0.0042
    153  CE1       13.4130  -53.9040  -11.2900 C.ar   91  PHE91      -0.0003
    154  CE2       14.7910  -52.5470  -12.6850 C.ar   91  PHE91      -0.0003
    155  CZ        13.9940  -52.6820  -11.5660 C.ar   91  PHE91      -0.0000
    156  N         10.7870  -51.5880  -14.3630 N.3    93  LEU93      -0.1245
    157  CA        10.6970  -50.5320  -13.3660 C.3    93  LEU93       0.1561
    158  C          9.7280  -49.4550  -13.8220 C.2    93  LEU93       0.2260
    159  O          9.7070  -49.0800  -14.9930 O.2    93  LEU93      -0.2867
    160  CB        12.0780  -49.9150  -13.1270 C.3    93  LEU93       0.0270
    161  CG        12.0800  -48.6120  -12.3330 C.3    93  LEU93       0.0019
    162  CD1       13.2280  -48.6150  -11.3090 C.3    93  LEU93       0.0001
    163  CD2       12.1380  -47.4020  -13.2510 C.3    93  LEU93       0.0001
    164  N          8.9120  -45.9330   -6.5870 N.3   106  PHE106     -0.1227
    165  CA         9.1970  -46.7290   -7.7790 C.3   106  PHE106      0.1736
    166  C          8.7730  -48.1660   -7.5280 C.2   106  PHE106      0.2595
    167  O          8.9280  -48.6890   -6.4170 O.2   106  PHE106     -0.2718
    168  CB        10.6800  -46.6830   -8.1500 C.3   106  PHE106      0.0547
    169  CG        11.0850  -45.4140   -8.8400 C.ar  106  PHE106     -0.0202
    170  CD1       10.9480  -45.2770  -10.2210 C.ar  106  PHE106     -0.0042
    171  CD2       11.5930  -44.3530   -8.1080 C.ar  106  PHE106     -0.0042
    172  CE1       11.3250  -44.0940  -10.8600 C.ar  106  PHE106     -0.0003
    173  CE2       11.9720  -43.1580   -8.7370 C.ar  106  PHE106     -0.0003
    174  CZ        11.8250  -43.0290  -10.1220 C.ar  106  PHE106     -0.0000
    175  N          8.2310  -48.8040   -8.5630 N.am  107  ILE107     -0.1966
    176  CA         7.8270  -50.2010   -8.4630 C.3   107  ILE107      0.1727
    177  C          8.7780  -50.9710   -9.3680 C.2   107  ILE107      0.2616
    178  O          9.0440  -50.5400  -10.4950 O.2   107  ILE107     -0.2715
    179  CB         6.3780  -50.4190   -8.9730 C.3   107  ILE107      0.0290
    180  CG1        5.3520  -49.7880   -8.0290 C.3   107  ILE107      0.0022
    181  CG2        6.1080  -51.9270   -9.1650 C.3   107  ILE107      0.0023
    182  CD1        3.9520  -49.6320   -8.6430 C.3   107  ILE107      0.0001
    183  N          9.3070  -52.0850   -8.8720 N.am  108  GLY108     -0.1955
    184  CA        10.1860  -52.9260   -9.6690 C.3   108  GLY108      0.1869
    185  C          9.7690  -54.3880   -9.6390 C.2   108  GLY108      0.2309
    186  O          9.5630  -54.9630   -8.5660 O.2   108  GLY108     -0.2863
    187  N         10.5080  -58.3890  -10.9620 N.3   110  GLN110     -0.1245
    188  CA        11.5520  -59.2740  -11.4590 C.3   110  GLN110      0.1566
    189  C         10.9510  -60.5980  -11.9400 C.2   110  GLN110      0.2260
    190  O         10.2390  -61.2770  -11.1980 O.2   110  GLN110     -0.2867
    191  CB        12.5590  -59.6110  -10.3520 C.3   110  GLN110      0.0367
    192  CG        13.3190  -58.4250   -9.7630 C.3   110  GLN110      0.0905
    193  CD        12.5260  -57.6840   -8.7200 C.2   110  GLN110      0.2608
    194  OE1       11.4950  -58.1670   -8.2450 O.2   110  GLN110     -0.2717
    195  NE2       13.0040  -56.4940   -8.3470 N.am  110  GLN110     -0.0878
@<TRIPOS>BOND
     1    93    91    1
     2    91    90    2
     3    91    92    1
     4    90    89    1
     5   121   122    1
     6    67    68    2
     7    67    66    1
     8    87    84    1
     9    87    88    1
    10    85    86    2
    11    85    84    1
    12    89    88    1
    13    65    66    1
    14   148   147    2
    15   122   125    1
    16   122   123    1
    17    84    83    1
    18    76    77    1
    19    94    95    1
    20    66    69    1
    21   145   146    1
    22   140   139    2
    23    83    78   am
    24   125   126    1
    25    69    70    1
    26   123   124    2
    27   147   146    1
    28   139   138    1
    29   159   158    2
    30    78    77    1
    31    78    79    2
    32    95    96    1
    33    95    98    1
    34   146   149    1
    35   137   138    1
    36    77    80    1
    37    99    98    1
    38    99   101    1
    39    70    71    1
    40   111   110    1
    41   156   157    1
    42   126   128    1
    43   126   127    1
    44   138   141    1
    45   149   150    1
    46    96    97    2
    47    96   102   am
    48    98   100    1
    49   104   105    2
    50   104   103    1
    51   102   103    1
    52   158   157    1
    53    80    82    1
    54    80    81    1
    55   113   114    1
    56   152   150   ar
    57   152   154   ar
    58    71    72    1
    59   157   160    1
    60   110   112    1
    61   110   109    2
    62   150   151   ar
    63   163   161    1
    64   103   106    1
    65   160   161    1
    66   141   142    1
    67   108   109    1
    68   108   107    1
    69   143   142    2
    70   106   107    1
    71   154   155   ar
    72    72    73    2
    73   142   144   am
    74   161   162    1
    75   114   115    1
    76   114   117    1
    77   115   116    2
    78   151   153   ar
    79   129   130    1
    80   189   188    1
    81   189   190    2
    82    73    74    1
    83    73    75    1
    84   155   153   ar
    85   188   187    1
    86   188   191    1
    87   117   118    1
    88   117   119    1
    89   118   120    1
    90   172   170   ar
    91   172   174   ar
    92   136   134   am
    93   130   133    1
    94   130   131    1
    95   178   177    2
    96   134   135    2
    97   134   133    1
    98   132   131    2
    99   191   192    1
   100   170   169   ar
   101   174   173   ar
   102    64    62   am
   103    61    62    1
   104    61    60    1
   105    62    63    2
   106   192   193    1
   107   184   185    1
   108   184   183    1
   109   185   186    2
   110   177   183   am
   111   177   176    1
   112    60    57    1
   113   181   179    1
   114   179   176    1
   115   179   180    1
   116   169   168    1
   117   169   171   ar
   118   173   171   ar
   119    57    58    1
   120    57    56    1
   121   193   195   am
   122   193   194    2
   123   182   180    1
   124   175   176    1
   125   175   166   am
   126    58    59    2
   127   168   165    1
   128    51    50    2
   129   165   166    1
   130   165   164    1
   131    56    50   am
   132   166   167    2
   133    50    49    1
   134    52    49    1
   135    52    53    1
   136    54    53    1
   137    22    20   am
   138    41    38    1
   139    41    42    1
   140    49    48    1
   141    40    39    2
   142    38    39    1
   143    38    37    1
   144    53    55    1
   145     4     3    2
   146    34    33    2
   147    44    43    1
   148    44    45    2
   149     1     2    1
   150    36    35    1
   151     7     5    1
   152    35    32    1
   153    37    33   am
   154    33    32    1
   155    47    45    1
   156    43    42    1
   157    20    21    2
   158    20    19    1
   159    13    12    1
   160    29    28    2
   161     3     2    1
   162    45    46    1
   163    30    28   am
   164    32    31    1
   165     2     5    1
   166    19    16    1
   167    28    27    1
   168     5     6    1
   169    14    12    1
   170    31    25   am
   171    12     9    1
   172     8     9    1
   173    11    10    2
   174     9    10    1
   175    18    17    2
   176    25    26    2
   177    25    24    1
   178    16    17    1
   179    16    15    1
   180    27    24    1
   181    24    23    1
