@<TRIPOS>MOLECULE
tmp/2wksF00.pdb
 148 142 0 0 0
SMALL
GASTEIGER

@<TRIPOS>ATOM
      1  N         25.5500    0.3930   17.3970 N.3     9  PRO9       -0.2102
      2  CA        24.9810    0.2000   18.7250 C.3     9  PRO9        0.1504
      3  C         24.8070   -1.2720   19.1320 C.2     9  PRO9        0.2576
      4  O         24.4880   -2.1260   18.3000 O.2     9  PRO9       -0.2718
      5  CB        23.6330    0.9110   18.6230 C.3     9  PRO9        0.0282
      6  CG        23.3260    0.9360   17.1790 C.3     9  PRO9        0.0208
      7  CD        24.6260    1.1090   16.5040 C.3     9  PRO9        0.0893
      8  N         25.0430   -1.5590   20.4080 N.am   10  ASN10      -0.1961
      9  CA        24.8050   -2.8770   20.9930 C.3    10  ASN10       0.1819
     10  C         25.8020   -3.9650   20.6420 C.2    10  ASN10       0.2621
     11  O         25.8010   -5.0300   21.2570 O.2    10  ASN10      -0.2715
     12  CB        23.3980   -3.3590   20.6730 C.3    10  ASN10       0.1195
     13  CG        22.3500   -2.5040   21.3060 C.2    10  ASN10       0.2630
     14  OD1       22.4090   -2.2120   22.4930 O.2    10  ASN10      -0.2716
     15  ND2       21.3780   -2.0910   20.5250 N.am   10  ASN10      -0.0877
     16  N         26.6500   -3.7240   19.6520 N.am   11  LEU11      -0.1977
     17  CA        27.6190   -4.7450   19.2650 C.3    11  LEU11       0.1596
     18  C         28.6680   -5.0040   20.3560 C.2    11  LEU11       0.2287
     19  O         29.2170   -6.0950   20.4490 O.2    11  LEU11      -0.2864
     20  CB        28.2640   -4.4220   17.9200 C.3    11  LEU11       0.0297
     21  CG        27.3630   -4.7040   16.7220 C.3    11  LEU11       0.0022
     22  CD1       27.8430   -3.9140   15.5500 C.3    11  LEU11       0.0001
     23  CD2       27.3310   -6.1780   16.4150 C.3    11  LEU11       0.0001
     24  N         27.9170   -5.5230   23.2710 N.3    13  MET13      -0.1230
     25  CA        27.3160   -6.4670   24.2020 C.3    13  MET13       0.1702
     26  C         27.4460   -7.8970   23.7100 C.2    13  MET13       0.2592
     27  O         27.0100   -8.8470   24.3850 O.2    13  MET13      -0.2718
     28  CB        25.8510   -6.1270   24.4610 C.3    13  MET13       0.0401
     29  CG        25.6540   -4.7700   25.0790 C.3    13  MET13       0.0596
     30  SD        26.5540   -4.5570   26.6360 S.3    13  MET13      -0.1393
     31  CE        25.7160   -5.7710   27.6960 C.3    13  MET13       0.0692
     32  N         28.0590   -8.0620   22.5440 N.am   14  LEU14      -0.1980
     33  CA        28.1600   -9.3850   21.9450 C.3    14  LEU14       0.1596
     34  C         28.7540  -10.4210   22.8750 C.2    14  LEU14       0.2287
     35  O         29.6860  -10.1220   23.6300 O.2    14  LEU14      -0.2864
     36  CB        28.9930   -9.3490   20.6750 C.3    14  LEU14       0.0297
     37  CG        28.2080   -9.0650   19.4190 C.3    14  LEU14       0.0022
     38  CD1       29.1840   -9.1170   18.3010 C.3    14  LEU14       0.0001
     39  CD2       27.0980  -10.0670   19.2500 C.3    14  LEU14       0.0001
     40  N         23.5780  -14.3120   24.0070 N.3    19  PRO19      -0.2116
     41  CA        22.1450  -14.0930   23.7450 C.3    19  PRO19       0.1372
     42  C         21.6300  -14.6740   22.4010 C.2    19  PRO19       0.2244
     43  O         20.8660  -14.0120   21.6730 O.2    19  PRO19      -0.2868
     44  CB        22.0040  -12.5570   23.8240 C.3    19  PRO19       0.0268
     45  CG        23.3420  -12.0600   24.3880 C.3    19  PRO19       0.0207
     46  CD        24.3260  -13.0500   23.8540 C.3    19  PRO19       0.0892
     47  N         21.0450  -15.3770   19.1580 N.3    21  LEU21      -0.1231
     48  CA        20.9430  -14.9480   17.7310 C.3    21  LEU21       0.1693
     49  C         22.2950  -14.5790   17.0760 C.2    21  LEU21       0.2592
     50  O         22.5870  -14.9710   15.9400 O.2    21  LEU21      -0.2718
     51  CB        19.9510  -13.7540   17.5740 C.3    21  LEU21       0.0284
     52  CG        18.7110  -13.4720   18.4750 C.3    21  LEU21       0.0019
     53  CD1       19.0230  -12.6030   19.7140 C.3    21  LEU21       0.0001
     54  CD2       17.5390  -12.8360   17.6940 C.3    21  LEU21       0.0001
     55  N         23.1020  -13.8230   17.8240 N.am   22  TYR22      -0.1976
     56  CA        24.3470  -13.2190   17.3400 C.3    22  TYR22       0.1639
     57  C         25.5700  -14.0850   17.6840 C.2    22  TYR22       0.2290
     58  O         26.5940  -13.9850   17.0080 O.2    22  TYR22      -0.2864
     59  CB        24.4940  -11.7710   17.8750 C.3    22  TYR22       0.0560
     60  CG        23.3470  -10.8360   17.4860 C.ar   22  TYR22      -0.0198
     61  CD1       22.1370  -10.8570   18.1850 C.ar   22  TYR22      -0.0009
     62  CD2       23.4590   -9.9450   16.4200 C.ar   22  TYR22      -0.0009
     63  CE1       21.0620  -10.0250   17.8240 C.ar   22  TYR22       0.0417
     64  CE2       22.3860   -9.1020   16.0590 C.ar   22  TYR22       0.0417
     65  CZ        21.1990   -9.1520   16.7690 C.ar   22  TYR22       0.1957
     66  OH        20.1320   -8.3480   16.4610 O.3    22  TYR22      -0.2866
     67  N         29.6020   -2.0040   10.4850 N.3    76  ASN76      -0.1240
     68  CA        28.3810   -2.6790   10.8140 C.3    76  ASN76       0.1653
     69  C         27.5730   -1.6910   11.6050 C.2    76  ASN76       0.2266
     70  O         27.8370   -1.5290   12.7880 O.2    76  ASN76      -0.2867
     71  CB        28.6470   -3.8990   11.6670 C.3    76  ASN76       0.1155
     72  CG        27.3770   -4.5770   12.0890 C.2    76  ASN76       0.2627
     73  OD1       26.3040   -3.9820   12.0440 O.2    76  ASN76      -0.2716
     74  ND2       27.4790   -5.8310   12.4840 N.am   76  ASN76      -0.0877
     75  N         24.7030   -1.7960   12.7050 N.3    78  GLY78      -0.1210
     76  CA        23.6960   -2.3750   13.5990 C.3    78  GLY78       0.1956
     77  C         22.2910   -1.8670   13.2910 C.2    78  GLY78       0.2611
     78  O         21.9580   -1.6060   12.1350 O.2    78  GLY78      -0.2717
     79  N         21.4740   -1.6840   14.3230 N.am   79  ALA79      -0.1979
     80  CA        20.1030   -1.2760   14.1200 C.3    79  ALA79       0.1597
     81  C         19.9580    0.0250   13.3460 C.2    79  ALA79       0.2287
     82  O         18.8870    0.3090   12.8240 O.2    79  ALA79      -0.2864
     83  CB        19.3670   -1.2030   15.4430 C.3    79  ALA79       0.0319
     84  N         18.9160    0.3450    9.3700 N.3    82  HIS82      -0.1241
     85  CA        17.5670    0.3180    8.8360 C.3    82  HIS82       0.1621
     86  C         16.9430    1.6740    8.8900 C.2    82  HIS82       0.2264
     87  O         15.9910    1.9330    8.1820 O.2    82  HIS82      -0.2867
     88  CB        16.7250   -0.6760    9.6250 C.3    82  HIS82       0.0745
     89  CG        17.4630   -1.9300    9.9480 C.ar   82  HIS82       0.0817
     90  ND1       18.0200   -2.7320    8.9700 N.ar   82  HIS82      -0.2268
     91  CD2       17.7810   -2.4990   11.1360 C.ar   82  HIS82       0.1154
     92  CE1       18.6450   -3.7460    9.5440 C.ar   82  HIS82       0.1986
     93  NE2       18.5090   -3.6340   10.8560 N.ar   82  HIS82      -0.2212
     94  N         27.0880   -7.4940    8.2720 N.3   102  HIS102     -0.1226
     95  CA        26.1520   -7.9440    9.3090 C.3   102  HIS102      0.1752
     96  C         26.4440   -9.3770    9.7350 C.2   102  HIS102      0.2596
     97  O         26.6020  -10.2800    8.8990 O.2   102  HIS102     -0.2718
     98  CB        24.7040   -7.8650    8.8320 C.3   102  HIS102      0.0759
     99  CG        24.3050   -6.5090    8.3630 C.ar  102  HIS102      0.0818
    100  ND1       23.9480   -5.5000    9.2280 N.ar  102  HIS102     -0.2268
    101  CD2       24.2390   -5.9790    7.1180 C.ar  102  HIS102      0.1154
    102  CE1       23.6610   -4.4090    8.5340 C.ar  102  HIS102      0.1986
    103  NE2       23.8220   -4.6760    7.2500 N.ar  102  HIS102     -0.2212
    104  N         26.5060   -9.5820   11.0450 N.am  103  LEU103     -0.1966
    105  CA        26.6330  -10.9210   11.5790 C.3   103  LEU103      0.1728
    106  C         25.4920  -11.7820   11.0680 C.2   103  LEU103      0.2616
    107  O         25.7300  -12.8220   10.4620 O.2   103  LEU103     -0.2715
    108  CB        26.6460  -10.8930   13.0900 C.3   103  LEU103      0.0311
    109  CG        27.8190  -10.1360   13.7170 C.3   103  LEU103      0.0022
    110  CD1       27.4610   -9.7570   15.1060 C.3   103  LEU103      0.0001
    111  CD2       29.0980  -10.9660   13.7240 C.3   103  LEU103      0.0001
    112  N         24.2600  -11.3280   11.2550 N.am  104  THR104     -0.1951
    113  CA        23.0980  -12.1420   10.9040 C.3   104  THR104      0.1897
    114  C         22.6040  -11.8200    9.4900 C.2   104  THR104      0.2313
    115  O         22.9230  -10.7490    8.9680 O.2   104  THR104     -0.2863
    116  CB        21.9810  -11.8820   11.8830 C.3   104  THR104      0.1794
    117  OG1       21.5070  -10.5480   11.6910 O.3   104  THR104     -0.2208
    118  CG2       22.4850  -11.9950   13.3030 C.3   104  THR104      0.0378
    119  N         20.1690  -10.2570    7.5130 N.3   106  ILE106     -0.1245
    120  CA        19.0670   -9.3360    7.7610 C.3   106  ILE106      0.1561
    121  C         17.9080   -9.4690    6.7750 C.2   106  ILE106      0.2260
    122  O         16.8220   -8.9320    7.0210 O.2   106  ILE106     -0.2867
    123  CB        19.5160   -7.8810    7.9060 C.3   106  ILE106      0.0252
    124  CG1       20.1650   -7.3730    6.6310 C.3   106  ILE106      0.0019
    125  CG2       20.4690   -7.7390    9.0580 C.3   106  ILE106      0.0019
    126  CD1       20.3560   -5.8600    6.6200 C.3   106  ILE106      0.0001
    127  N         15.0700  -11.8170    8.6160 N.3   109  ARG109     -0.1245
    128  CA        14.5320  -11.4460    9.9360 C.3   109  ARG109      0.1563
    129  C         13.2330  -10.6540    9.7510 C.2   109  ARG109      0.2260
    130  O         12.6450  -10.7140    8.6680 O.2   109  ARG109     -0.2867
    131  CB        15.6030  -10.7240   10.7780 C.3   109  ARG109      0.0307
    132  CG        16.8030  -11.6370   11.1200 C.3   109  ARG109      0.0489
    133  CD        17.8830  -10.9350   11.9140 C.3   109  ARG109      0.2205
    134  NE        17.4130  -10.5040   13.2370 N.pl3 109  ARG109     -0.0865
    135  CZ        18.1650   -9.8590   14.1440 C.cat 109  ARG109      0.5346
    136  NH1       19.4410   -9.5750   13.8880 N.pl3 109  ARG109      0.1354
    137  NH2       17.6540   -9.4920   15.3230 N.pl3 109  ARG109      0.1354
    138  N         13.8560   -4.8960    9.4470 N.3   113  ARG113     -0.1245
    139  CA        15.3210   -5.0960    9.3420 C.3   113  ARG113      0.1563
    140  C         15.8200   -5.4090    7.9280 C.2   113  ARG113      0.2260
    141  O         17.0210   -5.4700    7.7090 O.2   113  ARG113     -0.2867
    142  CB        15.7980   -6.2270   10.2680 C.3   113  ARG113      0.0307
    143  CG        15.7600   -5.9150   11.7450 C.3   113  ARG113      0.0489
    144  CD        16.3060   -7.0600   12.5900 C.3   113  ARG113      0.2205
    145  NE        15.9320   -6.8680   13.9960 N.pl3 113  ARG113     -0.0865
    146  CZ        16.6430   -6.1820   14.8950 C.cat 113  ARG113      0.5346
    147  NH1       17.7860   -5.6050   14.5780 N.pl3 113  ARG113      0.1354
    148  NH2       16.2090   -6.0590   16.1270 N.pl3 113  ARG113      0.1354
@<TRIPOS>BOND
     1   126   124    1
     2   124   123    1
     3   121   122    2
     4   121   120    1
     5   101   103   ar
     6   101    99   ar
     7   103   102   ar
     8   119   120    1
     9   141   140    2
    10   120   123    1
    11   123   125    1
    12   140   139    1
    13    87    86    2
    14    94    95    1
    15    99    98    1
    16    99   100   ar
    17   102   100   ar
    18   127   128    1
    19   130   129    2
    20    98    95    1
    21    85    86    1
    22    85    84    1
    23    85    88    1
    24    97    96    2
    25   115   114    2
    26    90    92   ar
    27    90    89   ar
    28    95    96    1
    29   139   138    1
    30   139   142    1
    31   114   113    1
    32    92    93   ar
    33    88    89    1
    34    96   104   am
    35   129   128    1
    36   128   131    1
    37    89    91   ar
    38   142   143    1
    39   107   106    2
    40    67    68    1
    41   131   132    1
    42    68    69    1
    43    68    71    1
    44    93    91   ar
    45   113   112    1
    46   113   116    1
    47   104   105    1
    48   106   112   am
    49   106   105    1
    50   132   133    1
    51   105   108    1
    52    69    70    2
    53    71    72    1
    54   117   116    1
    55   143   144    1
    56   116   118    1
    57   133   134    1
    58    73    72    2
    59    72    74   am
    60    78    77    2
    61   144   145    1
    62    75    76    1
    63    82    81    2
    64   108   109    1
    65   134   135    2
    66    77    76    1
    67    77    79   am
    68    81    80    1
    69   109   111    1
    70   109   110    1
    71   136   135    1
    72   145   146    2
    73    80    79    1
    74    80    83    1
    75   135   137    1
    76   147   146    1
    77   146   148    1
    78    22    21    1
    79    50    49    2
    80    64    62   ar
    81    64    65   ar
    82    23    21    1
    83    62    60   ar
    84    66    65    1
    85     7     6    1
    86     7     1    1
    87    21    20    1
    88    65    63   ar
    89    58    57    2
    90    49    48    1
    91    49    55   am
    92     6     5    1
    93    56    57    1
    94    56    55    1
    95    56    59    1
    96     1     2    1
    97    60    59    1
    98    60    61   ar
    99    51    48    1
   100    51    52    1
   101    54    52    1
   102    48    47    1
   103    63    61   ar
   104    20    17    1
   105     4     3    2
   106    38    37    1
   107    52    53    1
   108     5     2    1
   109     2     3    1
   110     3     8   am
   111    39    37    1
   112    17    16    1
   113    17    18    1
   114    37    36    1
   115    16    10   am
   116    18    19    2
   117     8     9    1
   118    15    13   am
   119    10     9    1
   120    10    11    2
   121    12     9    1
   122    12    13    1
   123    36    33    1
   124    13    14    2
   125    43    42    2
   126    33    32    1
   127    33    34    1
   128    42    41    1
   129    32    26   am
   130    34    35    2
   131    24    25    1
   132    26    25    1
   133    26    27    2
   134    41    44    1
   135    41    40    1
   136    44    45    1
   137    46    40    1
   138    46    45    1
   139    25    28    1
   140    28    29    1
   141    29    30    1
   142    30    31    1
