@<TRIPOS>MOLECULE
tmp/2wkuA00.pdb
 81 75 0 0 0
SMALL
GASTEIGER

@<TRIPOS>ATOM
      1  N         38.2560   -4.7830   -7.5590 N.3     5  ALA5       -0.1231
      2  CA        39.6360   -4.3690   -7.7540 C.3     5  ALA5        0.1694
      3  C         40.5790   -4.9050   -6.6670 C.2     5  ALA5        0.2593
      4  O         41.7000   -5.3060   -6.9550 O.2     5  ALA5       -0.2718
      5  CB        39.7000   -2.8450   -7.8040 C.3     5  ALA5        0.0304
      6  N         40.1260   -4.8940   -5.4200 N.am    6  SER6       -0.1938
      7  CA        40.9530   -5.3400   -4.3060 C.3     6  SER6        0.2055
      8  C         40.1020   -5.7000   -3.1010 C.2     6  SER6        0.2642
      9  O         38.9370   -5.2860   -3.0000 O.2     6  SER6       -0.2714
     10  CB        41.9530   -4.2590   -3.9130 C.3     6  SER6        0.2130
     11  OG        41.2890   -3.0440   -3.6330 O.3     6  SER6       -0.2179
     12  N         40.6850   -6.4650   -2.1820 N.am    7  ALA7       -0.1977
     13  CA        39.9770   -6.8610   -0.9660 C.3     7  ALA7        0.1597
     14  C         40.8890   -7.0060    0.2480 C.2     7  ALA7        0.2287
     15  O         42.1000   -7.1630    0.1170 O.2     7  ALA7       -0.2864
     16  CB        39.1810   -8.1320   -1.2040 C.3     7  ALA7        0.0319
     17  N         45.8570   -1.5400   -1.4620 N.3    38  ARG38      -0.1245
     18  CA        46.0770   -2.7060   -2.3110 C.3    38  ARG38       0.1563
     19  C         45.6580   -2.4970   -3.7690 C.2    38  ARG38       0.2260
     20  O         46.1440   -3.1850   -4.6660 O.2    38  ARG38      -0.2867
     21  CB        45.3780   -3.9300   -1.7250 C.3    38  ARG38       0.0307
     22  CG        45.9290   -4.3230   -0.3670 C.3    38  ARG38       0.0489
     23  CD        45.0220   -5.2620    0.3610 C.3    38  ARG38       0.2205
     24  NE        45.6240   -5.7260    1.6060 N.pl3  38  ARG38      -0.0865
     25  CZ        45.3320   -6.8930    2.1630 C.cat  38  ARG38       0.5346
     26  NH1       44.4520   -7.6930    1.5720 N.pl3  38  ARG38       0.1354
     27  NH2       45.9090   -7.2560    3.3020 N.pl3  38  ARG38       0.1354
     28  N         47.2480  -14.9520    5.0130 N.3   193  LYS193     -0.1231
     29  CA        48.1020  -13.7660    5.0030 C.3   193  LYS193      0.1693
     30  C         47.7140  -12.7470    3.9260 C.2   193  LYS193      0.2592
     31  O         47.6600  -11.5480    4.1910 O.2   193  LYS193     -0.2718
     32  CB        49.5680  -14.1910    4.8100 C.3   193  LYS193      0.0285
     33  CG        50.5550  -13.0350    4.7260 C.3   193  LYS193      0.0035
     34  CD        51.9890  -13.5160    4.4920 C.3   193  LYS193      0.0206
     35  CE        52.9770  -12.3590    4.6050 C.3   193  LYS193      0.1093
     36  NZ        52.8870  -11.6690    5.9320 N.3   193  LYS193     -0.1314
     37  N         47.4590  -13.2290    2.7130 N.am  194  ASP194     -0.1974
     38  CA        47.1000  -12.3520    1.6100 C.3   194  ASP194      0.1709
     39  C         45.8590  -11.5250    1.9480 C.2   194  ASP194      0.2293
     40  O         45.8650  -10.2990    1.8250 O.2   194  ASP194     -0.2864
     41  CB        46.8510  -13.1520    0.3230 C.3   194  ASP194      0.1436
     42  CG        48.1290  -13.7030   -0.2930 C.2   194  ASP194      0.3671
     43  OD1       49.2320  -13.2790    0.1130 O.co2 194  ASP194     -0.2456
     44  OD2       48.0220  -14.5680   -1.1940 O.co2 194  ASP194     -0.2456
     45  N         44.7130   -5.1710  -12.1720 N.3   267  GLN267     -0.1245
     46  CA        44.2920   -6.5480  -12.4310 C.3   267  GLN267      0.1566
     47  C         43.3500   -7.0180  -11.3260 C.2   267  GLN267      0.2260
     48  O         43.7880   -7.3670  -10.2330 O.2   267  GLN267     -0.2867
     49  CB        45.5050   -7.4790  -12.5370 C.3   267  GLN267      0.0367
     50  CG        45.1480   -8.9670  -12.5720 C.3   267  GLN267      0.0905
     51  CD        44.1510   -9.3200  -13.6710 C.2   267  GLN267      0.2608
     52  OE1       43.1370   -9.9800  -13.4200 O.2   267  GLN267     -0.2717
     53  NE2       44.4350   -8.8760  -14.8960 N.am  267  GLN267     -0.0878
     54  N         40.4650   -8.6940   -8.7320 N.3   269  LEU269     -0.1245
     55  CA        40.2820   -9.9880   -8.0810 C.3   269  LEU269      0.1561
     56  C         39.1580  -10.8020   -8.7290 C.2   269  LEU269      0.2260
     57  O         39.1350  -12.0310   -8.6350 O.2   269  LEU269     -0.2867
     58  CB        40.0040   -9.8020   -6.5900 C.3   269  LEU269      0.0270
     59  CG        41.1520  -10.1140   -5.6320 C.3   269  LEU269      0.0019
     60  CD1       42.5020   -9.7680   -6.2370 C.3   269  LEU269      0.0001
     61  CD2       40.9320   -9.4450   -4.2740 C.3   269  LEU269      0.0001
     62  N         40.7330  -14.5940   -2.6130 N.3   360  PHE360     -0.1241
     63  CA        42.1690  -14.8600   -2.5600 C.3   360  PHE360      0.1605
     64  C         42.5120  -16.3300   -2.8560 C.2   360  PHE360      0.2264
     65  O         43.5290  -16.6100   -3.4760 O.2   360  PHE360     -0.2867
     66  CB        42.7910  -14.3550   -1.2550 C.3   360  PHE360      0.0534
     67  CG        42.9020  -12.8410   -1.1840 C.ar  360  PHE360     -0.0203
     68  CD1       44.0600  -12.1970   -1.5810 C.ar  360  PHE360     -0.0042
     69  CD2       41.8340  -12.0710   -0.7460 C.ar  360  PHE360     -0.0042
     70  CE1       44.1590  -10.8110   -1.5320 C.ar  360  PHE360     -0.0003
     71  CE2       41.9210  -10.6780   -0.6930 C.ar  360  PHE360     -0.0003
     72  CZ        43.0830  -10.0510   -1.0790 C.ar  360  PHE360     -0.0000
     73  N         42.3360  -16.8450   -6.6190 N.3   363  LYS363     -0.1245
     74  CA        43.4980  -16.2960   -7.2990 C.3   363  LYS363      0.1561
     75  C         44.6860  -17.2340   -7.1550 C.2   363  LYS363      0.2260
     76  O         45.4230  -17.4670   -8.1140 O.2   363  LYS363     -0.2867
     77  CB        43.8400  -14.8960   -6.7650 C.3   363  LYS363      0.0271
     78  CG        45.1310  -14.2810   -7.3200 C.3   363  LYS363      0.0035
     79  CD        45.2300  -12.7860   -6.9350 C.3   363  LYS363      0.0206
     80  CE        46.4780  -12.1020   -7.5090 C.3   363  LYS363      0.1093
     81  NZ        47.6820  -12.4480   -6.7260 N.3   363  LYS363     -0.1314
@<TRIPOS>BOND
     1    53    51   am
     2    51    52    2
     3    51    50    1
     4    50    49    1
     5    49    46    1
     6    46    45    1
     7    46    47    1
     8    47    48    2
     9    54    55    1
    10    56    57    2
    11    56    55    1
    12    76    75    2
    13    55    58    1
    14     5     2    1
    15     2     1    1
    16     2     3    1
    17    80    79    1
    18    80    81    1
    19    78    79    1
    20    78    77    1
    21    74    75    1
    22    74    77    1
    23    74    73    1
    24     4     3    2
    25     3     6   am
    26    58    59    1
    27    60    59    1
    28    59    61    1
    29     6     7    1
    30    20    19    2
    31     7    10    1
    32     7     8    1
    33    10    11    1
    34    19    18    1
    35    65    64    2
    36     8     9    2
    37     8    12   am
    38    64    63    1
    39    62    63    1
    40    63    66    1
    41    18    21    1
    42    18    17    1
    43    12    13    1
    44    21    22    1
    45    68    70   ar
    46    68    67   ar
    47    70    72   ar
    48    66    67    1
    49    16    13    1
    50    44    42   ar
    51    67    69   ar
    52    72    71   ar
    53    13    14    1
    54    69    71   ar
    55    22    23    1
    56    42    43   ar
    57    42    41    1
    58    15    14    2
    59    41    38    1
    60    23    24    1
    61    26    25    1
    62    24    25    2
    63    38    39    1
    64    38    37    1
    65    40    39    2
    66    25    27    1
    67    37    30   am
    68    30    31    2
    69    30    29    1
    70    34    35    1
    71    34    33    1
    72    35    36    1
    73    33    32    1
    74    32    29    1
    75    29    28    1
