@<TRIPOS>MOLECULE
tmp/2wkwB00.pdb
 152 148 0 0 0
SMALL
GASTEIGER

@<TRIPOS>ATOM
      1  N         -1.9320   49.4760   14.9060 N.3    63  GLY63      -0.1210
      2  CA        -2.0200   50.0650   13.5650 C.3    63  GLY63       0.1956
      3  C         -1.1780   49.3240   12.5460 C.2    63  GLY63       0.2612
      4  O         -0.9900   48.0940   12.6790 O.2    63  GLY63      -0.2717
      5  N         -0.6670   50.0320   11.5290 N.am   64  CYS64      -0.1956
      6  CA         0.0590   49.3320   10.4450 C.3    64  CYS64       0.1843
      7  C          1.3760   48.7890   10.9490 C.2    64  CYS64       0.2626
      8  O          1.8840   49.2510   11.9660 O.2    64  CYS64      -0.2714
      9  CB         0.3560   50.2170    9.2230 C.3    64  CYS64       0.0997
     10  SG         1.9560   51.0650    9.2630 S.3    64  CYS64      -0.0797
     11  N          1.9180   47.8120   10.2200 N.am   65  CYS65      -0.1954
     12  CA         3.3520   47.5530   10.2390 C.3    65  CYS65       0.1843
     13  C          3.8490   47.0280   11.5830 C.2    65  CYS65       0.2625
     14  O          5.0540   47.0680   11.8610 O.2    65  CYS65      -0.2714
     15  CB         4.0800   48.8660    9.9120 C.3    65  CYS65       0.0997
     16  SG         3.3790   49.7840    8.5000 S.3    65  CYS65      -0.0797
     17  N          2.9060   46.5660   12.4070 N.am   66  LEU66      -0.1977
     18  CA         3.1170   46.2500   13.8230 C.3    66  LEU66       0.1596
     19  C          2.1160   45.1720   14.2120 C.2    66  LEU66       0.2287
     20  O          1.2060   44.8610   13.4340 O.2    66  LEU66      -0.2864
     21  CB         2.8600   47.5100   14.6930 C.3    66  LEU66       0.0297
     22  CG         3.7650   48.7300   14.5070 C.3    66  LEU66       0.0022
     23  CD1        3.1130   49.9850   15.0780 C.3    66  LEU66       0.0001
     24  CD2        5.1700   48.4580   15.1730 C.3    66  LEU66       0.0001
     25  N          3.1670   45.6670    1.9110 N.3   127  PHE127     -0.1241
     26  CA         3.9150   46.8410    2.3380 C.3   127  PHE127      0.1605
     27  C          4.7310   46.5000    3.5880 C.2   127  PHE127      0.2264
     28  O          4.2600   45.7690    4.4700 O.2   127  PHE127     -0.2867
     29  CB         2.9210   48.0010    2.6460 C.3   127  PHE127      0.0534
     30  CG         3.5750   49.2300    3.2040 C.ar  127  PHE127     -0.0203
     31  CD1        3.5070   49.5100    4.5630 C.ar  127  PHE127     -0.0042
     32  CD2        4.2630   50.1140    2.3670 C.ar  127  PHE127     -0.0042
     33  CE1        4.1360   50.6490    5.0980 C.ar  127  PHE127     -0.0003
     34  CE2        4.8910   51.2670    2.8840 C.ar  127  PHE127     -0.0003
     35  CZ         4.8260   51.5340    4.2560 C.ar  127  PHE127     -0.0000
     36  N          7.4290   48.9570    6.2390 N.3   129  ALA129     -0.1245
     37  CA         7.9610   50.2900    6.4850 C.3   129  ALA129      0.1562
     38  C          9.4650   50.2180    6.7340 C.2   129  ALA129      0.2260
     39  O          9.9170   49.4720    7.6130 O.2   129  ALA129     -0.2867
     40  CB         7.2680   50.9050    7.6900 C.3   129  ALA129      0.0290
     41  N         11.7690   56.0000    6.5920 N.3   133  ALA133     -0.1231
     42  CA        10.4240   56.5330    6.4450 C.3   133  ALA133      0.1694
     43  C          9.6290   56.5210    7.7660 C.2   133  ALA133      0.2591
     44  O          8.9840   57.5340    8.1180 O.2   133  ALA133     -0.2718
     45  CB         9.6710   55.8020    5.3410 C.3   133  ALA133      0.0304
     46  N          9.6910   55.3990    8.4910 N.am  134  ALA134     -0.1980
     47  CA         9.0450   55.2650    9.8050 C.3   134  ALA134      0.1597
     48  C          9.4430   56.3870   10.7650 C.2   134  ALA134      0.2287
     49  O          8.5800   56.9400   11.4510 O.2   134  ALA134     -0.2864
     50  CB         9.3480   53.9070   10.4380 C.3   134  ALA134      0.0319
     51  N          7.3580   59.4310    9.8520 N.3   137  ILE137     -0.1231
     52  CA         5.9330   59.1790   10.0880 C.3   137  ILE137      0.1692
     53  C          5.6480   59.1460   11.6020 C.2   137  ILE137      0.2592
     54  O          4.6470   59.6830   12.0520 O.2   137  ILE137     -0.2718
     55  CB         5.4170   57.9120    9.3510 C.3   137  ILE137      0.0266
     56  CG1        5.4510   58.1480    7.8360 C.3   137  ILE137      0.0019
     57  CG2        3.9790   57.5850    9.7640 C.3   137  ILE137      0.0020
     58  CD1        5.4000   56.8830    6.9860 C.3   137  ILE137      0.0001
     59  N          6.5680   58.5740   12.3800 N.am  138  PHE138     -0.1976
     60  CA         6.4310   58.5560   13.8350 C.3   138  PHE138      0.1639
     61  C          6.6840   59.9260   14.5110 C.2   138  PHE138      0.2290
     62  O          6.4020   60.0890   15.7020 O.2   138  PHE138     -0.2864
     63  CB         7.3590   57.5100   14.4560 C.3   138  PHE138      0.0560
     64  CG         6.9640   56.0680   14.1880 C.ar  138  PHE138     -0.0200
     65  CD1        5.6330   55.6980   14.0230 C.ar  138  PHE138     -0.0042
     66  CD2        7.9410   55.0760   14.1350 C.ar  138  PHE138     -0.0042
     67  CE1        5.2890   54.3700   13.8000 C.ar  138  PHE138     -0.0003
     68  CE2        7.6020   53.7490   13.9050 C.ar  138  PHE138     -0.0003
     69  CZ         6.2610   53.4000   13.7480 C.ar  138  PHE138     -0.0000
     70  N          8.5410   45.6740   14.0150 N.3   165  MET165     -0.1245
     71  CA         7.8260   46.0850   12.7990 C.3   165  MET165      0.1570
     72  C          7.8190   44.9560   11.7680 C.2   165  MET165      0.2261
     73  O          8.8400   44.3140   11.5610 O.2   165  MET165     -0.2867
     74  CB         8.4360   47.3580   12.2240 C.3   165  MET165      0.0387
     75  CG         8.4270   48.5330   13.2270 C.3   165  MET165      0.0595
     76  SD         8.6740   50.1590   12.4590 S.3   165  MET165     -0.1393
     77  CE         7.1470   50.3070   11.5360 C.3   165  MET165      0.0692
     78  N         -5.4090   52.6970   16.9120 N.3   198  HIS198     -0.1226
     79  CA        -4.2050   53.4930   16.6660 C.3   198  HIS198      0.1752
     80  C         -3.9010   53.6130   15.1770 C.2   198  HIS198      0.2597
     81  O         -3.8120   52.6020   14.4810 O.2   198  HIS198     -0.2718
     82  CB        -3.0070   52.8360   17.3810 C.3   198  HIS198      0.0759
     83  CG        -1.7030   53.5680   17.1950 C.ar  198  HIS198      0.0818
     84  ND1       -0.5400   52.9310   16.8150 N.ar  198  HIS198     -0.2268
     85  CD2       -1.3800   54.8800   17.3450 C.ar  198  HIS198      0.1154
     86  CE1        0.4450   53.8140   16.7420 C.ar  198  HIS198      0.1986
     87  NE2       -0.0340   55.0030   17.0670 N.ar  198  HIS198     -0.2212
     88  N         -3.7880   54.8490   14.6870 N.am  199  SER199     -0.1938
     89  CA        -3.2160   55.1230   13.3690 C.3   199  SER199      0.2055
     90  C         -4.0150   54.4550   12.2270 C.2   199  SER199      0.2642
     91  O         -5.1970   54.7960   11.9910 O.2   199  SER199     -0.2714
     92  CB        -1.7160   54.7200   13.3860 C.3   199  SER199      0.2130
     93  OG        -0.9980   55.3700   12.3540 O.3   199  SER199     -0.2179
     94  N         -3.4010   53.5030   11.5220 N.am  200  GLN200     -0.1976
     95  CA        -4.1400   52.7010   10.5140 C.3   200  GLN200      0.1601
     96  C         -5.4940   52.1930   11.0170 C.2   200  GLN200      0.2287
     97  O         -6.5040   52.2330   10.2780 O.2   200  GLN200     -0.2864
     98  CB        -3.2880   51.4980   10.0570 C.3   200  GLN200      0.0394
     99  CG        -4.0270   50.4250    9.2280 C.3   200  GLN200      0.0908
    100  CD        -3.1820   49.1680    9.0560 C.2   200  GLN200      0.2608
    101  OE1       -3.1760   48.3000    9.9280 O.2   200  GLN200     -0.2717
    102  NE2       -2.4210   49.0940    7.9550 N.am  200  GLN200     -0.0878
    103  N         -5.3940   57.5620   11.2420 N.3   225  GLY225     -0.1225
    104  CA        -5.0950   57.9310    9.8630 C.3   225  GLY225      0.1811
    105  C         -6.2390   58.7250    9.2520 C.2   225  GLY225      0.2280
    106  O         -6.0180   59.5760    8.3960 O.2   225  GLY225     -0.2866
    107  N          1.8070   65.3060    6.7240 N.3   254  ARG254     -0.1231
    108  CA         1.0110   64.0830    6.8200 C.3   254  ARG254      0.1694
    109  C          0.0140   64.2170    7.9760 C.2   254  ARG254      0.2592
    110  O         -1.1260   63.7540    7.8910 O.2   254  ARG254     -0.2718
    111  CB         1.9360   62.8700    7.0220 C.3   254  ARG254      0.0321
    112  CG         1.2310   61.5320    7.2620 C.3   254  ARG254      0.0489
    113  CD         2.2390   60.4860    7.6490 C.3   254  ARG254      0.2205
    114  NE         1.7390   59.1360    7.4270 N.pl3 254  ARG254     -0.0865
    115  CZ         1.9330   58.4270    6.3160 C.cat 254  ARG254      0.5346
    116  NH1        2.6240   58.9240    5.2910 N.pl3 254  ARG254      0.1354
    117  NH2        1.4360   57.2030    6.2350 N.pl3 254  ARG254      0.1354
    118  N          0.4480   64.8880    9.0380 N.am  255  TRP255     -0.1976
    119  CA        -0.2790   64.8910   10.3060 C.3   255  TRP255      0.1640
    120  C         -1.1710   66.1080   10.5630 C.2   255  TRP255      0.2290
    121  O         -2.2980   65.9530   11.0370 O.2   255  TRP255     -0.2864
    122  CB         0.6940   64.6680   11.4630 C.3   255  TRP255      0.0576
    123  CG         1.1350   63.2470   11.5260 C.ar  255  TRP255      0.0006
    124  CD1        2.3990   62.7520   11.2980 C.ar  255  TRP255      0.0946
    125  CD2        0.3050   62.1220   11.8020 C.ar  255  TRP255      0.0152
    126  NE1        2.4010   61.3740   11.4400 N.ar  255  TRP255     -0.2442
    127  CE2        1.1250   60.9670   11.7450 C.ar  255  TRP255      0.0810
    128  CE3       -1.0620   61.9730   12.1080 C.ar  255  TRP255      0.0012
    129  CZ2        0.6200   59.6830   11.9860 C.ar  255  TRP255      0.0191
    130  CZ3       -1.5590   60.6890   12.3510 C.ar  255  TRP255      0.0001
    131  CH2       -0.7280   59.5680   12.2780 C.ar  255  TRP255      0.0015
    132  N         -4.7590   65.8970    9.4880 N.3   258  ARG258     -0.1245
    133  CA        -5.5170   64.8620   10.1990 C.3   258  ARG258      0.1563
    134  C         -6.0650   65.3820   11.5340 C.2   258  ARG258      0.2260
    135  O         -7.2160   65.1380   11.8810 O.2   258  ARG258     -0.2867
    136  CB        -4.6710   63.5920   10.3770 C.3   258  ARG258      0.0307
    137  CG        -4.3740   62.8780    9.0410 C.3   258  ARG258      0.0489
    138  CD        -3.4350   61.7080    9.2540 C.3   258  ARG258      0.2205
    139  NE        -3.3140   60.8610    8.0690 N.pl3 258  ARG258     -0.0865
    140  CZ        -2.4750   59.8300    7.9590 C.cat 258  ARG258      0.5346
    141  NH1       -1.6560   59.5000    8.9560 N.pl3 258  ARG258      0.1354
    142  NH2       -2.4540   59.1220    6.8390 N.pl3 258  ARG258      0.1354
    143  N          4.1670   59.6810   17.6510 N.3   291  HIS291     -0.1241
    144  CA         3.0640   58.8370   17.1930 C.3   291  HIS291      0.1621
    145  C          2.9780   57.5340   18.0150 C.2   291  HIS291      0.2264
    146  O          1.8890   56.9790   18.2200 O.2   291  HIS291     -0.2867
    147  CB         3.2470   58.5460   15.6910 C.3   291  HIS291      0.0745
    148  CG         2.1200   57.7800   15.0650 C.ar  291  HIS291      0.0817
    149  ND1        0.8000   58.1580   15.1830 N.ar  291  HIS291     -0.2268
    150  CD2        2.1290   56.6820   14.2660 C.ar  291  HIS291      0.1154
    151  CE1        0.0410   57.3110   14.5040 C.ar  291  HIS291      0.1986
    152  NE2        0.8270   56.4100   13.9340 N.ar  291  HIS291     -0.2212
@<TRIPOS>BOND
     1    25    26    1
     2    26    29    1
     3    26    27    1
     4    32    34   ar
     5    32    30   ar
     6    29    30    1
     7    34    35   ar
     8    30    31   ar
     9    27    28    2
    10    35    33   ar
    11    31    33   ar
    12   116   115    1
    13    45    42    1
    14   117   115    1
    15    36    37    1
    16   115   114    2
    17    42    41    1
    18    42    43    1
    19    37    38    1
    20    37    40    1
    21   107   108    1
    22    38    39    2
    23   108   111    1
    24   108   109    1
    25   142   140    1
    26    58    56    1
    27   111   112    1
    28   112   113    1
    29   114   113    1
    30    43    44    2
    31    43    46   am
    32    56    55    1
    33   110   109    2
    34   102   100   am
    35   140   139    2
    36   140   141    1
    37   109   118   am
    38   139   138    1
    39   106   105    2
    40    46    47    1
    41    16    10    1
    42    16    15    1
    43   118   119    1
    44   137   138    1
    45   137   136    1
    46   100    99    1
    47   100   101    2
    48     9    10    1
    49     9     6    1
    50    99    98    1
    51   105   104    1
    52    55    57    1
    53    55    52    1
    54   132   133    1
    55    47    50    1
    56    47    48    1
    57    51    52    1
    58   104   103    1
    59    15    12    1
    60    98    95    1
    61    52    53    1
    62   133   136    1
    63   133   134    1
    64    11    12    1
    65    11     7   am
    66    12    13    1
    67    97    96    2
    68   119   120    1
    69   119   122    1
    70     6     7    1
    71     6     5    1
    72    95    96    1
    73    95    94    1
    74   120   121    2
    75    48    49    2
    76     7     8    2
    77   124   126   ar
    78   124   123   ar
    79   126   127   ar
    80   122   123    1
    81    94    90   am
    82   123   125   ar
    83     5     3   am
    84   134   135    2
    85    77    76    1
    86    73    72    2
    87    13    14    2
    88    13    17   am
    89    53    54    2
    90    53    59   am
    91   127   125   ar
    92   127   129   ar
    93    72    71    1
    94   125   128   ar
    95   129   131   ar
    96    91    90    2
    97   128   130   ar
    98    74    71    1
    99    74    75    1
   100    90    89    1
   101   131   130   ar
   102    93    92    1
   103    59    60    1
   104    17    18    1
   105    76    75    1
   106     3     4    2
   107     3     2    1
   108    71    70    1
   109    89    92    1
   110    89    88    1
   111    20    19    2
   112     2     1    1
   113    69    67   ar
   114    69    68   ar
   115    67    65   ar
   116    18    19    1
   117    18    21    1
   118    60    63    1
   119    60    61    1
   120    68    66   ar
   121   152   150   ar
   122   152   151   ar
   123    65    64   ar
   124    66    64   ar
   125    64    63    1
   126   150   148   ar
   127    81    80    2
   128   151   149   ar
   129    22    21    1
   130    22    23    1
   131    22    24    1
   132    61    62    2
   133    88    80   am
   134   148   149   ar
   135   148   147    1
   136    80    79    1
   137   147   144    1
   138    79    78    1
   139    79    82    1
   140    86    84   ar
   141    86    87   ar
   142    84    83   ar
   143    87    85   ar
   144   144   143    1
   145   144   145    1
   146    83    85   ar
   147    83    82    1
   148   145   146    2
