@<TRIPOS>MOLECULE
tmp/2wkyA00.pdb
 139 132 0 0 0
SMALL
GASTEIGER

@<TRIPOS>ATOM
      1  N         40.6520    4.2220   82.0100 N.3    10  GLU10      -0.1245
      2  CA        40.4950    2.8940   81.4350 C.3    10  GLU10       0.1567
      3  C         41.7410    2.5960   80.6190 C.2    10  GLU10       0.2260
      4  O         42.0240    3.2990   79.6500 O.2    10  GLU10      -0.2867
      5  CB        39.2580    2.8630   80.5230 C.3    10  GLU10       0.0388
      6  CG        38.9730    1.5250   79.8400 C.3    10  GLU10       0.1160
      7  CD        38.5310    0.4270   80.8050 C.2    10  GLU10       0.3649
      8  OE1       37.7200    0.7150   81.7120 O.co2  10  GLU10      -0.2457
      9  OE2       38.9780   -0.7310   80.6430 O.co2  10  GLU10      -0.2457
     10  N         43.5960    3.6440   77.3450 N.3    13  TYR13      -0.1241
     11  CA        43.1770    4.8920   76.7190 C.3    13  TYR13       0.1605
     12  C         43.5140    6.0940   77.5770 C.2    13  TYR13       0.2264
     13  O         44.0400    7.0970   77.0840 O.2    13  TYR13      -0.2867
     14  CB        41.6750    4.8720   76.4890 C.3    13  TYR13       0.0534
     15  CG        41.2180    3.6570   75.7370 C.ar   13  TYR13      -0.0201
     16  CD1       41.2820    3.6100   74.3540 C.ar   13  TYR13      -0.0009
     17  CD2       40.7310    2.5470   76.4140 C.ar   13  TYR13      -0.0009
     18  CE1       40.8630    2.4850   73.6560 C.ar   13  TYR13       0.0417
     19  CE2       40.3160    1.4210   75.7330 C.ar   13  TYR13       0.0417
     20  CZ        40.3800    1.3960   74.3560 C.ar   13  TYR13       0.1957
     21  OH        39.9320    0.2910   73.6750 O.3    13  TYR13      -0.2866
     22  N         30.0630    6.2480   81.5360 N.3    58  TYR58      -0.1241
     23  CA        30.1380    6.4800   80.1020 C.3    58  TYR58       0.1605
     24  C         28.9370    7.2610   79.5790 C.2    58  TYR58       0.2264
     25  O         29.0980    8.2870   78.9160 O.2    58  TYR58      -0.2867
     26  CB        30.2700    5.1390   79.3810 C.3    58  TYR58       0.0534
     27  CG        31.6810    4.6010   79.4320 C.ar   58  TYR58      -0.0201
     28  CD1       32.6350    5.0270   78.5110 C.ar   58  TYR58      -0.0009
     29  CD2       32.0840    3.7320   80.4440 C.ar   58  TYR58      -0.0009
     30  CE1       33.9580    4.6100   78.5940 C.ar   58  TYR58       0.0417
     31  CE2       33.4120    3.3070   80.5410 C.ar   58  TYR58       0.0417
     32  CZ        34.3430    3.7530   79.6120 C.ar   58  TYR58       0.1957
     33  OH        35.6650    3.3650   79.7100 O.3    58  TYR58      -0.2866
     34  N         37.1160    5.7730   75.3600 N.3    85  PRO85      -0.2102
     35  CA        36.6280    4.6260   74.5900 C.3    85  PRO85       0.1504
     36  C         35.0980    4.6630   74.7180 C.2    85  PRO85       0.2576
     37  O         34.4910    3.8230   75.3850 O.2    85  PRO85      -0.2718
     38  CB        37.2740    3.4350   75.3030 C.3    85  PRO85       0.0282
     39  CG        37.3810    3.9050   76.7330 C.3    85  PRO85       0.0208
     40  CD        37.8600    5.3360   76.5600 C.3    85  PRO85       0.0893
     41  N         34.4970    5.6720   74.0910 N.am   86  LEU86      -0.1966
     42  CA        33.0490    5.9000   74.1230 C.3    86  LEU86       0.1728
     43  C         32.4330    5.3900   72.8310 C.2    86  LEU86       0.2616
     44  O         32.6610    5.9540   71.7640 O.2    86  LEU86      -0.2715
     45  CB        32.7710    7.3970   74.2700 C.3    86  LEU86       0.0311
     46  CG        31.3210    7.8520   74.4440 C.3    86  LEU86       0.0022
     47  CD1       30.7240    7.2320   75.7040 C.3    86  LEU86       0.0001
     48  CD2       31.2920    9.3690   74.5350 C.3    86  LEU86       0.0001
     49  N         31.6410    4.3300   72.9350 N.am   87  THR87      -0.1951
     50  CA        31.0270    3.7130   71.7690 C.3    87  THR87       0.1897
     51  C         29.9350    4.5260   71.0830 C.2    87  THR87       0.2313
     52  O         29.0210    5.0350   71.7280 O.2    87  THR87      -0.2863
     53  CB        30.4510    2.3360   72.1290 C.3    87  THR87       0.1794
     54  OG1       31.4810    1.5340   72.7150 O.3    87  THR87      -0.2208
     55  CG2       29.9260    1.6380   70.8940 C.3    87  THR87       0.0378
     56  N         22.8960    7.0350   71.6690 N.3    92  ARG92      -0.1245
     57  CA        23.7540    8.1630   72.0240 C.3    92  ARG92       0.1563
     58  C         23.8930    9.1680   70.8950 C.2    92  ARG92       0.2260
     59  O         23.9480   10.3780   71.1430 O.2    92  ARG92      -0.2867
     60  CB        25.1470    7.6870   72.4350 C.3    92  ARG92       0.0307
     61  CG        25.2120    6.9800   73.7670 C.3    92  ARG92       0.0489
     62  CD        26.5560    6.3020   73.9040 C.3    92  ARG92       0.2205
     63  NE        26.7160    5.6660   75.2000 N.pl3  92  ARG92      -0.0865
     64  CZ        27.7360    4.8760   75.5300 C.cat  92  ARG92       0.5346
     65  NH1       28.6980    4.6150   74.6520 N.pl3  92  ARG92       0.1354
     66  NH2       27.7990    4.3520   76.7450 N.pl3  92  ARG92       0.1354
     67  N         30.0880   -5.7680   81.4510 N.3   134  VAL134     -0.1245
     68  CA        30.1850   -4.6420   82.3650 C.3   134  VAL134      0.1561
     69  C         28.8460   -3.9270   82.3940 C.2   134  VAL134      0.2260
     70  O         28.3070   -3.5630   81.3510 O.2   134  VAL134     -0.2867
     71  CB        31.2820   -3.6530   81.9220 C.3   134  VAL134      0.0252
     72  CG1       31.1850   -2.3620   82.7390 C.3   134  VAL134      0.0019
     73  CG2       32.6520   -4.2930   82.1080 C.3   134  VAL134      0.0019
     74  N         27.2650   -0.5160   80.2280 N.3   137  GLY137     -0.1210
     75  CA        28.1560   -0.1440   79.1460 C.3   137  GLY137      0.1956
     76  C         27.4120   -0.4280   77.8570 C.2   137  GLY137      0.2613
     77  O         26.3120   -0.9760   77.8960 O.2   137  GLY137     -0.2717
     78  N         27.9990   -0.0780   76.7180 N.am  138  SER138     -0.1938
     79  CA        27.3370   -0.3120   75.4420 C.3   138  SER138      0.2055
     80  C         27.2300   -1.8030   75.0960 C.2   138  SER138      0.2643
     81  O         26.4180   -2.1920   74.2600 O.2   138  SER138     -0.2714
     82  CB        28.0610    0.4460   74.3230 C.3   138  SER138      0.2130
     83  OG        29.3990    0.0080   74.1980 O.3   138  SER138     -0.2179
     84  N         28.0370   -2.6370   75.7450 N.am  139  THR139     -0.1950
     85  CA        28.0080   -4.0750   75.4930 C.3   139  THR139      0.1897
     86  C         26.7700   -4.6940   76.1340 C.2   139  THR139      0.2313
     87  O         26.0500   -5.4640   75.5010 O.2   139  THR139     -0.2863
     88  CB        29.2640   -4.7630   76.0510 C.3   139  THR139      0.1794
     89  OG1       30.4230   -4.2180   75.4090 O.3   139  THR139     -0.2208
     90  CG2       29.2230   -6.2660   75.7860 C.3   139  THR139      0.0378
     91  N         35.8160   -3.3500   83.7890 N.3   170  SER170     -0.1217
     92  CA        36.6440   -4.3020   83.0690 C.3   170  SER170      0.1889
     93  C         37.6430   -5.0200   83.9660 C.2   170  SER170      0.2288
     94  O         37.8660   -6.2200   83.8030 O.2   170  SER170     -0.2866
     95  CB        37.3730   -3.6030   81.9140 C.3   170  SER170      0.2089
     96  OG        38.2810   -2.6220   82.3780 O.3   170  SER170     -0.2183
     97  N         31.8630  -10.8730   78.1250 N.3   185  LEU185     -0.1231
     98  CA        31.4980  -10.2560   76.8540 C.3   185  LEU185      0.1693
     99  C         32.0450   -8.8440   76.9570 C.2   185  LEU185      0.2592
    100  O         31.6190   -8.0640   77.8130 O.2   185  LEU185     -0.2718
    101  CB        29.9840  -10.2380   76.6890 C.3   185  LEU185      0.0284
    102  CG        29.4260  -11.6570   76.5730 C.3   185  LEU185      0.0019
    103  CD1       27.9210  -11.6130   76.5690 C.3   185  LEU185      0.0001
    104  CD2       29.9480  -12.3060   75.3060 C.3   185  LEU185      0.0001
    105  N         32.9910   -8.5220   76.0820 N.am  186  MET186     -0.1965
    106  CA        33.6530   -7.2280   76.1220 C.3   186  MET186      0.1736
    107  C         34.1040   -6.7960   74.7250 C.2   186  MET186      0.2616
    108  O         34.2480   -7.6260   73.8300 O.2   186  MET186     -0.2715
    109  CB        34.8550   -7.3450   77.0740 C.3   186  MET186      0.0427
    110  CG        35.7300   -6.1210   77.1890 C.3   186  MET186      0.0599
    111  SD        36.8740   -6.2400   78.5790 S.3   186  MET186     -0.1393
    112  CE        38.0080   -7.4830   77.9810 C.3   186  MET186      0.0692
    113  N         34.3350   -5.5010   74.5380 N.am  187  GLU187     -0.1977
    114  CA        34.7610   -5.0130   73.2370 C.3   187  GLU187      0.1602
    115  C         36.1420   -5.5420   72.8550 C.2   187  GLU187      0.2287
    116  O         37.0720   -5.5500   73.6670 O.2   187  GLU187     -0.2864
    117  CB        34.7100   -3.4900   73.2240 C.3   187  GLU187      0.0415
    118  CG        33.3000   -2.9950   73.5020 C.3   187  GLU187      0.1163
    119  CD        33.1680   -1.4870   73.5150 C.2   187  GLU187      0.3649
    120  OE1       33.9900   -0.8180   74.1830 O.co2 187  GLU187     -0.2457
    121  OE2       32.2270   -0.9750   72.8650 O.co2 187  GLU187     -0.2457
    122  N         39.6060   -3.9570   73.9700 N.3   190  SER190     -0.1217
    123  CA        40.0590   -4.2130   75.3310 C.3   190  SER190      0.1889
    124  C         40.4740   -5.6680   75.5100 C.2   190  SER190      0.2288
    125  O         41.3950   -5.9590   76.2660 O.2   190  SER190     -0.2866
    126  CB        38.9650   -3.8550   76.3370 C.3   190  SER190      0.2089
    127  OG        38.8140   -2.4450   76.4340 O.3   190  SER190     -0.2183
    128  N         34.5860    3.8930   68.1590 N.3   213  TYR213     -0.1241
    129  CA        34.7170    4.8800   69.2130 C.3   213  TYR213      0.1605
    130  C         34.8690    6.1800   68.4570 C.2   213  TYR213      0.2264
    131  O         35.5760    6.2370   67.4500 O.2   213  TYR213     -0.2867
    132  CB        35.9820    4.6750   70.0470 C.3   213  TYR213      0.0534
    133  CG        36.0340    3.4120   70.8640 C.ar  213  TYR213     -0.0201
    134  CD1       34.8950    2.8990   71.4730 C.ar  213  TYR213     -0.0009
    135  CD2       37.2490    2.7580   71.0780 C.ar  213  TYR213     -0.0009
    136  CE1       34.9600    1.7660   72.2760 C.ar  213  TYR213      0.0417
    137  CE2       37.3280    1.6320   71.8770 C.ar  213  TYR213      0.0417
    138  CZ        36.1840    1.1390   72.4730 C.ar  213  TYR213      0.1957
    139  OH        36.2780    0.0240   73.2680 O.3   213  TYR213     -0.2866
@<TRIPOS>BOND
     1   131   130    2
     2   128   129    1
     3   130   129    1
     4   129   132    1
     5   132   133    1
     6   133   135   ar
     7   133   134   ar
     8    55    53    1
     9    58    59    2
    10    58    57    1
    11   135   137   ar
    12    51    52    2
    13    51    50    1
    14   134   136   ar
    15    56    57    1
    16    44    43    2
    17    50    53    1
    18    50    49    1
    19   137   138   ar
    20    57    60    1
    21    53    54    1
    22   136   138   ar
    23    60    61    1
    24   138   139    1
    25    43    49   am
    26    43    42    1
    27   115   114    1
    28   115   116    2
    29   121   119   ar
    30   117   114    1
    31   117   118    1
    32   114   113    1
    33   118   119    1
    34   119   120   ar
    35    18    16   ar
    36    18    20   ar
    37    21    20    1
    38    61    62    1
    39   108   107    2
    40    62    63    1
    41   122   123    1
    42    41    42    1
    43    41    36   am
    44    42    45    1
    45    83    82    1
    46    81    80    2
    47    45    46    1
    48    82    79    1
    49    16    15   ar
    50    20    19   ar
    51    46    48    1
    52    46    47    1
    53   113   107   am
    54    35    36    1
    55    35    38    1
    56    35    34    1
    57    65    64    1
    58    36    37    2
    59   107   106    1
    60    80    79    1
    61    80    84   am
    62    63    64    2
    63    38    39    1
    64   104   102    1
    65   123   124    1
    66   123   126    1
    67    34    40    1
    68    89    88    1
    69    79    78    1
    70    85    84    1
    71    85    88    1
    72    85    86    1
    73    87    86    2
    74   124   125    2
    75    64    66    1
    76    19    17   ar
    77    15    17   ar
    78    15    14    1
    79    90    88    1
    80   105   106    1
    81   105    99   am
    82   106   109    1
    83   126   127    1
    84    14    11    1
    85    40    39    1
    86   103   102    1
    87   102   101    1
    88   101    98    1
    89    78    76   am
    90    11    10    1
    91    11    12    1
    92    98    99    1
    93    98    97    1
    94    99   100    2
    95   109   110    1
    96    13    12    2
    97   110   111    1
    98    76    77    2
    99    76    75    1
   100   112   111    1
   101    28    30   ar
   102    28    27   ar
   103    30    32   ar
   104    25    24    2
   105    75    74    1
   106    26    27    1
   107    26    23    1
   108    27    29   ar
   109    24    23    1
   110    32    33    1
   111    32    31   ar
   112     4     3    2
   113     6     5    1
   114     6     7    1
   115    23    22    1
   116    29    31   ar
   117     5     2    1
   118     3     2    1
   119     9     7   ar
   120     7     8   ar
   121    70    69    2
   122     2     1    1
   123    67    68    1
   124    95    96    1
   125    95    92    1
   126    71    73    1
   127    71    68    1
   128    71    72    1
   129    68    69    1
   130    92    91    1
   131    92    93    1
   132    94    93    2
