@<TRIPOS>MOLECULE
tmp/2wkzB00.pdb
 124 117 0 0 0
SMALL
GASTEIGER

@<TRIPOS>ATOM
      1  N          8.8870   34.3130   -1.2260 N.3     8  ARG8       -0.1245
      2  CA         9.6670   33.0870   -1.3600 C.3     8  ARG8        0.1563
      3  C         10.5530   33.1610   -2.5980 C.2     8  ARG8        0.2260
      4  O         10.1160   33.6100   -3.6590 O.2     8  ARG8       -0.2867
      5  CB         8.7510   31.8710   -1.4720 C.3     8  ARG8        0.0307
      6  CG         7.9320   31.6080   -0.2260 C.3     8  ARG8        0.0489
      7  CD         7.1380   30.3200   -0.3370 C.3     8  ARG8        0.2205
      8  NE         6.1420   30.2420    0.7250 N.pl3   8  ARG8       -0.0865
      9  CZ         5.3660   29.1910    0.9600 C.cat   8  ARG8        0.5346
     10  NH1        5.4710   28.0970    0.2070 N.pl3   8  ARG8        0.1354
     11  NH2        4.4670   29.2440    1.9400 N.pl3   8  ARG8        0.1354
     12  N         12.0580   26.1190   -5.0510 N.3    23  LEU23      -0.1245
     13  CA        12.4790   27.0390   -4.0010 C.3    23  LEU23       0.1561
     14  C         13.9860   26.9770   -3.7370 C.2    23  LEU23       0.2260
     15  O         14.5340   25.8940   -3.4990 O.2    23  LEU23      -0.2867
     16  CB        11.7230   26.6900   -2.7140 C.3    23  LEU23       0.0270
     17  CG        11.8520   27.5820   -1.4800 C.3    23  LEU23       0.0019
     18  CD1       11.2080   28.9350   -1.7340 C.3    23  LEU23       0.0001
     19  CD2       11.1720   26.8840   -0.3110 C.3    23  LEU23       0.0001
     20  N         16.6450   27.0180   -1.4670 N.3    25  ASP25      -0.1239
     21  CA        16.6720   26.7840   -0.0250 C.3    25  ASP25       0.1674
     22  C         18.0530   26.5720    0.6020 C.2    25  ASP25       0.2266
     23  O         18.5990   25.4630    0.5670 O.2    25  ASP25      -0.2867
     24  CB        15.7970   25.5560    0.2490 C.3    25  ASP25       0.1410
     25  CG        15.3420   25.4680    1.6760 C.2    25  ASP25       0.3668
     26  OD1       16.0240   26.0320    2.5590 O.co2  25  ASP25      -0.2456
     27  OD2       14.3000   24.8160    1.9100 O.co2  25  ASP25      -0.2456
     28  N         18.7400   26.3070    3.5680 N.3    27  GLY27      -0.1210
     29  CA        18.6490   25.4520    4.7390 C.3    27  GLY27       0.1956
     30  C         18.5510   23.9770    4.3910 C.2    27  GLY27       0.2612
     31  O         18.5310   23.1240    5.2800 O.2    27  GLY27      -0.2717
     32  N         18.4910   23.6710    3.0990 N.am   28  ALA28      -0.1965
     33  CA        18.3840   22.2890    2.6450 C.3    28  ALA28       0.1728
     34  C         19.7340   21.7590    2.1670 C.2    28  ALA28       0.2616
     35  O         20.3780   22.3750    1.3150 O.2    28  ALA28      -0.2715
     36  CB        17.3570   22.2050    1.5160 C.3    28  ALA28       0.0334
     37  N         20.1720   20.6280    2.7170 N.am   29  ASP29      -0.1957
     38  CA        21.4460   20.0410    2.2970 C.3    29  ASP29       0.1840
     39  C         21.3440   19.4990    0.8780 C.2    29  ASP29       0.2622
     40  O         22.2870   19.6040    0.0870 O.2    29  ASP29      -0.2715
     41  CB        21.8380   18.8600    3.1790 C.3    29  ASP29       0.1450
     42  CG        22.2900   19.2670    4.5610 C.2    29  ASP29       0.3671
     43  OD1       22.4250   20.4770    4.8490 O.co2  29  ASP29      -0.2456
     44  OD2       22.5270   18.3460    5.3690 O.co2  29  ASP29      -0.2456
     45  N         20.1910   18.9080    0.5790 N.am   30  ASP30      -0.1971
     46  CA        19.9500   18.2780   -0.7080 C.3    30  ASP30       0.1709
     47  C         18.8410   18.9370   -1.5190 C.2    30  ASP30       0.2293
     48  O         18.1520   19.8400   -1.0460 O.2    30  ASP30      -0.2864
     49  CB        19.5850   16.8040   -0.4920 C.3    30  ASP30       0.1436
     50  CG        20.5510   16.0790    0.4420 C.2    30  ASP30       0.3671
     51  OD1       21.7730   16.1360    0.2050 O.co2  30  ASP30      -0.2456
     52  OD2       20.0840   15.4450    1.4130 O.co2  30  ASP30      -0.2456
     53  N         15.3750   18.1320   -3.4440 N.3    32  VAL32      -0.1245
     54  CA        14.3140   17.1390   -3.5260 C.3    32  VAL32       0.1561
     55  C         13.1460   17.6790   -4.3420 C.2    32  VAL32       0.2260
     56  O         12.6410   18.7710   -4.0960 O.2    32  VAL32      -0.2867
     57  CB        13.8270   16.6990   -2.1080 C.3    32  VAL32       0.0252
     58  CG1       13.3240   17.8910   -1.3170 C.3    32  VAL32       0.0019
     59  CG2       12.7320   15.6550   -2.2310 C.3    32  VAL32       0.0019
     60  N         15.5100   11.5320    4.3330 N.3    47  ILE47      -0.1231
     61  CA        15.8790   12.9120    4.6300 C.3    47  ILE47       0.1692
     62  C         14.9430   13.4710    5.6950 C.2    47  ILE47       0.2593
     63  O         13.7410   13.1920    5.6860 O.2    47  ILE47      -0.2718
     64  CB        15.8470   13.8010    3.3600 C.3    47  ILE47       0.0266
     65  CG1       14.4830   13.7150    2.6700 C.3    47  ILE47       0.0019
     66  CG2       16.9630   13.3660    2.4110 C.3    47  ILE47       0.0020
     67  CD1       14.3590   14.6210    1.4390 C.3    47  ILE47       0.0001
     68  N         15.5010   14.2470    6.6180 N.am   48  GLY48      -0.1942
     69  CA        14.6940   14.7970    7.6920 C.3    48  GLY48       0.2014
     70  C         14.4550   16.2920    7.6480 C.2    48  GLY48       0.2639
     71  O         15.3600   17.0670    7.3500 O.2    48  GLY48      -0.2714
     72  N         13.2230   16.6820    7.9650 N.am   49  GLY49      -0.1939
     73  CA        12.8370   18.0830    7.9820 C.3    49  GLY49       0.2014
     74  C         12.1470   18.4290    9.2940 C.2    49  GLY49       0.2638
     75  O         12.2110   17.6560   10.2520 O.2    49  GLY49      -0.2714
     76  N         11.4720   19.5730    9.3490 N.am   50  ILE50      -0.1977
     77  CA        10.8150   19.9760   10.5890 C.3    50  ILE50       0.1596
     78  C          9.7020   19.0590   11.0880 C.2    50  ILE50       0.2287
     79  O          9.4460   18.9950   12.2880 O.2    50  ILE50      -0.2864
     80  CB        10.2650   21.4230   10.5060 C.3    50  ILE50       0.0276
     81  CG1        9.3340   21.5690    9.3070 C.3    50  ILE50       0.0022
     82  CG2       11.4210   22.4160   10.4450 C.3    50  ILE50       0.0022
     83  CD1        8.7160   22.9500    9.1870 C.3    50  ILE50       0.0001
     84  N         10.8980   12.6040    9.0190 N.3    53  PHE53      -0.1227
     85  CA        11.6340   12.1230    7.8520 C.3    53  PHE53       0.1736
     86  C         10.7330   11.5480    6.7650 C.2    53  PHE53       0.2595
     87  O          9.5920   11.1600    7.0190 O.2    53  PHE53      -0.2718
     88  CB        12.6360   11.0290    8.2560 C.3    53  PHE53       0.0547
     89  CG        13.8360   11.5350    9.0060 C.ar   53  PHE53      -0.0202
     90  CD1       13.7090   12.0430   10.2940 C.ar   53  PHE53      -0.0042
     91  CD2       15.1000   11.4850    8.4260 C.ar   53  PHE53      -0.0042
     92  CE1       14.8270   12.4940   10.9990 C.ar   53  PHE53      -0.0003
     93  CE2       16.2250   11.9330    9.1190 C.ar   53  PHE53      -0.0003
     94  CZ        16.0890   12.4380   10.4080 C.ar   53  PHE53      -0.0000
     95  N         11.2560   11.5040    5.5450 N.am   54  ILE54      -0.1980
     96  CA        10.5320   10.9170    4.4270 C.3    54  ILE54       0.1595
     97  C         11.5400   10.1450    3.5860 C.2    54  ILE54       0.2287
     98  O         12.7150   10.5130    3.5180 O.2    54  ILE54      -0.2864
     99  CB         9.8390   11.9760    3.5230 C.3    54  ILE54       0.0276
    100  CG1       10.8810   12.8740    2.8510 C.3    54  ILE54       0.0022
    101  CG2        8.8470   12.7940    4.3500 C.3    54  ILE54       0.0022
    102  CD1       10.3060   13.7960    1.7880 C.3    54  ILE54       0.0001
    103  N          6.6410   18.5580    0.1020 N.3    81  PRO81      -0.2102
    104  CA         5.5600   19.5390   -0.0520 C.3    81  PRO81       0.1504
    105  C          5.7660   20.5160   -1.2100 C.2    81  PRO81       0.2575
    106  O          4.7960   21.0020   -1.8000 O.2    81  PRO81      -0.2718
    107  CB         5.5460   20.2380    1.3050 C.3    81  PRO81       0.0282
    108  CG         5.9290   19.1360    2.2340 C.3    81  PRO81       0.0208
    109  CD         7.1040   18.5190    1.5000 C.3    81  PRO81       0.0893
    110  N          7.0270   20.8010   -1.5290 N.am   82  VAL82      -0.1980
    111  CA         7.3720   21.7210   -2.6170 C.3    82  VAL82       0.1595
    112  C          8.7160   21.3280   -3.2220 C.2    82  VAL82       0.2287
    113  O          9.5040   20.6290   -2.5850 O.2    82  VAL82      -0.2864
    114  CB         7.4920   23.1900   -2.1210 C.3    82  VAL82       0.0276
    115  CG1        6.1830   23.6450   -1.4940 C.3    82  VAL82       0.0022
    116  CG2        8.6430   23.3150   -1.1120 C.3    82  VAL82       0.0022
    117  N         12.3640   21.6660   -3.9300 N.3    84  ILE84      -0.1245
    118  CA        13.4300   22.3360   -3.1900 C.3    84  ILE84       0.1561
    119  C         14.8070   22.1900   -3.8300 C.2    84  ILE84       0.2260
    120  O         15.2430   21.0780   -4.1330 O.2    84  ILE84      -0.2867
    121  CB        13.5130   21.7620   -1.7540 C.3    84  ILE84       0.0252
    122  CG1       12.2390   22.1030   -0.9830 C.3    84  ILE84       0.0019
    123  CG2       14.7630   22.2850   -1.0380 C.3    84  ILE84       0.0019
    124  CD1       12.0950   21.3090    0.3130 C.3    84  ILE84       0.0001
@<TRIPOS>BOND
     1    12    13    1
     2    55    56    2
     3    55    54    1
     4   120   119    2
     5    13    14    1
     6    13    16    1
     7   117   118    1
     8   119   118    1
     9    14    15    2
    10     4     3    2
    11    54    53    1
    12    54    57    1
    13   112   111    1
    14   112   113    2
    15   118   121    1
    16    16    17    1
    17   111   114    1
    18   111   110    1
    19     3     2    1
    20    59    57    1
    21   114   115    1
    22   114   116    1
    23    57    58    1
    24   106   105    2
    25   121   123    1
    26   121   122    1
    27    18    17    1
    28   110   105   am
    29    47    48    2
    30    47    46    1
    31    17    19    1
    32     5     2    1
    33     5     6    1
    34    20    21    1
    35     2     1    1
    36   105   104    1
    37   122   124    1
    38    46    49    1
    39    46    45    1
    40    49    50    1
    41     7     6    1
    42     7     8    1
    43   104   103    1
    44   104   107    1
    45    21    24    1
    46    21    22    1
    47    40    39    2
    48   103   109    1
    49    51    50   ar
    50    10     9    1
    51    24    25    1
    52    50    52   ar
    53    23    22    2
    54    45    39   am
    55     8     9    2
    56    39    38    1
    57     9    11    1
    58   107   108    1
    59    35    34    2
    60    67    65    1
    61   109   108    1
    62    36    33    1
    63    25    27   ar
    64    25    26   ar
    65   102   100    1
    66    34    33    1
    67    34    37   am
    68    38    37    1
    69    38    41    1
    70    66    64    1
    71    33    32    1
    72    65    64    1
    73   100    99    1
    74    32    30   am
    75    41    42    1
    76    64    61    1
    77    98    97    2
    78    99   101    1
    79    99    96    1
    80    28    29    1
    81    97    96    1
    82    60    61    1
    83    30    29    1
    84    30    31    2
    85    96    95    1
    86    42    43   ar
    87    42    44   ar
    88    61    62    1
    89    95    86   am
    90    63    62    2
    91    62    68   am
    92    68    69    1
    93    86    87    2
    94    86    85    1
    95    71    70    2
    96    70    69    1
    97    70    72   am
    98    85    88    1
    99    85    84    1
   100    72    73    1
   101    73    74    1
   102    88    89    1
   103    91    89   ar
   104    91    93   ar
   105    89    90   ar
   106    93    94   ar
   107    83    81    1
   108    74    76   am
   109    74    75    2
   110    81    80    1
   111    76    77    1
   112    90    92   ar
   113    94    92   ar
   114    82    80    1
   115    80    77    1
   116    77    78    1
   117    78    79    2
