@<TRIPOS>MOLECULE
tmp/2wl9D00.pdb
 156 149 0 0 0
SMALL
GASTEIGER

@<TRIPOS>ATOM
      1  N         12.8420   23.9500  -36.1340 N.3   148  HIS148     -0.1241
      2  CA        12.2230   24.4880  -37.3510 C.3   148  HIS148      0.1621
      3  C         12.7080   25.8810  -37.7230 C.2   148  HIS148      0.2264
      4  O         13.2130   26.6230  -36.8780 O.2   148  HIS148     -0.2867
      5  CB        10.6870   24.4150  -37.3050 C.3   148  HIS148      0.0745
      6  CG        10.0290   25.3970  -36.3850 C.ar  148  HIS148      0.0817
      7  ND1        9.2590   25.0000  -35.3100 N.ar  148  HIS148     -0.2268
      8  CD2        9.9860   26.7520  -36.3980 C.ar  148  HIS148      0.1154
      9  CE1        8.7820   26.0690  -34.6950 C.ar  148  HIS148      0.1986
     10  NE2        9.2130   27.1440  -35.3320 N.ar  148  HIS148     -0.2212
     11  N         11.9180   29.4780  -40.3300 N.3   150  ILE150     -0.1245
     12  CA        11.1630   30.2670  -41.2880 C.3   150  ILE150      0.1561
     13  C         12.1520   30.8510  -42.2910 C.2   150  ILE150      0.2260
     14  O         13.1170   31.5100  -41.8960 O.2   150  ILE150     -0.2867
     15  CB        10.3450   31.3960  -40.6280 C.3   150  ILE150      0.0252
     16  CG1        9.1470   30.8160  -39.8630 C.3   150  ILE150      0.0019
     17  CG2        9.8820   32.4040  -41.6800 C.3   150  ILE150      0.0019
     18  CD1        8.0890   31.8420  -39.4760 C.3   150  ILE150      0.0001
     19  N         -2.4010   30.1330  -40.8230 N.3   174  TYR174     -0.1241
     20  CA        -2.8240   31.4020  -40.2220 C.3   174  TYR174      0.1605
     21  C         -3.3560   32.3780  -41.2650 C.2   174  TYR174      0.2264
     22  O         -2.8540   32.4250  -42.3890 O.2   174  TYR174     -0.2867
     23  CB        -1.6440   32.0750  -39.5230 C.3   174  TYR174      0.0534
     24  CG        -1.3600   31.6410  -38.1040 C.ar  174  TYR174     -0.0201
     25  CD1       -1.9190   32.3200  -37.0260 C.ar  174  TYR174     -0.0009
     26  CD2       -0.4930   30.5840  -37.8400 C.ar  174  TYR174     -0.0009
     27  CE1       -1.6360   31.9440  -35.7120 C.ar  174  TYR174      0.0417
     28  CE2       -0.2100   30.1970  -36.5430 C.ar  174  TYR174      0.0417
     29  CZ        -0.7820   30.8800  -35.4850 C.ar  174  TYR174      0.1957
     30  OH        -0.4970   30.4990  -34.2010 O.3   174  TYR174     -0.2866
     31  N         -3.7220   36.3970  -40.9990 N.3   176  PHE176     -0.1241
     32  CA        -3.5480   37.6030  -40.2250 C.3   176  PHE176      0.1605
     33  C         -4.1400   38.8370  -40.8720 C.2   176  PHE176      0.2264
     34  O         -4.1060   38.9940  -42.0490 O.2   176  PHE176     -0.2867
     35  CB        -2.0760   37.8340  -39.8850 C.3   176  PHE176      0.0534
     36  CG        -1.5290   36.8990  -38.8660 C.ar  176  PHE176     -0.0203
     37  CD1       -2.0290   36.8760  -37.5780 C.ar  176  PHE176     -0.0042
     38  CD2       -0.5050   36.0910  -39.1600 C.ar  176  PHE176     -0.0042
     39  CE1       -1.5280   36.0610  -36.6700 C.ar  176  PHE176     -0.0003
     40  CE2       -0.0150   35.2840  -38.2540 C.ar  176  PHE176     -0.0003
     41  CZ        -0.5360   35.2570  -37.0030 C.ar  176  PHE176     -0.0000
     42  N          0.7390   32.6840  -43.7950 N.3   181  PRO181     -0.2116
     43  CA         1.9430   31.8410  -43.7250 C.3   181  PRO181      0.1372
     44  C          1.6690   30.3360  -43.8460 C.2   181  PRO181      0.2244
     45  O          0.6790   29.8350  -43.3040 O.2   181  PRO181     -0.2868
     46  CB         2.5390   32.1730  -42.3540 C.3   181  PRO181      0.0268
     47  CG         1.4440   32.8290  -41.5880 C.3   181  PRO181      0.0207
     48  CD         0.5670   33.5000  -42.5780 C.3   181  PRO181      0.0892
     49  N          2.9540   26.4110  -43.2450 N.3   183  PHE183     -0.1241
     50  CA         3.7570   25.5960  -42.3360 C.3   183  PHE183      0.1605
     51  C          3.7750   24.1460  -42.8060 C.2   183  PHE183      0.2264
     52  O          2.7380   23.5960  -43.1970 O.2   183  PHE183     -0.2867
     53  CB         3.1790   25.6640  -40.9270 C.3   183  PHE183      0.0534
     54  CG         3.2910   27.0160  -40.2910 C.ar  183  PHE183     -0.0203
     55  CD1        4.3290   27.2940  -39.4190 C.ar  183  PHE183     -0.0042
     56  CD2        2.3570   28.0090  -40.5540 C.ar  183  PHE183     -0.0042
     57  CE1        4.4410   28.5380  -38.8290 C.ar  183  PHE183     -0.0003
     58  CE2        2.4640   29.2680  -39.9610 C.ar  183  PHE183     -0.0003
     59  CZ         3.5030   29.5290  -39.1010 C.ar  183  PHE183     -0.0000
     60  N          6.0140   21.5870  -37.0800 N.3   191  HIS191     -0.1241
     61  CA         6.5140   21.9390  -38.3920 C.3   191  HIS191      0.1621
     62  C          8.0230   22.0370  -38.3730 C.2   191  HIS191      0.2264
     63  O          8.6230   22.3740  -37.3500 O.2   191  HIS191     -0.2867
     64  CB         5.8590   23.2180  -38.9370 C.3   191  HIS191      0.0745
     65  CG         6.0240   24.4210  -38.0620 C.ar  191  HIS191      0.0817
     66  ND1        6.9300   25.4220  -38.3400 N.ar  191  HIS191     -0.2268
     67  CD2        5.3720   24.8040  -36.9380 C.ar  191  HIS191      0.1154
     68  CE1        6.8380   26.3640  -37.4180 C.ar  191  HIS191      0.1986
     69  NE2        5.9030   26.0110  -36.5530 N.ar  191  HIS191     -0.2212
     70  N          5.8370   34.9340  -44.7720 N.3   197  VAL197     -0.1245
     71  CA         5.6150   35.7600  -43.5770 C.3   197  VAL197      0.1561
     72  C          5.8800   37.2580  -43.7950 C.2   197  VAL197      0.2260
     73  O          6.1570   37.9900  -42.8400 O.2   197  VAL197     -0.2867
     74  CB         6.4630   35.2600  -42.3720 C.3   197  VAL197      0.0252
     75  CG1        6.0290   33.8630  -41.9380 C.3   197  VAL197      0.0019
     76  CG2        7.9510   35.2870  -42.7050 C.3   197  VAL197      0.0019
     77  N         14.0520   32.9970  -38.4020 N.3   206  HIS206     -0.1241
     78  CA        14.3460   32.4030  -37.1060 C.3   206  HIS206      0.1621
     79  C         14.5720   30.9120  -37.1860 C.2   206  HIS206      0.2264
     80  O         14.1380   30.2580  -38.1290 O.2   206  HIS206     -0.2867
     81  CB        13.2620   32.7440  -36.0610 C.3   206  HIS206      0.0745
     82  CG        12.0240   31.9020  -36.1430 C.ar  206  HIS206      0.0817
     83  ND1       10.8960   32.2970  -36.8310 N.ar  206  HIS206     -0.2268
     84  CD2       11.7240   30.7020  -35.5910 C.ar  206  HIS206      0.1154
     85  CE1        9.9600   31.3720  -36.7080 C.ar  206  HIS206      0.1986
     86  NE2       10.4410   30.3880  -35.9710 N.ar  206  HIS206     -0.2212
     87  N          9.6870   38.9890  -29.4030 N.3   233  LEU233     -0.1245
     88  CA         8.3960   38.5270  -28.9070 C.3   233  LEU233      0.1561
     89  C          8.5980   37.8610  -27.5580 C.2   233  LEU233      0.2260
     90  O          9.4650   36.9880  -27.4050 O.2   233  LEU233     -0.2867
     91  CB         7.7400   37.5530  -29.8880 C.3   233  LEU233      0.0270
     92  CG         7.4060   38.0340  -31.3040 C.3   233  LEU233      0.0019
     93  CD1        6.8800   36.8770  -32.1330 C.3   233  LEU233      0.0001
     94  CD2        6.4030   39.1720  -31.2860 C.3   233  LEU233      0.0001
     95  N          1.9400   30.0840  -29.7200 N.3   238  HIS238     -0.1241
     96  CA         1.2480   30.1190  -31.0000 C.3   238  HIS238      0.1621
     97  C          0.1210   29.0900  -30.9600 C.2   238  HIS238      0.2264
     98  O          0.2220   28.0750  -30.2690 O.2   238  HIS238     -0.2867
     99  CB         2.2060   29.7960  -32.1460 C.3   238  HIS238      0.0745
    100  CG         3.2610   30.8330  -32.3860 C.ar  238  HIS238      0.0817
    101  ND1        2.9740   32.1750  -32.5360 N.ar  238  HIS238     -0.2268
    102  CD2        4.6000   30.7160  -32.5500 C.ar  238  HIS238      0.1154
    103  CE1        4.0940   32.8420  -32.7560 C.ar  238  HIS238      0.1986
    104  NE2        5.0940   31.9790  -32.7790 N.ar  238  HIS238     -0.2212
    105  N         -0.8650   27.1960  -33.4240 N.3   240  ASN240     -0.1225
    106  CA        -0.5500   26.0200  -34.2300 C.3   240  ASN240      0.1785
    107  C          0.2620   24.9540  -33.4950 C.2   240  ASN240      0.2597
    108  O         -0.1800   23.8070  -33.4000 O.2   240  ASN240     -0.2718
    109  CB         0.0640   26.3880  -35.6000 C.3   240  ASN240      0.1169
    110  CG         1.3890   27.1300  -35.4930 C.2   240  ASN240      0.2627
    111  OD1        1.7050   27.7350  -34.4740 O.2   240  ASN240     -0.2716
    112  ND2        2.1640   27.0970  -36.5750 N.am  240  ASN240     -0.0877
    113  N          1.4280   25.3210  -32.9700 N.am  241  ASP241     -0.1974
    114  CA         2.2770   24.3350  -32.3020 C.3   241  ASP241      0.1709
    115  C          2.0020   24.2210  -30.8050 C.2   241  ASP241      0.2293
    116  O          2.4180   23.2530  -30.1650 O.2   241  ASP241     -0.2864
    117  CB         3.7780   24.5500  -32.5940 C.3   241  ASP241      0.1436
    118  CG         4.2880   25.9390  -32.2030 C.2   241  ASP241      0.3671
    119  OD1        3.5740   26.7090  -31.5160 O.co2 241  ASP241     -0.2456
    120  OD2        5.4400   26.2570  -32.6010 O.co2 241  ASP241     -0.2456
    121  N         11.2230   34.8210  -28.6340 N.3   247  TYR247     -0.1241
    122  CA        12.0740   35.1260  -29.7880 C.3   247  TYR247      0.1605
    123  C         13.1020   36.1810  -29.4160 C.2   247  TYR247      0.2264
    124  O         12.7250   37.2840  -29.0200 O.2   247  TYR247     -0.2867
    125  CB        11.2390   35.6530  -30.9600 C.3   247  TYR247      0.0534
    126  CG        10.3100   34.6500  -31.6100 C.ar  247  TYR247     -0.0201
    127  CD1       10.5940   34.1290  -32.8760 C.ar  247  TYR247     -0.0009
    128  CD2        9.1360   34.2450  -30.9760 C.ar  247  TYR247     -0.0009
    129  CE1        9.7430   33.2270  -33.4880 C.ar  247  TYR247      0.0417
    130  CE2        8.2770   33.3350  -31.5770 C.ar  247  TYR247      0.0417
    131  CZ         8.5830   32.8330  -32.8310 C.ar  247  TYR247      0.1957
    132  OH         7.7260   31.9250  -33.4170 O.3   247  TYR247     -0.2866
    133  N          9.2660   40.4400  -37.2860 N.3   288  LEU288     -0.1245
    134  CA         8.0710   39.9230  -36.6160 C.3   288  LEU288      0.1561
    135  C          7.2940   41.0490  -35.9400 C.2   288  LEU288      0.2260
    136  O          6.8760   40.9370  -34.7820 O.2   288  LEU288     -0.2867
    137  CB         8.4280   38.8040  -35.6260 C.3   288  LEU288      0.0270
    138  CG         8.9380   37.4870  -36.2200 C.3   288  LEU288      0.0019
    139  CD1        9.3800   36.5490  -35.1130 C.3   288  LEU288      0.0001
    140  CD2        7.8890   36.8190  -37.1030 C.3   288  LEU288      0.0001
    141  N          4.2850   42.2070  -36.1070 N.3   290  ILE290     -0.1245
    142  CA         2.8400   42.0330  -36.2580 C.3   290  ILE290      0.1561
    143  C          2.1830   41.7960  -34.8930 C.2   290  ILE290      0.2260
    144  O          2.8010   41.1940  -34.0070 O.2   290  ILE290     -0.2867
    145  CB         2.4870   40.8660  -37.2290 C.3   290  ILE290      0.0252
    146  CG1        3.0940   39.5410  -36.7520 C.3   290  ILE290      0.0019
    147  CG2        2.9380   41.1920  -38.6550 C.3   290  ILE290      0.0019
    148  CD1        2.3270   38.3190  -37.2090 C.3   290  ILE290      0.0001
    149  N          0.2720   39.5940  -32.9080 N.3   292  LEU292     -0.1245
    150  CA        -0.0770   38.1700  -32.9910 C.3   292  LEU292      0.1561
    151  C         -1.3570   37.7870  -32.2440 C.2   292  LEU292      0.2260
    152  O         -1.9630   36.7540  -32.5420 O.2   292  LEU292     -0.2867
    153  CB         1.0910   37.2970  -32.5220 C.3   292  LEU292      0.0270
    154  CG         2.1600   36.9470  -33.5620 C.3   292  LEU292      0.0019
    155  CD1        3.4420   36.5380  -32.8740 C.3   292  LEU292      0.0001
    156  CD2        1.6810   35.8300  -34.4690 C.3   292  LEU292      0.0001
@<TRIPOS>BOND
     1    70    71    1
     2    44    43    1
     3    44    45    2
     4    72    71    1
     5    72    73    2
     6    42    43    1
     7    42    48    1
     8    43    46    1
     9    71    74    1
    10    49    50    1
    11    52    51    2
    12    51    50    1
    13    76    74    1
    14    48    47    1
    15    22    21    2
    16    74    75    1
    17    46    47    1
    18    50    53    1
    19    13    14    2
    20    13    12    1
    21    34    33    2
    22    17    15    1
    23    12    15    1
    24    12    11    1
    25    21    20    1
    26    31    32    1
    27    53    54    1
    28    33    32    1
    29    19    20    1
    30    15    16    1
    31    56    54   ar
    32    56    58   ar
    33    54    55   ar
    34    32    35    1
    35    20    23    1
    36    58    59   ar
    37    35    36    1
    38    16    18    1
    39    23    24    1
    40    55    57   ar
    41    38    36   ar
    42    38    40   ar
    43    59    57   ar
    44    64    61    1
    45    64    65    1
    46    36    37   ar
    47   147   145    1
    48    77    78    1
    49    61    62    1
    50    61    60    1
    51    62    63    2
    52    66    65   ar
    53    66    68   ar
    54    40    41   ar
    55    80    79    2
    56    24    26   ar
    57    24    25   ar
    58    65    67   ar
    59    26    28   ar
    60     3     2    1
    61     3     4    2
    62    37    39   ar
    63    68    69   ar
    64     2     5    1
    65     2     1    1
    66     5     6    1
    67   133   134    1
    68   145   146    1
    69   145   142    1
    70   148   146    1
    71    79    78    1
    72    78    81    1
    73   140   138    1
    74    25    27   ar
    75    41    39   ar
    76    67    69   ar
    77    83    85   ar
    78    83    82   ar
    79    85    86   ar
    80   134   135    1
    81   134   137    1
    82   112   110   am
    83    28    29   ar
    84     8     6   ar
    85     8    10   ar
    86     6     7   ar
    87   142   141    1
    88   142   143    1
    89   138   137    1
    90   138   139    1
    91    82    81    1
    92    82    84   ar
    93    86    84   ar
    94   135   136    2
    95    27    29   ar
    96   109   110    1
    97   109   106    1
    98   110   111    2
    99    29    30    1
   100    10     9   ar
   101     7     9   ar
   102   143   144    2
   103   156   154    1
   104   106   107    1
   105   106   105    1
   106   154   155    1
   107   154   153    1
   108   107   108    2
   109   107   113   am
   110   129   127   ar
   111   129   131   ar
   112   132   131    1
   113   150   149    1
   114   150   153    1
   115   150   151    1
   116   113   114    1
   117   127   126   ar
   118   131   130   ar
   119   104   103   ar
   120   104   102   ar
   121   103   101   ar
   122   120   118   ar
   123   117   114    1
   124   117   118    1
   125   102   100   ar
   126   152   151    2
   127   101   100   ar
   128   100    99    1
   129   114   115    1
   130   118   119   ar
   131    99    96    1
   132    93    92    1
   133   126   128   ar
   134   126   125    1
   135   130   128   ar
   136    92    94    1
   137    92    91    1
   138    96    97    1
   139    96    95    1
   140    97    98    2
   141   125   122    1
   142   115   116    2
   143    91    88    1
   144   122   123    1
   145   122   121    1
   146   123   124    2
   147    87    88    1
   148    88    89    1
   149    89    90    2
