@<TRIPOS>MOLECULE
tmp/2wlfC01.pdb
 137 130 0 0 0
SMALL
GASTEIGER

@<TRIPOS>ATOM
      1  N         17.2820  -26.3650  -15.4170 N.3   110  GLU110     -0.1245
      2  CA        16.4110  -27.5180  -15.5380 C.3   110  GLU110      0.1567
      3  C         16.3450  -28.2060  -14.1730 C.2   110  GLU110      0.2260
      4  O         17.3660  -28.7060  -13.6620 O.2   110  GLU110     -0.2867
      5  CB        16.9340  -28.4830  -16.6010 C.3   110  GLU110      0.0388
      6  CG        15.9480  -29.5600  -16.9760 C.3   110  GLU110      0.1160
      7  CD        16.5920  -30.7560  -17.6780 C.2   110  GLU110      0.3649
      8  OE1       17.5970  -30.5560  -18.4040 O.co2 110  GLU110     -0.2457
      9  OE2       16.0850  -31.8900  -17.5070 O.co2 110  GLU110     -0.2457
     10  N         14.1250  -30.9730  -11.6560 N.3   112  ARG112     -0.1245
     11  CA        13.2040  -32.0950  -11.7200 C.3   112  ARG112      0.1563
     12  C         13.3600  -33.0270  -10.5240 C.2   112  ARG112      0.2260
     13  O         14.4740  -33.2840  -10.0660 O.2   112  ARG112     -0.2867
     14  CB        13.4370  -32.8710  -13.0310 C.3   112  ARG112      0.0307
     15  CG        14.8630  -33.3940  -13.1620 C.3   112  ARG112      0.0489
     16  CD        15.0620  -34.2590  -14.3840 C.3   112  ARG112      0.2205
     17  NE        14.7440  -33.5200  -15.5940 N.pl3 112  ARG112     -0.0865
     18  CZ        13.6020  -33.6310  -16.2520 C.cat 112  ARG112      0.5346
     19  NH1       12.6740  -34.4760  -15.8340 N.pl3 112  ARG112      0.1354
     20  NH2       13.4000  -32.9180  -17.3470 N.pl3 112  ARG112      0.1354
     21  N         12.7180  -38.6270  -13.2640 N.3   115  ASP115     -0.1225
     22  CA        13.2950  -38.9640  -14.5470 C.3   115  ASP115      0.1805
     23  C         12.1910  -39.1490  -15.5830 C.2   115  ASP115      0.2598
     24  O         12.4610  -39.2330  -16.7880 O.2   115  ASP115     -0.2718
     25  CB        14.0720  -40.2700  -14.4380 C.3   115  ASP115      0.1424
     26  CG        15.1610  -40.2100  -13.4080 C.2   115  ASP115      0.3668
     27  OD1       15.6640  -39.0980  -13.1460 O.co2 115  ASP115     -0.2456
     28  OD2       15.5330  -41.2710  -12.8710 O.co2 115  ASP115     -0.2456
     29  N         10.9550  -39.2580  -15.1020 N.am  116  MET116     -0.1965
     30  CA         9.7810  -39.3870  -15.9620 C.3   116  MET116      0.1736
     31  C          9.6370  -40.7840  -16.5820 C.2   116  MET116      0.2616
     32  O          8.6070  -41.0960  -17.1880 O.2   116  MET116     -0.2715
     33  CB         9.8030  -38.3140  -17.0630 C.3   116  MET116      0.0427
     34  CG         9.5360  -36.8830  -16.5580 C.3   116  MET116      0.0599
     35  SD         7.9600  -36.7030  -15.6680 S.3   116  MET116     -0.1393
     36  CE         6.7900  -36.9260  -17.0110 C.3   116  MET116      0.0692
     37  N         10.6520  -41.6280  -16.4270 N.am  117  HIS117     -0.1973
     38  CA        10.5970  -42.9770  -16.9970 C.3   117  HIS117      0.1656
     39  C         11.3490  -43.9550  -16.1040 C.2   117  HIS117      0.2291
     40  O         12.4080  -43.6200  -15.5520 O.2   117  HIS117     -0.2864
     41  CB        11.1480  -42.9890  -18.4250 C.3   117  HIS117      0.0771
     42  CG        10.5240  -41.9580  -19.3110 C.ar  117  HIS117      0.0820
     43  ND1        9.3480  -42.1760  -19.9970 N.ar  117  HIS117     -0.2267
     44  CD2       10.9060  -40.6930  -19.6120 C.ar  117  HIS117      0.1154
     45  CE1        9.0320  -41.0910  -20.6800 C.ar  117  HIS117      0.1986
     46  NE2        9.9640  -40.1780  -20.4680 N.ar  117  HIS117     -0.2212
     47  N         13.3870  -47.1120  -14.4380 N.3   119  ILE119     -0.1245
     48  CA        14.4910  -48.0260  -14.6420 C.3   119  ILE119      0.1561
     49  C         14.2830  -49.1860  -13.6820 C.2   119  ILE119      0.2260
     50  O         14.0730  -48.9740  -12.4870 O.2   119  ILE119     -0.2867
     51  CB        15.8370  -47.3630  -14.3530 C.3   119  ILE119      0.0252
     52  CG1       16.1310  -46.2980  -15.4090 C.3   119  ILE119      0.0019
     53  CG2       16.9330  -48.3940  -14.3700 C.3   119  ILE119      0.0019
     54  CD1       17.3920  -45.5310  -15.1600 C.3   119  ILE119      0.0001
     55  N         13.9490  -48.9400   -9.6130 N.3   128  ILE128     -0.1231
     56  CA        14.9920  -48.4690   -8.7130 C.3   128  ILE128      0.1692
     57  C         15.3780  -47.0050   -8.9400 C.2   128  ILE128      0.2592
     58  O         16.3980  -46.5600   -8.4300 O.2   128  ILE128     -0.2718
     59  CB        16.2560  -49.3280   -8.8610 C.3   128  ILE128      0.0266
     60  CG1       16.6910  -49.3610  -10.3290 C.3   128  ILE128      0.0019
     61  CG2       15.9920  -50.7420   -8.3510 C.3   128  ILE128      0.0020
     62  CD1       18.0740  -49.9570  -10.5540 C.3   128  ILE128      0.0001
     63  N         14.5720  -46.2590   -9.6890 N.am  129  ASN129     -0.1974
     64  CA        14.8330  -44.8310   -9.8870 C.3   129  ASN129      0.1688
     65  C         13.6160  -43.9700   -9.5380 C.2   129  ASN129      0.2292
     66  O         13.1830  -43.1380  -10.3250 O.2   129  ASN129     -0.2864
     67  CB        15.2610  -44.5550  -11.3320 C.3   129  ASN129      0.1181
     68  CG        14.1050  -44.6480  -12.3130 C.2   129  ASN129      0.2629
     69  OD1       13.2170  -45.5070  -12.1870 O.2   129  ASN129     -0.2716
     70  ND2       14.1160  -43.7740  -13.3080 N.am  129  ASN129     -0.0877
     71  N         12.3900  -38.2660   -6.1650 N.3   132  LYS132     -0.1245
     72  CA        12.8930  -37.8030   -4.8750 C.3   132  LYS132      0.1561
     73  C         12.8220  -36.2830   -4.8840 C.2   132  LYS132      0.2260
     74  O         13.1140  -35.6590   -5.8960 O.2   132  LYS132     -0.2867
     75  CB        14.3350  -38.2550   -4.6650 C.3   132  LYS132      0.0271
     76  CG        14.4790  -39.7030   -4.2360 C.3   132  LYS132      0.0035
     77  CD        15.6070  -40.4080   -4.9920 C.3   132  LYS132      0.0206
     78  CE        16.9950  -39.9310   -4.5550 C.3   132  LYS132      0.1093
     79  NZ        18.0760  -40.4440   -5.4630 N.3   132  LYS132     -0.1314
     80  N         18.9650  -32.5550  -10.6440 N.3   149  LEU149     -0.1231
     81  CA        18.2500  -33.8290  -10.7540 C.3   149  LEU149      0.1693
     82  C         17.5780  -34.2290   -9.4320 C.2   149  LEU149      0.2591
     83  O         17.7270  -33.5610   -8.4080 O.2   149  LEU149     -0.2718
     84  CB        19.1880  -34.9350  -11.2450 C.3   149  LEU149      0.0284
     85  CG        19.8480  -34.6700  -12.6060 C.3   149  LEU149      0.0019
     86  CD1       20.6120  -35.8900  -13.0620 C.3   149  LEU149      0.0001
     87  CD2       18.8320  -34.2710  -13.6800 C.3   149  LEU149      0.0001
     88  N         16.8240  -35.3170   -9.4750 N.am  150  LYS150     -0.1980
     89  CA        15.9910  -35.7200   -8.3620 C.3   150  LYS150      0.1596
     90  C         16.7690  -35.8520   -7.0450 C.2   150  LYS150      0.2287
     91  O         17.9330  -36.2520   -7.0190 O.2   150  LYS150     -0.2864
     92  CB        15.3110  -37.0460   -8.6870 C.3   150  LYS150      0.0298
     93  CG        16.2920  -38.1780   -8.9240 C.3   150  LYS150      0.0038
     94  CD        15.5740  -39.4990   -9.1850 C.3   150  LYS150      0.0206
     95  CE        16.5420  -40.6070   -9.5820 C.3   150  LYS150      0.1093
     96  NZ        16.6550  -40.7000  -11.0440 N.3   150  LYS150     -0.1314
     97  N         25.8780  -29.7670  -13.3720 N.3   165  VAL165     -0.1245
     98  CA        24.8220  -30.7470  -13.1870 C.3   165  VAL165      0.1561
     99  C         24.9160  -31.2830  -11.7650 C.2   165  VAL165      0.2260
    100  O         25.9570  -31.7970  -11.3690 O.2   165  VAL165     -0.2867
    101  CB        24.9820  -31.9330  -14.1530 C.3   165  VAL165      0.0252
    102  CG1       23.9480  -33.0200  -13.8410 C.3   165  VAL165      0.0019
    103  CG2       24.8550  -31.4700  -15.5810 C.3   165  VAL165      0.0019
    104  N         23.4710  -34.0070   -9.1580 N.3   167  TYR167     -0.1227
    105  CA        22.7790  -35.2880   -9.1410 C.3   167  TYR167      0.1736
    106  C         22.8280  -35.8300   -7.7220 C.2   167  TYR167      0.2595
    107  O         22.2070  -36.8370   -7.4100 O.2   167  TYR167     -0.2718
    108  CB        23.4590  -36.2680  -10.1060 C.3   167  TYR167      0.0548
    109  CG        24.9300  -36.4150   -9.8310 C.ar  167  TYR167     -0.0200
    110  CD1       25.4050  -37.4080   -8.9890 C.ar  167  TYR167     -0.0009
    111  CD2       25.8470  -35.5290  -10.3830 C.ar  167  TYR167     -0.0009
    112  CE1       26.7530  -37.5300   -8.7150 C.ar  167  TYR167      0.0417
    113  CE2       27.1940  -35.6460  -10.1190 C.ar  167  TYR167      0.0417
    114  CZ        27.6410  -36.6460   -9.2840 C.ar  167  TYR167      0.1957
    115  OH        28.9880  -36.7540   -9.0240 O.3   167  TYR167     -0.2866
    116  N         23.5700  -35.1230   -6.8750 N.am  168  LYS168     -0.1980
    117  CA        23.7880  -35.4930   -5.4790 C.3   168  LYS168      0.1596
    118  C         23.6500  -34.2440   -4.5990 C.2   168  LYS168      0.2287
    119  O         23.9680  -33.1400   -5.0250 O.2   168  LYS168     -0.2864
    120  CB        25.2120  -36.0140   -5.3330 C.3   168  LYS168      0.0298
    121  CG        25.3780  -37.2660   -4.5380 C.3   168  LYS168      0.0038
    122  CD        26.8410  -37.7020   -4.5950 C.3   168  LYS168      0.0206
    123  CE        27.7700  -36.4900   -4.4560 C.3   168  LYS168      0.1093
    124  NZ        29.2050  -36.8780   -4.2680 N.3   168  LYS168     -0.1314
    125  N         32.4850  -31.0640  -12.9440 N.3   180  SER180     -0.1203
    126  CA        31.8990  -32.3620  -13.1390 C.3   180  SER180      0.2005
    127  C         32.9490  -33.4260  -12.8580 C.2   180  SER180      0.2460
    128  O         33.9360  -33.5280  -13.5780 O.2   180  SER180     -0.2732
    129  CB        31.4070  -32.4760  -14.5680 C.3   180  SER180      0.2103
    130  OG        30.8340  -33.7440  -14.7990 O.3   180  SER180     -0.2182
    131  N         32.7410  -34.2340  -11.8060 N.am  181  PRO181     -0.2728
    132  CA        31.5620  -34.2230  -10.9520 C.3   181  PRO181      0.1401
    133  C         31.4930  -33.0060  -10.0570 C.2   181  PRO181      0.2269
    134  O         32.4970  -32.6080   -9.4730 O.2   181  PRO181     -0.2865
    135  CB        31.7190  -35.4980  -10.1090 C.3   181  PRO181      0.0296
    136  CG        33.1330  -35.8390  -10.1440 C.3   181  PRO181      0.0237
    137  CD        33.7080  -35.2730  -11.4090 C.3   181  PRO181      0.0939
@<TRIPOS>BOND
     1    45    46   ar
     2    45    43   ar
     3    46    44   ar
     4    43    42   ar
     5    44    42   ar
     6    42    41    1
     7    41    38    1
     8     8     7   ar
     9     7     9   ar
    10     7     6    1
    11    20    18    1
    12    32    31    2
    13    33    34    1
    14    33    30    1
    15    36    35    1
    16    38    37    1
    17    38    39    1
    18     6     5    1
    19    24    23    2
    20     5     2    1
    21    31    37   am
    22    31    30    1
    23    34    35    1
    24    18    19    1
    25    18    17    2
    26    39    40    2
    27    30    29    1
    28    17    16    1
    29    23    29   am
    30    23    22    1
    31   103   101    1
    32     2     1    1
    33     2     3    1
    34    52    54    1
    35    52    51    1
    36   130   129    1
    37    48    47    1
    38    48    51    1
    39    48    49    1
    40   129   126    1
    41    22    25    1
    42    22    21    1
    43    25    26    1
    44    16    15    1
    45    53    51    1
    46     3     4    2
    47   101   102    1
    48   101    98    1
    49    49    50    2
    50    87    85    1
    51   128   127    2
    52    26    27   ar
    53    26    28   ar
    54    97    98    1
    55    70    68   am
    56    98    99    1
    57    15    14    1
    58   126   125    1
    59   126   127    1
    60    86    85    1
    61    14    11    1
    62   127   131   am
    63    85    84    1
    64    68    69    2
    65    68    67    1
    66   131   137    1
    67   131   132    1
    68    99   100    2
    69    11    10    1
    70    11    12    1
    71   137   136    1
    72    67    64    1
    73    84    81    1
    74    96    95    1
    75   132   135    1
    76   132   133    1
    77    81    80    1
    78    81    82    1
    79    62    60    1
    80    12    13    2
    81   111   113   ar
    82   111   109   ar
    83    60    59    1
    84    66    65    2
    85   136   135    1
    86   113   114   ar
    87   108   109    1
    88   108   105    1
    89   133   134    2
    90    64    63    1
    91    64    65    1
    92   109   110   ar
    93    63    57   am
    94    55    56    1
    95    95    94    1
    96    88    82   am
    97    88    89    1
    98    82    83    2
    99   114   115    1
   100   114   112   ar
   101    94    93    1
   102   104   105    1
   103   105   106    1
   104   110   112   ar
   105    57    56    1
   106    57    58    2
   107    93    92    1
   108    59    56    1
   109    59    61    1
   110    92    89    1
   111    89    90    1
   112   106   107    2
   113   106   116   am
   114    90    91    2
   115   116   117    1
   116    71    72    1
   117    74    73    2
   118   117   120    1
   119   117   118    1
   120    79    78    1
   121   120   121    1
   122   119   118    2
   123    77    78    1
   124    77    76    1
   125    73    72    1
   126    72    75    1
   127    75    76    1
   128   122   121    1
   129   122   123    1
   130   123   124    1
