@<TRIPOS>MOLECULE
tmp/2wlfC00.pdb
 121 115 0 0 0
SMALL
GASTEIGER

@<TRIPOS>ATOM
      1  N         18.4570  -16.7200   -7.0360 N.3   104  MET104     -0.1230
      2  CA        18.6740  -16.1280   -8.3410 C.3   104  MET104      0.1702
      3  C         19.0710  -17.2570   -9.2930 C.2   104  MET104      0.2592
      4  O         20.1620  -17.8150   -9.2060 O.2   104  MET104     -0.2718
      5  CB        19.7670  -15.0580   -8.2530 C.3   104  MET104      0.0401
      6  CG        19.9590  -14.2010   -9.5000 C.3   104  MET104      0.0596
      7  SD        21.0890  -12.8140   -9.1920 S.3   104  MET104     -0.1393
      8  CE        22.5250  -13.6360   -8.5520 C.3   104  MET104      0.0692
      9  N         18.1430  -17.6150  -10.1690 N.am  105  LEU105     -0.1966
     10  CA        18.3330  -18.6730  -11.1370 C.3   105  LEU105      0.1728
     11  C         18.4790  -18.0780  -12.5340 C.2   105  LEU105      0.2616
     12  O         17.5280  -17.5360  -13.0870 O.2   105  LEU105     -0.2715
     13  CB        17.1290  -19.6110  -11.1280 C.3   105  LEU105      0.0311
     14  CG        16.9480  -20.5630   -9.9400 C.3   105  LEU105      0.0022
     15  CD1       16.9770  -19.8390   -8.6150 C.3   105  LEU105      0.0001
     16  CD2       15.6320  -21.3350  -10.0760 C.3   105  LEU105      0.0001
     17  N         19.6700  -18.2030  -13.1020 N.am  106  ALA106     -0.1977
     18  CA        19.9640  -17.7150  -14.4490 C.3   106  ALA106      0.1597
     19  C         19.2780  -18.5750  -15.5240 C.2   106  ALA106      0.2287
     20  O         18.9120  -19.7380  -15.2760 O.2   106  ALA106     -0.2864
     21  CB        21.4500  -17.7280  -14.6580 C.3   106  ALA106      0.0319
     22  N         22.2410  -19.1230   -5.7640 N.3   141  TRP141     -0.1241
     23  CA        22.4080  -18.5520   -7.0890 C.3   141  TRP141      0.1605
     24  C         22.8030  -19.6630   -8.0470 C.2   141  TRP141      0.2264
     25  O         23.8240  -20.3250   -7.8520 O.2   141  TRP141     -0.2867
     26  CB        23.4580  -17.4390   -7.0460 C.3   141  TRP141      0.0550
     27  CG        23.9560  -16.9450   -8.3900 C.ar  141  TRP141      0.0003
     28  CD1       23.3730  -17.1270   -9.6100 C.ar  141  TRP141      0.0946
     29  CD2       25.1200  -16.1370   -8.6190 C.ar  141  TRP141      0.0152
     30  NE1       24.1230  -16.5000  -10.5910 N.ar  141  TRP141     -0.2442
     31  CE2       25.1970  -15.8900  -10.0040 C.ar  141  TRP141      0.0810
     32  CE3       26.1200  -15.6200   -7.7860 C.ar  141  TRP141      0.0012
     33  CZ2       26.2220  -15.1520  -10.5700 C.ar  141  TRP141      0.0191
     34  CZ3       27.1470  -14.8730   -8.3610 C.ar  141  TRP141      0.0001
     35  CH2       27.1890  -14.6560   -9.7360 C.ar  141  TRP141      0.0015
     36  N         24.0040  -20.4000  -11.7760 N.3   143  GLY143     -0.1210
     37  CA        24.5560  -19.8340  -13.0060 C.3   143  GLY143      0.1956
     38  C         23.8260  -20.4060  -14.2040 C.2   143  GLY143      0.2611
     39  O         22.8970  -21.1920  -14.0410 O.2   143  GLY143     -0.2717
     40  N         24.2460  -20.0160  -15.4060 N.am  144  ARG144     -0.1979
     41  CA        23.5550  -20.4080  -16.6190 C.3   144  ARG144      0.1597
     42  C         23.4840  -21.9090  -16.7790 C.2   144  ARG144      0.2287
     43  O         24.4240  -22.6230  -16.4420 O.2   144  ARG144     -0.2864
     44  CB        24.2660  -19.8410  -17.8370 C.3   144  ARG144      0.0334
     45  CG        24.0770  -18.3640  -18.0390 C.3   144  ARG144      0.0492
     46  CD        22.8020  -18.0570  -18.8060 C.3   144  ARG144      0.2205
     47  NE        22.5830  -16.6100  -18.8800 N.pl3 144  ARG144     -0.0865
     48  CZ        22.8360  -15.8660  -19.9510 C.cat 144  ARG144      0.5346
     49  NH1       22.6000  -14.5610  -19.9220 N.pl3 144  ARG144      0.1354
     50  NH2       23.3020  -16.4270  -21.0550 N.pl3 144  ARG144      0.1354
     51  N         26.4650  -20.7580   -4.4280 N.3   159  VAL159     -0.1231
     52  CA        26.5230  -20.4180   -5.8350 C.3   159  VAL159      0.1692
     53  C         26.8470  -21.6640   -6.6500 C.2   159  VAL159      0.2592
     54  O         27.8400  -22.3370   -6.3950 O.2   159  VAL159     -0.2718
     55  CB        27.6390  -19.4060   -6.1150 C.3   159  VAL159      0.0266
     56  CG1       27.6030  -18.9760   -7.5800 C.3   159  VAL159      0.0020
     57  CG2       27.5490  -18.2110   -5.1860 C.3   159  VAL159      0.0020
     58  N         26.0300  -21.9750   -7.6450 N.am  160  VAL160     -0.1966
     59  CA        26.3320  -23.1080   -8.5090 C.3   160  VAL160      0.1727
     60  C         26.8580  -22.6100   -9.8500 C.2   160  VAL160      0.2617
     61  O         26.2340  -21.7900  -10.5110 O.2   160  VAL160     -0.2715
     62  CB        25.1130  -24.0290   -8.7070 C.3   160  VAL160      0.0290
     63  CG1       25.4720  -25.2020   -9.6270 C.3   160  VAL160      0.0023
     64  CG2       24.6100  -24.5450   -7.3730 C.3   160  VAL160      0.0023
     65  N         28.0320  -23.0930  -10.2270 N.am  161  GLY161     -0.1940
     66  CA        28.7160  -22.6330  -11.4190 C.3   161  GLY161      0.2014
     67  C         27.9800  -22.8800  -12.7190 C.2   161  GLY161      0.2639
     68  O         27.1720  -23.8000  -12.8440 O.2   161  GLY161     -0.2714
     69  N         28.2870  -22.0460  -13.6980 N.am  162  SER162     -0.1949
     70  CA        27.7540  -22.1610  -15.0560 C.3   162  SER162      0.1924
     71  C         27.8540  -23.6030  -15.5860 C.2   162  SER162      0.2314
     72  O         28.9150  -24.2000  -15.5370 O.2   162  SER162     -0.2863
     73  CB        28.5240  -21.1760  -15.9500 C.3   162  SER162      0.2116
     74  OG        28.2280  -21.3090  -17.3300 O.3   162  SER162     -0.2180
     75  N         30.8390  -22.2570   -3.1610 N.3   176  VAL176     -0.1245
     76  CA        30.6340  -22.3380   -4.5990 C.3   176  VAL176      0.1561
     77  C         30.7810  -23.7790   -5.0310 C.2   176  VAL176      0.2260
     78  O         31.7680  -24.4230   -4.7100 O.2   176  VAL176     -0.2867
     79  CB        31.6900  -21.5320   -5.3730 C.3   176  VAL176      0.0252
     80  CG1       31.4270  -21.6430   -6.8640 C.3   176  VAL176      0.0019
     81  CG2       31.6920  -20.0820   -4.9430 C.3   176  VAL176      0.0019
     82  N         30.8970  -26.3310   -8.3160 N.3   178  ALA178     -0.1231
     83  CA        31.0770  -26.3520   -9.7580 C.3   178  ALA178      0.1694
     84  C         31.7700  -27.6170  -10.2120 C.2   178  ALA178      0.2593
     85  O         32.1940  -28.4430   -9.3960 O.2   178  ALA178     -0.2718
     86  CB        31.8730  -25.1520  -10.2030 C.3   178  ALA178      0.0304
     87  N         31.8700  -27.7440  -11.5330 N.am  179  GLY179     -0.1942
     88  CA        32.6270  -28.7990  -12.1740 C.3   179  GLY179      0.2014
     89  C         31.8220  -30.0620  -12.3810 C.2   179  GLY179      0.2639
     90  O         30.6420  -30.1350  -12.0270 O.2   179  GLY179     -0.2714
     91  N         32.4850  -31.0640  -12.9440 N.am  180  SER180     -0.1949
     92  CA        31.8990  -32.3620  -13.1390 C.3   180  SER180      0.1924
     93  C         32.9490  -33.4260  -12.8580 C.2   180  SER180      0.2314
     94  O         33.9360  -33.5280  -13.5780 O.2   180  SER180     -0.2863
     95  CB        31.4070  -32.4760  -14.5680 C.3   180  SER180      0.2116
     96  OG        30.8340  -33.7440  -14.7990 O.3   180  SER180     -0.2180
     97  N         31.3000  -30.2840   -7.3160 N.3   183  LYS183     -0.1245
     98  CA        32.1630  -30.3130   -6.1750 C.3   183  LYS183      0.1561
     99  C         32.2230  -28.9140   -5.5890 C.2   183  LYS183      0.2260
    100  O         32.0190  -27.9350   -6.3040 O.2   183  LYS183     -0.2867
    101  CB        33.5380  -30.6860   -6.6660 C.3   183  LYS183      0.0271
    102  CG        34.2570  -31.7080   -5.8550 C.3   183  LYS183      0.0035
    103  CD        35.7420  -31.4740   -6.0600 C.3   183  LYS183      0.0206
    104  CE        35.9590  -30.7370   -7.3770 C.3   183  LYS183      0.1093
    105  NZ        36.9790  -29.6660   -7.2390 N.3   183  LYS183     -0.1314
    106  N         34.1400  -25.8560   -4.7590 N.3   185  VAL185     -0.1231
    107  CA        35.4030  -25.3390   -5.2820 C.3   185  VAL185      0.1692
    108  C         35.8510  -24.0910   -4.5420 C.2   185  VAL185      0.2591
    109  O         36.9740  -23.6370   -4.7110 O.2   185  VAL185     -0.2718
    110  CB        35.3220  -25.0100   -6.7920 C.3   185  VAL185      0.0266
    111  CG1       35.2100  -26.2740   -7.6120 C.3   185  VAL185      0.0020
    112  CG2       34.1550  -24.0640   -7.0740 C.3   185  VAL185      0.0020
    113  N         34.9580  -23.5300   -3.7370 N.am  186  LYS186     -0.1980
    114  CA        35.3020  -22.3880   -2.9010 C.3   186  LYS186      0.1596
    115  C         34.3930  -22.3440   -1.6810 C.2   186  LYS186      0.2287
    116  O         33.1890  -22.5880   -1.7810 O.2   186  LYS186     -0.2864
    117  CB        35.2070  -21.0900   -3.7060 C.3   186  LYS186      0.0298
    118  CG        35.5160  -19.8230   -2.9180 C.3   186  LYS186      0.0038
    119  CD        36.4080  -18.8250   -3.6960 C.3   186  LYS186      0.0206
    120  CE        36.3220  -18.9850   -5.2220 C.3   186  LYS186      0.1093
    121  NZ        36.6390  -17.7110   -5.9590 N.3   186  LYS186     -0.1314
@<TRIPOS>BOND
     1    50    48    1
     2    48    49    1
     3    48    47    2
     4    47    46    1
     5    46    45    1
     6    45    44    1
     7    44    41    1
     8    74    73    1
     9    42    41    1
    10    42    43    2
    11    41    40    1
    12    73    70    1
    13    71    72    2
    14    71    70    1
    15    19    20    2
    16    19    18    1
    17    40    38   am
    18    70    69    1
    19    96    95    1
    20    21    18    1
    21    95    92    1
    22    18    17    1
    23    38    39    2
    24    38    37    1
    25    69    67   am
    26    94    93    2
    27    92    91    1
    28    92    93    1
    29    17    11   am
    30    12    11    2
    31    37    36    1
    32    91    89   am
    33    68    67    2
    34    67    66    1
    35    11    10    1
    36    89    88    1
    37    89    90    2
    38    88    87    1
    39    87    84   am
    40    66    65    1
    41    10    13    1
    42    10     9    1
    43    13    14    1
    44    30    31   ar
    45    30    28   ar
    46    33    31   ar
    47    33    35   ar
    48    61    60    2
    49    65    60   am
    50    84    83    1
    51    84    85    2
    52    86    83    1
    53     9     3   am
    54    16    14    1
    55    31    29   ar
    56    14    15    1
    57    60    59    1
    58    83    82    1
    59    35    34   ar
    60    63    62    1
    61    28    27   ar
    62     6     7    1
    63     6     5    1
    64     3     4    2
    65     3     2    1
    66     7     8    1
    67    62    59    1
    68    62    64    1
    69    29    27   ar
    70    29    32   ar
    71    59    58    1
    72    27    26    1
    73    34    32   ar
    74     2     5    1
    75     2     1    1
    76    24    25    2
    77    24    23    1
    78    58    53   am
    79   111   110    1
    80    56    55    1
    81   104   105    1
    82   104   103    1
    83    97    98    1
    84    23    26    1
    85    23    22    1
    86   112   110    1
    87    80    79    1
    88   110   107    1
    89   101    98    1
    90   101   102    1
    91    53    54    2
    92    53    52    1
    93   100    99    2
    94    98    99    1
    95    55    52    1
    96    55    57    1
    97   103   102    1
    98   121   120    1
    99    52    51    1
   100    79    81    1
   101    79    76    1
   102   107   106    1
   103   107   108    1
   104   120   119    1
   105    77    78    2
   106    77    76    1
   107   109   108    2
   108    76    75    1
   109   108   113   am
   110   113   114    1
   111   117   118    1
   112   117   114    1
   113   119   118    1
   114   114   115    1
   115   116   115    2
