@<TRIPOS>MOLECULE
tmp/2wlqA01.pdb
 144 137 0 0 0
SMALL
GASTEIGER

@<TRIPOS>ATOM
      1  N          7.5450   21.2020   45.7120 N.3    26  PRO26      -0.2102
      2  CA         8.2370   19.9560   46.0300 C.3    26  PRO26       0.1504
      3  C          7.2840   18.7580   46.0860 C.2    26  PRO26       0.2576
      4  O          7.7380   17.6140   45.9450 O.2    26  PRO26      -0.2718
      5  CB         8.8680   20.2400   47.4070 C.3    26  PRO26       0.0282
      6  CG         8.9520   21.7030   47.5100 C.3    26  PRO26       0.0208
      7  CD         7.7440   22.2200   46.7630 C.3    26  PRO26       0.0893
      8  N          5.9850   18.9920   46.3190 N.am   27  THR27      -0.1953
      9  CA         4.9860   17.9220   46.3610 C.3    27  THR27       0.1897
     10  C          4.2450   17.7500   45.0300 C.2    27  THR27       0.2313
     11  O          3.2410   17.0450   44.9560 O.2    27  THR27      -0.2863
     12  CB         3.9960   18.0940   47.5510 C.3    27  THR27       0.1794
     13  OG1        3.4470   19.4280   47.5470 O.3    27  THR27      -0.2208
     14  CG2        4.7070   17.8730   48.8840 C.3    27  THR27       0.0378
     15  N          3.1790   30.3840   48.9630 N.3    73  ARG73      -0.1245
     16  CA         3.8880   29.6310   50.0060 C.3    73  ARG73       0.1563
     17  C          4.8230   30.6110   50.6840 C.2    73  ARG73       0.2260
     18  O          5.7440   31.1090   50.0410 O.2    73  ARG73      -0.2867
     19  CB         4.6810   28.4840   49.3670 C.3    73  ARG73       0.0307
     20  CG         5.6530   27.7680   50.2930 C.3    73  ARG73       0.0489
     21  CD         6.0590   26.4470   49.7180 C.3    73  ARG73       0.2205
     22  NE         7.2470   25.8960   50.3930 N.pl3  73  ARG73      -0.0865
     23  CZ         7.5250   24.5940   50.4580 C.cat  73  ARG73       0.5346
     24  NH1        6.6880   23.7050   49.9450 N.pl3  73  ARG73       0.1354
     25  NH2        8.6620   24.2030   51.0270 N.pl3  73  ARG73       0.1354
     26  N         -4.8270   21.4560   49.3290 N.3    99  TRP99      -0.1241
     27  CA        -3.9000   20.8390   50.2780 C.3    99  TRP99       0.1605
     28  C         -3.1620   21.9950   50.9730 C.2    99  TRP99       0.2264
     29  O         -2.0510   22.3820   50.5700 O.2    99  TRP99      -0.2867
     30  CB        -2.9700   19.9010   49.5180 C.3    99  TRP99       0.0550
     31  CG        -1.9100   19.2120   50.3380 C.ar   99  TRP99       0.0003
     32  CD1       -1.7460   19.2380   51.6990 C.ar   99  TRP99       0.0946
     33  CD2       -0.8830   18.3520   49.8230 C.ar   99  TRP99       0.0152
     34  NE1       -0.6350   18.4870   52.0540 N.ar   99  TRP99      -0.2442
     35  CE2       -0.0960   17.9310   50.9150 C.ar   99  TRP99       0.0810
     36  CE3       -0.5260   17.9410   48.5300 C.ar   99  TRP99       0.0012
     37  CZ2        1.0310   17.1110   50.7540 C.ar   99  TRP99       0.0191
     38  CZ3        0.5660   17.0920   48.3800 C.ar   99  TRP99       0.0001
     39  CH2        1.3230   16.6870   49.4760 C.ar   99  TRP99       0.0015
     40  N         -1.3580   23.8960   54.3420 N.3   101  ALA101     -0.1245
     41  CA        -0.5720   23.4630   55.4880 C.3   101  ALA101      0.1562
     42  C          0.0510   24.6550   56.1990 C.2   101  ALA101      0.2260
     43  O          0.3880   25.6790   55.5760 O.2   101  ALA101     -0.2867
     44  CB         0.5230   22.5330   55.0240 C.3   101  ALA101      0.0290
     45  N          3.2370   24.6800   58.9100 N.3   103  TRP103     -0.1241
     46  CA         4.2210   23.6890   59.3200 C.3   103  TRP103      0.1605
     47  C          5.5860   24.2950   59.5230 C.2   103  TRP103      0.2264
     48  O          5.7580   25.4900   59.3430 O.2   103  TRP103     -0.2867
     49  CB         4.2430   22.5680   58.2890 C.3   103  TRP103      0.0550
     50  CG         4.5300   22.9710   56.8580 C.ar  103  TRP103      0.0003
     51  CD1        3.7670   23.7950   56.0570 C.ar  103  TRP103      0.0946
     52  CD2        5.6190   22.5270   56.0570 C.ar  103  TRP103      0.0152
     53  NE1        4.3180   23.8670   54.7970 N.ar  103  TRP103     -0.2442
     54  CE2        5.4670   23.1180   54.7740 C.ar  103  TRP103      0.0810
     55  CE3        6.7210   21.6830   56.2890 C.ar  103  TRP103      0.0012
     56  CZ2        6.3560   22.8580   53.7140 C.ar  103  TRP103      0.0191
     57  CZ3        7.6070   21.4300   55.2230 C.ar  103  TRP103      0.0001
     58  CH2        7.4230   22.0260   53.9680 C.ar  103  TRP103      0.0015
     59  N          9.9630   23.4350   59.0010 N.3   105  THR105     -0.1218
     60  CA        10.9960   22.5440   58.4310 C.3   105  THR105      0.1862
     61  C         12.2850   23.2820   58.1700 C.2   105  THR105      0.2287
     62  O         12.3160   24.5000   58.2570 O.2   105  THR105     -0.2866
     63  CB        10.5100   21.9170   57.1160 C.3   105  THR105      0.1770
     64  OG1       11.3730   20.8290   56.7560 O.3   105  THR105     -0.2211
     65  CG2       10.4840   22.9250   55.9810 C.3   105  THR105      0.0375
     66  N         14.2170   23.3360   54.8810 N.3   107  GLU107     -0.1245
     67  CA        14.1660   22.8330   53.4990 C.3   107  GLU107      0.1567
     68  C         15.5270   22.3890   53.0010 C.2   107  GLU107      0.2260
     69  O         15.6100   21.4580   52.1910 O.2   107  GLU107     -0.2867
     70  CB        13.6070   23.8860   52.5370 C.3   107  GLU107      0.0388
     71  CG        12.1660   24.2750   52.8190 C.3   107  GLU107      0.1160
     72  CD        11.8420   25.6410   52.2870 C.2   107  GLU107      0.3649
     73  OE1       12.3700   26.6210   52.8540 O.co2 107  GLU107     -0.2457
     74  OE2       11.0820   25.7280   51.2940 O.co2 107  GLU107     -0.2457
     75  N         16.1930   18.6240   54.1710 N.3   110  TRP110     -0.1241
     76  CA        15.0390   17.7610   54.4150 C.3   110  TRP110      0.1605
     77  C         15.3730   16.3320   53.9500 C.2   110  TRP110      0.2264
     78  O         15.9850   16.1640   52.8930 O.2   110  TRP110     -0.2867
     79  CB        13.8200   18.3350   53.6760 C.3   110  TRP110      0.0550
     80  CG        12.5490   17.6770   54.0630 C.ar  110  TRP110      0.0003
     81  CD1       11.6520   18.1130   54.9920 C.ar  110  TRP110      0.0946
     82  CD2       12.0210   16.4540   53.5310 C.ar  110  TRP110      0.0152
     83  NE1       10.5900   17.2300   55.0860 N.ar  110  TRP110     -0.2442
     84  CE2       10.7960   16.2040   54.1940 C.ar  110  TRP110      0.0810
     85  CE3       12.4730   15.5390   52.5710 C.ar  110  TRP110      0.0012
     86  CZ2       10.0070   15.0820   53.9090 C.ar  110  TRP110      0.0191
     87  CZ3       11.6930   14.4160   52.2990 C.ar  110  TRP110      0.0001
     88  CH2       10.4870   14.1910   52.9690 C.ar  110  TRP110      0.0015
     89  N         10.4920   17.7720   59.7880 N.3   115  SER115     -0.1217
     90  CA         9.3630   18.6790   59.5490 C.3   115  SER115      0.1889
     91  C          8.2430   18.2960   60.5080 C.2   115  SER115      0.2288
     92  O          8.0850   17.1210   60.8460 O.2   115  SER115     -0.2866
     93  CB         8.8830   18.6660   58.1060 C.3   115  SER115      0.2089
     94  OG         8.4180   17.3990   57.7200 O.3   115  SER115     -0.2183
     95  N          4.1340   19.1440   60.8860 N.3   117  ASP117     -0.1239
     96  CA         2.8930   19.6840   60.3230 C.3   117  ASP117      0.1674
     97  C          1.9380   19.9970   61.4820 C.2   117  ASP117      0.2266
     98  O          1.6050   19.1080   62.2670 O.2   117  ASP117     -0.2867
     99  CB         2.2580   18.6590   59.3730 C.3   117  ASP117      0.1410
    100  CG         3.0230   18.5160   58.0620 C.2   117  ASP117      0.3668
    101  OD1        2.9230   19.4320   57.2030 O.co2 117  ASP117     -0.2456
    102  OD2        3.6850   17.4750   57.8680 O.co2 117  ASP117     -0.2456
    103  N         -2.7830   20.4820   58.5940 N.3   120  GLU120     -0.1245
    104  CA        -2.6050   19.8710   57.2720 C.3   120  GLU120      0.1567
    105  C         -3.7830   18.9780   56.9700 C.2   120  GLU120      0.2260
    106  O         -4.2810   18.2770   57.8420 O.2   120  GLU120     -0.2867
    107  CB        -1.3030   19.0660   57.1960 C.3   120  GLU120      0.0388
    108  CG        -0.9080   18.7760   55.7490 C.3   120  GLU120      0.1160
    109  CD         0.2540   17.8090   55.6050 C.2   120  GLU120      0.3649
    110  OE1        0.5880   17.0880   56.5810 O.co2 120  GLU120     -0.2457
    111  OE2        0.8180   17.7750   54.4860 O.co2 120  GLU120     -0.2457
    112  N          7.8590   14.2750   60.0690 N.3   133  HIS133     -0.1241
    113  CA         8.6670   13.5330   59.0580 C.3   133  HIS133      0.1621
    114  C         10.1220   13.6970   59.4320 C.2   133  HIS133      0.2264
    115  O         10.5820   14.8260   59.6550 O.2   133  HIS133     -0.2867
    116  CB         8.4390   14.1000   57.6460 C.3   133  HIS133      0.0745
    117  CG         7.0500   13.8740   57.1260 C.ar  133  HIS133      0.0817
    118  ND1        6.7270   12.8640   56.2390 N.ar  133  HIS133     -0.2268
    119  CD2        5.8990   14.5230   57.3930 C.ar  133  HIS133      0.1154
    120  CE1        5.4270   12.9040   55.9930 C.ar  133  HIS133      0.1986
    121  NE2        4.8990   13.9080   56.6710 N.ar  133  HIS133     -0.2212
    122  N          6.5680    7.6670   53.2810 N.3   162  ASN162     -0.1240
    123  CA         6.4250    9.1110   53.4040 C.3   162  ASN162      0.1653
    124  C          5.1470    9.5390   54.1360 C.2   162  ASN162      0.2266
    125  O          4.7650   10.6960   54.0490 O.2   162  ASN162     -0.2867
    126  CB         6.5410    9.7950   52.0310 C.3   162  ASN162      0.1155
    127  CG         6.8020   11.2900   52.1360 C.2   162  ASN162      0.2627
    128  OD1        7.5850   11.7440   52.9810 O.2   162  ASN162     -0.2716
    129  ND2        6.1430   12.0640   51.2800 N.am  162  ASN162     -0.0877
    130  N          1.2560   27.5130   53.4430 N.3   250  ASN250     -0.1240
    131  CA         1.0960   27.3830   51.9940 C.3   250  ASN250      0.1653
    132  C         -0.2480   26.8010   51.6040 C.2   250  ASN250      0.2266
    133  O         -1.0210   26.2870   52.4330 O.2   250  ASN250     -0.2867
    134  CB         2.2220   26.5110   51.4110 C.3   250  ASN250      0.1155
    135  CG         2.0830   25.0670   51.8120 C.2   250  ASN250      0.2627
    136  OD1        2.4760   24.6920   52.9150 O.2   250  ASN250     -0.2716
    137  ND2        1.4990   24.2380   50.9390 N.am  250  ASN250     -0.0877
    138  N         -1.2510   24.2470   48.2910 N.3   252  THR252     -0.1218
    139  CA        -1.0560   23.5790   47.0180 C.3   252  THR252      0.1862
    140  C         -2.3440   22.8880   46.6230 C.2   252  THR252      0.2287
    141  O         -3.3580   22.9430   47.3360 O.2   252  THR252     -0.2866
    142  CB         0.2320   22.6850   46.9750 C.3   252  THR252      0.1770
    143  OG1        0.5170   22.3600   45.6110 O.3   252  THR252     -0.2211
    144  CG2        0.0860   21.4110   47.8040 C.3   252  THR252      0.0375
@<TRIPOS>BOND
     1    11    10    2
     2    10     9    1
     3   143   142    1
     4     1     2    1
     5     1     7    1
     6     4     3    2
     7     2     3    1
     8     2     5    1
     9     3     8   am
    10     8     9    1
    11     9    12    1
    12   140   139    1
    13   140   141    2
    14     7     6    1
    15   142   139    1
    16   142   144    1
    17   139   138    1
    18     5     6    1
    19    13    12    1
    20    12    14    1
    21    38    36   ar
    22    38    39   ar
    23    36    33   ar
    24    15    16    1
    25    26    27    1
    26    19    16    1
    27    19    20    1
    28    39    37   ar
    29    30    27    1
    30    30    31    1
    31    21    20    1
    32    21    22    1
    33    33    31   ar
    34    33    35   ar
    35    24    23    1
    36    16    17    1
    37    18    17    2
    38    27    28    1
    39    31    32   ar
    40    22    23    2
    41    23    25    1
    42    29    28    2
    43    37    35   ar
    44    35    34   ar
    45   137   135   am
    46   129   127   am
    47    74    72   ar
    48   134   135    1
    49   134   131    1
    50   132   131    1
    51   132   133    2
    52    32    34   ar
    53   135   136    2
    54   131   130    1
    55   126   127    1
    56   126   123    1
    57   127   128    2
    58    69    68    2
    59    72    71    1
    60    72    73   ar
    61    87    85   ar
    62    87    88   ar
    63    70    71    1
    64    70    67    1
    65    85    82   ar
    66    78    77    2
    67    88    86   ar
    68    68    67    1
    69   122   123    1
    70   123   124    1
    71    67    66    1
    72    82    80   ar
    73    82    84   ar
    74    79    80    1
    75    79    76    1
    76    56    58   ar
    77    56    54   ar
    78    86    84   ar
    79    77    76    1
    80    58    57   ar
    81   125   124    2
    82    80    81   ar
    83    75    76    1
    84    84    83   ar
    85    40    41    1
    86   111   109   ar
    87    54    53   ar
    88    54    52   ar
    89    53    51   ar
    90    81    83   ar
    91    44    41    1
    92    57    55   ar
    93    41    42    1
    94    43    42    2
    95   109   108    1
    96   109   110   ar
    97   108   107    1
    98    65    63    1
    99   120   118   ar
   100   120   121   ar
   101    52    55   ar
   102    52    50   ar
   103    51    50   ar
   104   118   117   ar
   105   121   119   ar
   106    64    63    1
   107    50    49    1
   108   105   104    1
   109   105   106    2
   110    63    60    1
   111   117   119   ar
   112   117   116    1
   113   107   104    1
   114   101   100   ar
   115   104   103    1
   116   116   113    1
   117    94    93    1
   118   102   100   ar
   119   100    99    1
   120    93    90    1
   121    61    62    2
   122    61    60    1
   123    49    46    1
   124    60    59    1
   125    45    46    1
   126   113   114    1
   127   113   112    1
   128    46    47    1
   129    48    47    2
   130    99    96    1
   131   114   115    2
   132    90    89    1
   133    90    91    1
   134    96    95    1
   135    96    97    1
   136    91    92    2
   137    97    98    2
