@<TRIPOS>MOLECULE
tmp/2wlsB00.pdb
 225 225 0 0 0
SMALL
GASTEIGER

@<TRIPOS>ATOM
      1  N         11.8170   -9.9050  -46.9530 N.3    69  TYR69      -0.1241
      2  CA        11.5760  -10.9810  -46.0030 C.3    69  TYR69       0.1605
      3  C         10.1000  -11.0800  -45.6090 C.2    69  TYR69       0.2264
      4  O          9.3930  -10.0680  -45.5190 O.2    69  TYR69      -0.2867
      5  CB        12.4310  -10.7260  -44.7690 C.3    69  TYR69       0.0534
      6  CG        12.2080  -11.6870  -43.6320 C.ar   69  TYR69      -0.0201
      7  CD1       11.4370  -11.3220  -42.5280 C.ar   69  TYR69      -0.0009
      8  CD2       12.7840  -12.9530  -43.6470 C.ar   69  TYR69      -0.0009
      9  CE1       11.2380  -12.1990  -41.4760 C.ar   69  TYR69       0.0417
     10  CE2       12.5950  -13.8370  -42.6010 C.ar   69  TYR69       0.0417
     11  CZ        11.8230  -13.4560  -41.5160 C.ar   69  TYR69       0.1957
     12  OH        11.6350  -14.3340  -40.4730 O.3    69  TYR69      -0.2866
     13  N          7.3140  -12.6710  -42.7030 N.3    71  ASP71      -0.1239
     14  CA         7.3140  -13.0440  -41.2910 C.3    71  ASP71       0.1674
     15  C          6.6940  -14.4080  -41.0320 C.2    71  ASP71       0.2266
     16  O          5.6920  -14.7760  -41.6420 O.2    71  ASP71      -0.2867
     17  CB         6.6020  -11.9860  -40.4440 C.3    71  ASP71       0.1410
     18  CG         6.9570  -12.0870  -38.9710 C.2    71  ASP71       0.3668
     19  OD1        6.1040  -12.5510  -38.1720 O.co2  71  ASP71      -0.2456
     20  OD2        8.1010  -11.7180  -38.6180 O.co2  71  ASP71      -0.2456
     21  N          0.8460   -7.0440  -41.2740 N.3    83  TRP83      -0.1241
     22  CA         2.0460   -6.3460  -41.7070 C.3    83  TRP83       0.1605
     23  C          2.7090   -7.0240  -42.8990 C.2    83  TRP83       0.2264
     24  O          3.5440   -6.4050  -43.5650 O.2    83  TRP83      -0.2867
     25  CB         3.0330   -6.1980  -40.5450 C.3    83  TRP83       0.0550
     26  CG         2.3920   -5.5480  -39.3740 C.ar   83  TRP83       0.0003
     27  CD1        2.1030   -6.1220  -38.1760 C.ar   83  TRP83       0.0946
     28  CD2        1.8950   -4.2050  -39.3080 C.ar   83  TRP83       0.0152
     29  NE1        1.4690   -5.2200  -37.3640 N.ar   83  TRP83      -0.2442
     30  CE2        1.3330   -4.0320  -38.0330 C.ar   83  TRP83       0.0810
     31  CE3        1.8900   -3.1270  -40.2000 C.ar   83  TRP83       0.0012
     32  CZ2        0.7720   -2.8140  -37.6150 C.ar   83  TRP83       0.0191
     33  CZ3        1.3300   -1.9150  -39.7880 C.ar   83  TRP83       0.0001
     34  CH2        0.7750   -1.7730  -38.5100 C.ar   83  TRP83       0.0015
     35  N          6.6390    1.9220  -42.8580 N.3   117  GLY117     -0.1210
     36  CA         7.7880    1.4340  -42.1160 C.3   117  GLY117      0.1956
     37  C          7.8860   -0.0780  -42.1910 C.2   117  GLY117      0.2612
     38  O          7.1380   -0.7270  -42.9220 O.2   117  GLY117     -0.2717
     39  N          8.8100   -0.6470  -41.4310 N.am  118  GLY118     -0.1942
     40  CA         9.0690   -2.0690  -41.4950 C.3   118  GLY118      0.2014
     41  C         10.5510   -2.3570  -41.3560 C.2   118  GLY118      0.2639
     42  O         11.0780   -3.2790  -41.9830 O.2   118  GLY118     -0.2714
     43  N         11.2300   -1.5510  -40.5460 N.am  119  GLY119     -0.1954
     44  CA        12.6400   -1.7600  -40.2720 C.3   119  GLY119      0.1869
     45  C         13.5470   -1.6350  -41.4830 C.2   119  GLY119      0.2309
     46  O         14.7170   -2.0120  -41.4280 O.2   119  GLY119     -0.2863
     47  N         13.3580   -3.3230  -44.0490 N.3   121  TYR121     -0.1227
     48  CA        13.5380   -4.6570  -44.6440 C.3   121  TYR121      0.1736
     49  C         12.1960   -5.2270  -45.1280 C.2   121  TYR121      0.2596
     50  O         12.1420   -6.3210  -45.7080 O.2   121  TYR121     -0.2718
     51  CB        14.1650   -5.6260  -43.6340 C.3   121  TYR121      0.0548
     52  CG        13.1800   -6.0380  -42.5670 C.ar  121  TYR121     -0.0200
     53  CD1       12.2910   -7.0900  -42.7800 C.ar  121  TYR121     -0.0009
     54  CD2       13.1120   -5.3550  -41.3540 C.ar  121  TYR121     -0.0009
     55  CE1       11.3720   -7.4590  -41.8190 C.ar  121  TYR121      0.0417
     56  CE2       12.1940   -5.7130  -40.3850 C.ar  121  TYR121      0.0417
     57  CZ        11.3260   -6.7700  -40.6240 C.ar  121  TYR121      0.1957
     58  OH        10.4100   -7.1270  -39.6610 O.3   121  TYR121     -0.2866
     59  N         11.1190   -4.4860  -44.8760 N.am  122  SER122     -0.1938
     60  CA         9.7810   -4.9480  -45.2050 C.3   122  SER122      0.2055
     61  C          8.8390   -3.7670  -45.3280 C.2   122  SER122      0.2643
     62  O          9.2620   -2.6270  -45.1760 O.2   122  SER122     -0.2714
     63  CB         9.2750   -5.9260  -44.1460 C.3   122  SER122      0.2130
     64  OG         9.1110   -5.2980  -42.8880 O.3   122  SER122     -0.2179
     65  N          7.5660   -4.0520  -45.6010 N.am  123  GLY123     -0.1954
     66  CA         6.5530   -3.0290  -45.8090 C.3   123  GLY123      0.1869
     67  C          6.0120   -2.9370  -47.2300 C.2   123  GLY123      0.2309
     68  O          6.6870   -3.2930  -48.1990 O.2   123  GLY123     -0.2863
     69  N         -1.0130   -2.3810  -47.8110 N.3   127  LEU127     -0.1245
     70  CA        -1.5740   -2.9370  -46.5930 C.3   127  LEU127      0.1561
     71  C         -2.8520   -2.2090  -46.2830 C.2   127  LEU127      0.2260
     72  O         -3.0060   -1.0290  -46.6110 O.2   127  LEU127     -0.2867
     73  CB        -0.6120   -2.7930  -45.4160 C.3   127  LEU127      0.0270
     74  CG         0.7560   -3.4570  -45.5780 C.3   127  LEU127      0.0019
     75  CD1        1.5210   -3.3790  -44.2650 C.3   127  LEU127      0.0001
     76  CD2        0.5840   -4.8890  -46.0360 C.3   127  LEU127      0.0001
     77  N         -3.0380    1.0840  -44.3830 N.3   130  TYR130     -0.1241
     78  CA        -2.6490    2.3000  -45.1000 C.3   130  TYR130      0.1605
     79  C         -3.6500    2.6750  -46.1700 C.2   130  TYR130      0.2264
     80  O         -3.3050    3.3480  -47.1390 O.2   130  TYR130     -0.2867
     81  CB        -1.2710    2.1710  -45.7590 C.3   130  TYR130      0.0534
     82  CG        -0.1820    1.6020  -44.8880 C.ar  130  TYR130     -0.0201
     83  CD1       -0.1820    1.7920  -43.5100 C.ar  130  TYR130     -0.0009
     84  CD2        0.8590    0.8810  -45.4510 C.ar  130  TYR130     -0.0009
     85  CE1        0.8200    1.2620  -42.7210 C.ar  130  TYR130      0.0417
     86  CE2        1.8700    0.3550  -44.6760 C.ar  130  TYR130      0.0417
     87  CZ         1.8520    0.5480  -43.3110 C.ar  130  TYR130      0.1957
     88  OH         2.8700    0.0190  -42.5480 O.3   130  TYR130     -0.2866
     89  N          5.6630    6.1520  -40.3670 N.3   199  GLU199     -0.1231
     90  CA         5.7730    5.4910  -39.0750 C.3   199  GLU199      0.1699
     91  C          6.9590    4.5100  -39.0430 C.2   199  GLU199      0.2592
     92  O          7.3320    3.9520  -40.0680 O.2   199  GLU199     -0.2718
     93  CB         4.4550    4.7900  -38.7640 C.3   199  GLU199      0.0402
     94  CG         4.3260    4.2320  -37.3600 C.3   199  GLU199      0.1161
     95  CD         4.8220    2.8080  -37.2550 C.2   199  GLU199      0.3649
     96  OE1        5.1470    2.2030  -38.3010 O.co2 199  GLU199     -0.2457
     97  OE2        4.8840    2.2900  -36.1210 O.co2 199  GLU199     -0.2457
     98  N          7.5590    4.3200  -37.8670 N.am  200  SER200     -0.1952
     99  CA         8.7640    3.4940  -37.7230 C.3   200  SER200      0.1924
    100  C          9.8370    3.9060  -38.7550 C.2   200  SER200      0.2314
    101  O         10.2100    5.0760  -38.8140 O.2   200  SER200     -0.2863
    102  CB         8.4200    1.9970  -37.8150 C.3   200  SER200      0.2116
    103  OG         9.5700    1.1750  -37.6200 O.3   200  SER200     -0.2180
    104  N         19.3650  -11.6400  -42.4840 N.3   276  TRP276     -0.1227
    105  CA        19.4460  -11.5490  -41.0350 C.3   276  TRP276      0.1737
    106  C         20.7290  -12.0790  -40.4030 C.2   276  TRP276      0.2595
    107  O         20.8270  -12.1440  -39.1790 O.2   276  TRP276     -0.2718
    108  CB        18.2620  -12.2830  -40.4140 C.3   276  TRP276      0.0564
    109  CG        16.9680  -11.5920  -40.6480 C.ar  276  TRP276      0.0003
    110  CD1       15.9650  -11.9930  -41.4770 C.ar  276  TRP276      0.0946
    111  CD2       16.5300  -10.3630  -40.0500 C.ar  276  TRP276      0.0152
    112  NE1       14.9240  -11.0970  -41.4290 N.ar  276  TRP276     -0.2442
    113  CE2       15.2460  -10.0860  -40.5610 C.ar  276  TRP276      0.0810
    114  CE3       17.0970   -9.4730  -39.1310 C.ar  276  TRP276      0.0012
    115  CZ2       14.5200   -8.9510  -40.1880 C.ar  276  TRP276      0.0191
    116  CZ3       16.3770   -8.3520  -38.7610 C.ar  276  TRP276      0.0001
    117  CH2       15.1010   -8.1000  -39.2890 C.ar  276  TRP276      0.0015
    118  N         21.7100  -12.4600  -41.2070 N.am  277  HIS277     -0.1975
    119  CA        22.8950  -13.0950  -40.6340 C.3   277  HIS277      0.1656
    120  C         24.1300  -12.2360  -40.7430 C.2   277  HIS277      0.2291
    121  O         25.2410  -12.7330  -40.6050 O.2   277  HIS277     -0.2864
    122  CB        23.1730  -14.4540  -41.2770 C.3   277  HIS277      0.0771
    123  CG        21.9870  -15.3570  -41.2980 C.ar  277  HIS277      0.0820
    124  ND1       21.7620  -16.2650  -42.3100 N.ar  277  HIS277     -0.2267
    125  CD2       20.9410  -15.4720  -40.4460 C.ar  277  HIS277      0.1154
    126  CE1       20.6380  -16.9170  -42.0680 C.ar  277  HIS277      0.1986
    127  NE2       20.1170  -16.4510  -40.9460 N.ar  277  HIS277     -0.2212
    128  N         17.8800   -6.9350  -30.6560 N.3   284  ILE284     -0.1231
    129  CA        16.5270   -6.6080  -31.0880 C.3   284  ILE284      0.1692
    130  C         16.4590   -5.1640  -31.5300 C.2   284  ILE284      0.2592
    131  O         17.2830   -4.3390  -31.1340 O.2   284  ILE284     -0.2718
    132  CB        15.4650   -6.8320  -30.0030 C.3   284  ILE284      0.0266
    133  CG1       16.0060   -6.4380  -28.6380 C.3   284  ILE284      0.0019
    134  CG2       14.9800   -8.2830  -30.0210 C.3   284  ILE284      0.0020
    135  CD1       15.0130   -6.6710  -27.5280 C.3   284  ILE284      0.0001
    136  N         15.4630   -4.8720  -32.3530 N.am  285  PHE285     -0.1962
    137  CA        15.3140   -3.5590  -32.9340 C.3   285  PHE285      0.1771
    138  C         16.5870   -3.1600  -33.6440 C.2   285  PHE285      0.2619
    139  O         17.0270   -2.0080  -33.5530 O.2   285  PHE285     -0.2715
    140  CB        14.9850   -2.5250  -31.8690 C.3   285  PHE285      0.0574
    141  CG        14.0540   -1.4670  -32.3500 C.ar  285  PHE285     -0.0200
    142  CD1       14.3100   -0.7970  -33.5370 C.ar  285  PHE285     -0.0042
    143  CD2       12.9020   -1.1630  -31.6390 C.ar  285  PHE285     -0.0042
    144  CE1       13.4470    0.1570  -34.0020 C.ar  285  PHE285     -0.0003
    145  CE2       12.0440   -0.1950  -32.0910 C.ar  285  PHE285     -0.0003
    146  CZ        12.3140    0.4630  -33.2830 C.ar  285  PHE285     -0.0000
    147  N         17.1890   -4.1220  -34.3300 N.am  286  ARG286     -0.1963
    148  CA        18.3440   -3.8420  -35.1540 C.3   286  ARG286      0.1729
    149  C         18.1600   -4.5790  -36.4870 C.2   286  ARG286      0.2616
    150  O         17.6820   -5.7100  -36.5200 O.2   286  ARG286     -0.2715
    151  CB        19.6230   -4.2590  -34.4340 C.3   286  ARG286      0.0348
    152  CG        20.8060   -3.3450  -34.6830 C.3   286  ARG286      0.0492
    153  CD        21.1000   -2.4410  -33.4940 C.3   286  ARG286      0.2205
    154  NE        19.8770   -1.9540  -32.8810 N.pl3 286  ARG286     -0.0865
    155  CZ        19.8340   -1.1620  -31.8140 C.cat 286  ARG286      0.5346
    156  NH1       20.9530   -0.7490  -31.2330 N.pl3 286  ARG286      0.1354
    157  NH2       18.6620   -0.7810  -31.3300 N.pl3 286  ARG286      0.1354
    158  N         18.5160   -3.9240  -37.5840 N.am  287  PHE287     -0.1974
    159  CA        18.1980   -4.4150  -38.9180 C.3   287  PHE287      0.1639
    160  C         19.4290   -4.3670  -39.8130 C.2   287  PHE287      0.2290
    161  O         20.2100   -3.4100  -39.7530 O.2   287  PHE287     -0.2864
    162  CB        17.0850   -3.5670  -39.5260 C.3   287  PHE287      0.0560
    163  CG        15.9700   -3.2610  -38.5710 C.ar  287  PHE287     -0.0200
    164  CD1       15.1140   -4.2640  -38.1400 C.ar  287  PHE287     -0.0042
    165  CD2       15.7770   -1.9680  -38.0970 C.ar  287  PHE287     -0.0042
    166  CE1       14.0860   -3.9880  -37.2590 C.ar  287  PHE287     -0.0003
    167  CE2       14.7490   -1.6840  -37.2140 C.ar  287  PHE287     -0.0003
    168  CZ        13.9020   -2.6970  -36.7970 C.ar  287  PHE287     -0.0000
    169  N          6.3140   -4.9360  -28.8220 N.3   327  TYR327     -0.1227
    170  CA         6.2440   -5.7190  -30.0520 C.3   327  TYR327      0.1736
    171  C          7.5260   -6.4970  -30.3320 C.2   327  TYR327      0.2595
    172  O          7.4810   -7.6020  -30.8700 O.2   327  TYR327     -0.2718
    173  CB         5.9690   -4.7810  -31.2220 C.3   327  TYR327      0.0548
    174  CG         5.5210   -5.4470  -32.5010 C.ar  327  TYR327     -0.0200
    175  CD1        4.1870   -5.4050  -32.8890 C.ar  327  TYR327     -0.0009
    176  CD2        6.4310   -6.0850  -33.3380 C.ar  327  TYR327     -0.0009
    177  CE1        3.7610   -5.9940  -34.0700 C.ar  327  TYR327      0.0417
    178  CE2        6.0160   -6.6810  -34.5260 C.ar  327  TYR327      0.0417
    179  CZ         4.6740   -6.6330  -34.8820 C.ar  327  TYR327      0.1957
    180  OH         4.2370   -7.2150  -36.0510 O.3   327  TYR327     -0.2866
    181  N          8.6660   -5.9220  -29.9610 N.am  328  PHE328     -0.1976
    182  CA         9.9610   -6.4420  -30.3800 C.3   328  PHE328      0.1639
    183  C         10.4500   -7.5440  -29.4870 C.2   328  PHE328      0.2290
    184  O         11.3780   -8.2690  -29.8490 O.2   328  PHE328     -0.2864
    185  CB        11.0070   -5.3260  -30.3810 C.3   328  PHE328      0.0560
    186  CG        10.7490   -4.2750  -31.4020 C.ar  328  PHE328     -0.0200
    187  CD1        9.8610   -3.2400  -31.1380 C.ar  328  PHE328     -0.0042
    188  CD2       11.3710   -4.3320  -32.6370 C.ar  328  PHE328     -0.0042
    189  CE1        9.6040   -2.2800  -32.0790 C.ar  328  PHE328     -0.0003
    190  CE2       11.1230   -3.3650  -33.5880 C.ar  328  PHE328     -0.0003
    191  CZ        10.2340   -2.3390  -33.3100 C.ar  328  PHE328     -0.0000
    192  N         10.0230  -11.2760  -30.3570 N.3   331  TYR331     -0.1241
    193  CA        10.8990  -11.7340  -31.4280 C.3   331  TYR331      0.1605
    194  C         12.2670  -12.1360  -30.8890 C.2   331  TYR331      0.2264
    195  O         13.2920  -11.5690  -31.2660 O.2   331  TYR331     -0.2867
    196  CB        11.0570  -10.6660  -32.5170 C.3   331  TYR331      0.0534
    197  CG         9.8970  -10.5700  -33.4840 C.ar  331  TYR331     -0.0201
    198  CD1        8.8170   -9.7340  -33.2200 C.ar  331  TYR331     -0.0009
    199  CD2        9.8920  -11.2970  -34.6740 C.ar  331  TYR331     -0.0009
    200  CE1        7.7500   -9.6350  -34.1020 C.ar  331  TYR331      0.0417
    201  CE2        8.8280  -11.2010  -35.5680 C.ar  331  TYR331      0.0417
    202  CZ         7.7590  -10.3690  -35.2730 C.ar  331  TYR331      0.1957
    203  OH         6.6960  -10.2640  -36.1460 O.3   331  TYR331     -0.2866
    204  N          4.0600   -0.5810  -30.9210 N.3   437  HIS437     -0.1226
    205  CA         4.6200   -0.0060  -32.1270 C.3   437  HIS437      0.1752
    206  C          3.7830   -0.3740  -33.3510 C.2   437  HIS437      0.2596
    207  O          3.7420   -1.5370  -33.7560 O.2   437  HIS437     -0.2718
    208  CB         6.0500   -0.5380  -32.2730 C.3   437  HIS437      0.0759
    209  CG         6.8560    0.1190  -33.3520 C.ar  437  HIS437      0.0818
    210  ND1        7.1470    1.4660  -33.3520 N.ar  437  HIS437     -0.2268
    211  CD2        7.4780   -0.4020  -34.4370 C.ar  437  HIS437      0.1154
    212  CE1        7.8980    1.7510  -34.4020 C.ar  437  HIS437      0.1986
    213  NE2        8.1140    0.6360  -35.0760 N.ar  437  HIS437     -0.2212
    214  N          3.1190    0.6180  -33.9370 N.am  438  GLY438     -0.1957
    215  CA         2.3600    0.4290  -35.1620 C.3   438  GLY438      0.1869
    216  C          0.8650    0.6980  -35.0560 C.2   438  GLY438      0.2309
    217  O          0.2180    0.9880  -36.0600 O.2   438  GLY438     -0.2863
    218  N         -1.7420    3.7420  -36.3670 N.3   441  ILE441     -0.1245
    219  CA        -1.9240    3.9270  -37.8010 C.3   441  ILE441      0.1561
    220  C         -3.3610    3.7130  -38.2680 C.2   441  ILE441      0.2260
    221  O         -3.9070    4.5400  -38.9930 O.2   441  ILE441     -0.2867
    222  CB        -0.9760    3.0210  -38.6090 C.3   441  ILE441      0.0252
    223  CG1        0.4860    3.3770  -38.2980 C.3   441  ILE441      0.0019
    224  CG2       -1.2810    3.1540  -40.0920 C.3   441  ILE441      0.0019
    225  CD1        1.5230    2.4060  -38.8670 C.3   441  ILE441      0.0001
@<TRIPOS>BOND
     1    68    67    2
     2    69    70    1
     3    67    66    1
     4    80    79    2
     5     1     2    1
     6    72    71    2
     7    70    71    1
     8    70    73    1
     9    79    78    1
    10    76    74    1
    11     2     3    1
    12     2     5    1
    13    66    65    1
    14    81    78    1
    15    81    82    1
    16    50    49    2
    17     3     4    2
    18    65    61   am
    19    74    73    1
    20    74    75    1
    21    84    82   ar
    22    84    86   ar
    23    61    60    1
    24    61    62    2
    25    60    59    1
    26    60    63    1
    27    49    59   am
    28    49    48    1
    29    78    77    1
    30    82    83   ar
    31     5     6    1
    32    86    87   ar
    33    48    47    1
    34    48    51    1
    35    63    64    1
    36     8     6   ar
    37     8    10   ar
    38    51    52    1
    39     6     7   ar
    40    24    23    2
    41    83    85   ar
    42    87    85   ar
    43    87    88    1
    44    38    37    2
    45    23    22    1
    46    35    36    1
    47    53    52   ar
    48    53    55   ar
    49    13    14    1
    50    10    11   ar
    51    52    54   ar
    52     7     9   ar
    53   104   105    1
    54   124   126   ar
    55   124   123   ar
    56    37    36    1
    57    37    39   am
    58   126   127   ar
    59    42    41    2
    60    55    57   ar
    61    22    21    1
    62    22    25    1
    63    16    15    2
    64    11     9   ar
    65    11    12    1
    66    40    39    1
    67    40    41    1
    68    45    46    2
    69    45    44    1
    70   110   112   ar
    71   110   109   ar
    72   112   113   ar
    73    41    43   am
    74    54    56   ar
    75   123   122    1
    76   123   125   ar
    77    14    15    1
    78    14    17    1
    79   122   119    1
    80   118   119    1
    81   118   106   am
    82   105   108    1
    83   105   106    1
    84   127   125   ar
    85   120   119    1
    86   120   121    2
    87   109   108    1
    88   109   111   ar
    89    57    56   ar
    90    57    58    1
    91   113   115   ar
    92   113   111   ar
    93    43    44    1
    94    25    26    1
    95    17    18    1
    96   106   107    2
    97    89    90    1
    98    31    33   ar
    99    31    28   ar
   100   115   117   ar
   101   224   222    1
   102    92    91    2
   103   111   114   ar
   104   160   161    2
   105   160   159    1
   106    33    34   ar
   107   162   159    1
   108   162   163    1
   109    26    28   ar
   110    26    27   ar
   111    28    30   ar
   112   117   116   ar
   113   114   116   ar
   114    90    91    1
   115    90    93    1
   116    91    98   am
   117   221   220    2
   118    18    20   ar
   119    18    19   ar
   120   159   158    1
   121   225   223    1
   122   101   100    2
   123    93    94    1
   124   100    99    1
   125   222   223    1
   126   222   219    1
   127   163   164   ar
   128   163   165   ar
   129    34    32   ar
   130    96    95   ar
   131   220   219    1
   132    27    29   ar
   133   164   166   ar
   134   165   167   ar
   135    30    32   ar
   136    30    29   ar
   137    98    99    1
   138   102    99    1
   139   102   103    1
   140   219   218    1
   141   158   149   am
   142    94    95    1
   143   166   168   ar
   144    95    97   ar
   145   167   168   ar
   146   150   149    2
   147   149   148    1
   148   203   202    1
   149   217   216    2
   150   180   179    1
   151   201   202   ar
   152   201   199   ar
   153   202   200   ar
   154   215   216    1
   155   215   214    1
   156   148   151    1
   157   148   147    1
   158   213   211   ar
   159   213   212   ar
   160   179   178   ar
   161   179   177   ar
   162   152   151    1
   163   152   153    1
   164   199   197   ar
   165   178   176   ar
   166   211   209   ar
   167   212   210   ar
   168   147   138   am
   169   200   198   ar
   170   177   175   ar
   171   144   142   ar
   172   144   146   ar
   173   214   206   am
   174   207   206    2
   175   138   139    2
   176   138   137    1
   177   190   191   ar
   178   190   188   ar
   179   142   141   ar
   180   153   154    1
   181   197   198   ar
   182   197   196    1
   183   209   210   ar
   184   209   208    1
   185   206   205    1
   186   176   174   ar
   187   191   189   ar
   188   146   145   ar
   189   137   136    1
   190   137   140    1
   191   175   174   ar
   192   154   155    2
   193   188   186   ar
   194   196   193    1
   195   174   173    1
   196   136   130   am
   197   141   140    1
   198   141   143   ar
   199   208   205    1
   200   205   204    1
   201   145   143   ar
   202   189   187   ar
   203   155   157    1
   204   155   156    1
   205   130   131    2
   206   130   129    1
   207   193   194    1
   208   193   192    1
   209   186   187   ar
   210   186   185    1
   211   195   194    2
   212   173   170    1
   213   129   128    1
   214   129   132    1
   215   172   171    2
   216   185   182    1
   217   182   181    1
   218   182   183    1
   219   171   170    1
   220   171   181   am
   221   170   169    1
   222   134   132    1
   223   132   133    1
   224   184   183    2
   225   133   135    1
