@<TRIPOS>MOLECULE
tmp/2wltA00.pdb
 93 87 0 0 0
SMALL
GASTEIGER

@<TRIPOS>ATOM
      1  N          6.3010  -16.4050  -21.5900 N.3    11  GLY11      -0.1210
      2  CA         5.5380  -15.4780  -20.7580 C.3    11  GLY11       0.1956
      3  C          4.5470  -14.6330  -21.5070 C.2    11  GLY11       0.2613
      4  O          4.5710  -14.5620  -22.7420 O.2    11  GLY11      -0.2717
      5  N          3.6240  -13.9940  -20.7850 N.am   12  THR12      -0.1938
      6  CA         2.6050  -13.1350  -21.4040 C.3    12  THR12       0.2028
      7  C          3.2740  -12.0390  -22.1930 C.2    12  THR12       0.2642
      8  O          2.6790  -11.5450  -23.1560 O.2    12  THR12      -0.2714
      9  CB         1.7140  -12.5160  -20.3220 C.3    12  THR12       0.1808
     10  OG1        1.0060  -13.6640  -19.7340 O.3    12  THR12      -0.2208
     11  CG2        0.6730  -11.5300  -20.7690 C.3    12  THR12       0.0379
     12  N          4.5160  -11.6610  -21.8710 N.am   13  ILE13      -0.1977
     13  CA         5.2080  -10.6460  -22.6930 C.3    13  ILE13       0.1596
     14  C          5.3260  -11.1590  -24.1160 C.2    13  ILE13       0.2287
     15  O          5.3880  -10.3480  -25.0570 O.2    13  ILE13      -0.2864
     16  CB         6.6030  -10.2610  -22.1380 C.3    13  ILE13       0.0276
     17  CG1        7.2870   -9.0790  -22.8690 C.3    13  ILE13       0.0022
     18  CG2        7.5520  -11.4470  -22.0540 C.3    13  ILE13       0.0022
     19  CD1        8.4600   -8.5020  -22.0400 C.3    13  ILE13       0.0001
     20  N         -5.5230  -15.3270  -25.1440 N.3    23  TYR23      -0.1241
     21  CA        -4.1600  -15.5470  -25.5890 C.3    23  TYR23       0.1605
     22  C         -3.5320  -16.7630  -24.8990 C.2    23  TYR23       0.2264
     23  O         -4.0260  -17.2550  -23.8800 O.2    23  TYR23      -0.2867
     24  CB        -3.2980  -14.2840  -25.3490 C.3    23  TYR23       0.0534
     25  CG        -2.7370  -14.2480  -23.9410 C.ar   23  TYR23      -0.0201
     26  CD1       -3.5930  -13.8520  -22.9070 C.ar   23  TYR23      -0.0009
     27  CD2       -1.4200  -14.5950  -23.6370 C.ar   23  TYR23      -0.0009
     28  CE1       -3.1580  -13.7930  -21.5960 C.ar   23  TYR23       0.0417
     29  CE2       -0.9900  -14.5470  -22.3290 C.ar   23  TYR23       0.0417
     30  CZ        -1.8550  -14.1490  -21.3320 C.ar   23  TYR23       0.1957
     31  OH        -1.4070  -14.1070  -20.0370 O.3    23  TYR23      -0.2866
     32  N          0.3270  -17.9460  -23.4030 N.3    25  SER25      -0.1273
     33  CA         1.3510  -17.2790  -22.6550 C.3    25  SER25       0.1575
     34  C          2.5800  -16.8110  -23.4380 C.3    25  SER25       0.2036
     35  O          2.5980  -15.5560  -23.2910 O.3    25  SER25      -0.2187
     36  CB         1.9000  -18.0870  -21.4560 C.3    25  SER25       0.2036
     37  OG         2.7820  -17.1650  -20.8050 O.3    25  SER25      -0.2187
     38  N          5.3430  -19.1300  -17.6110 N.3    56  SER56      -0.1202
     39  CA         6.2310  -19.3570  -16.4590 C.3    56  SER56       0.2020
     40  C          5.5740  -20.2700  -15.4450 C.2    56  SER56       0.2618
     41  O          6.2620  -20.7490  -14.5210 O.2    56  SER56      -0.2717
     42  CB         6.6870  -18.0590  -15.8250 C.3    56  SER56       0.2103
     43  OG         5.7140  -17.4540  -15.0220 O.3    56  SER56      -0.2182
     44  N          4.2660  -20.5660  -15.5530 N.am   57  GLN57      -0.1979
     45  CA         3.6820  -21.6040  -14.6990 C.3    57  GLN57       0.1601
     46  C          4.2800  -22.9730  -14.9880 C.2    57  GLN57       0.2287
     47  O          4.0660  -23.9120  -14.1820 O.2    57  GLN57      -0.2864
     48  CB         2.1590  -21.5860  -14.8770 C.3    57  GLN57       0.0394
     49  CG         1.6160  -22.0000  -16.2400 C.3    57  GLN57       0.0908
     50  CD         1.3670  -20.7740  -17.1160 C.2    57  GLN57       0.2608
     51  OE1        2.2130  -19.8950  -17.2520 O.2    57  GLN57      -0.2717
     52  NE2        0.1840  -20.6830  -17.6880 N.am   57  GLN57      -0.0878
     53  N          7.7060  -15.0400  -18.0900 N.3    88  GLY88      -0.1210
     54  CA         6.3330  -14.9170  -17.6140 C.3    88  GLY88       0.1956
     55  C          6.3610  -14.3360  -16.1990 C.2    88  GLY88       0.2613
     56  O          7.2950  -14.5740  -15.4100 O.2    88  GLY88      -0.2717
     57  N          5.3270  -13.5810  -15.8680 N.am   89  THR89      -0.1938
     58  CA         5.3510  -12.9330  -14.5630 C.3    89  THR89       0.2028
     59  C          5.0140  -13.8740  -13.4230 C.2    89  THR89       0.2642
     60  O          5.3740  -13.5630  -12.2840 O.2    89  THR89      -0.2714
     61  CB         4.3760  -11.7430  -14.5270 C.3    89  THR89       0.1808
     62  OG1        3.0640  -12.2520  -14.7920 O.3    89  THR89      -0.2208
     63  CG2        4.7620  -10.6990  -15.5730 C.3    89  THR89       0.0379
     64  N          4.3280  -14.9920  -13.6710 N.am   90  ASP90      -0.1971
     65  CA         3.8370  -15.8140  -12.5590 C.3    90  ASP90       0.1709
     66  C          4.9150  -16.3200  -11.6050 C.2    90  ASP90       0.2293
     67  O          4.7310  -16.3320  -10.3720 O.2    90  ASP90      -0.2864
     68  CB         3.0470  -17.0300  -13.0940 C.3    90  ASP90       0.1436
     69  CG         1.7190  -16.5960  -13.7390 C.2    90  ASP90       0.3671
     70  OD1        1.3030  -15.4260  -13.6210 O.co2  90  ASP90      -0.2456
     71  OD2        1.0990  -17.5000  -14.3140 O.co2  90  ASP90      -0.2456
     72  N          5.4470   -8.9690  -18.8510 N.3   114  ALA114     -0.1231
     73  CA         4.2960   -8.1470  -19.2000 C.3   114  ALA114      0.1694
     74  C          3.0530   -8.7750  -18.5810 C.2   114  ALA114      0.2591
     75  O          2.9190  -10.0260  -18.6890 O.2   114  ALA114     -0.2718
     76  CB         4.2020   -8.0360  -20.7180 C.3   114  ALA114      0.0304
     77  N          2.2080   -7.9340  -17.9990 N.am  115  MET115     -0.1979
     78  CA         0.9420   -8.4320  -17.4340 C.3   115  MET115      0.1605
     79  C         -0.1610   -8.4470  -18.4810 C.2   115  MET115      0.2287
     80  O         -1.1980   -9.0530  -18.1470 O.2   115  MET115     -0.2864
     81  CB         0.5550   -7.5650  -16.2260 C.3   115  MET115      0.0413
     82  CG         1.5060   -7.8570  -15.0480 C.3   115  MET115      0.0598
     83  SD         1.2550   -9.5580  -14.4390 S.3   115  MET115     -0.1393
     84  CE        -0.3700   -9.3470  -13.6930 C.3   115  MET115      0.0692
     85  N          5.1790  -10.9490   -6.9820 N.3   162  LYS162     -0.1245
     86  CA         3.9110  -10.6780   -7.6700 C.3   162  LYS162      0.1561
     87  C          2.7770  -10.6530   -6.6620 C.2   162  LYS162      0.2260
     88  O          2.5320  -11.6910   -6.0160 O.2   162  LYS162     -0.2867
     89  CB         3.7040  -11.7070   -8.7820 C.3   162  LYS162      0.0271
     90  CG         2.4700  -11.4370   -9.6290 C.3   162  LYS162      0.0035
     91  CD         2.3280  -12.4170  -10.7700 C.3   162  LYS162      0.0206
     92  CE         1.1520  -11.9890  -11.6490 C.3   162  LYS162      0.1093
     93  NZ         1.1750  -12.7320  -12.9610 N.3   162  LYS162     -0.1314
@<TRIPOS>BOND
     1    21    24    1
     2    21    20    1
     3    21    22    1
     4    24    25    1
     5    15    14    2
     6    22    23    2
     7    14    13    1
     8    25    27   ar
     9    25    26   ar
    10    27    29   ar
    11    34    35    1
    12    34    33    1
    13    32    33    1
    14     8     7    2
    15    26    28   ar
    16    17    16    1
    17    17    19    1
    18     4     3    2
    19    13    16    1
    20    13    12    1
    21    33    36    1
    22    29    30   ar
    23     7    12   am
    24     7     6    1
    25    16    18    1
    26    28    30   ar
    27     1     2    1
    28     3     5   am
    29     3     2    1
    30    36    37    1
    31     6     5    1
    32     6     9    1
    33    30    31    1
    34    11     9    1
    35    76    73    1
    36     9    10    1
    37    73    72    1
    38    73    74    1
    39    75    74    2
    40    74    77   am
    41    79    80    2
    42    79    78    1
    43    53    54    1
    44    77    78    1
    45    52    50   am
    46    54    55    1
    47    38    39    1
    48    78    81    1
    49    51    50    2
    50    50    49    1
    51    39    42    1
    52    39    40    1
    53    49    48    1
    54    81    82    1
    55    55    57   am
    56    55    56    2
    57    57    58    1
    58    42    43    1
    59    63    61    1
    60    44    40   am
    61    44    45    1
    62    40    41    2
    63    82    83    1
    64    46    45    1
    65    46    47    2
    66    48    45    1
    67    62    61    1
    68    58    61    1
    69    58    59    1
    70    83    84    1
    71    71    69   ar
    72    69    70   ar
    73    69    68    1
    74    64    59   am
    75    64    65    1
    76    59    60    2
    77    68    65    1
    78    93    92    1
    79    65    66    1
    80    92    91    1
    81    66    67    2
    82    91    90    1
    83    90    89    1
    84    89    86    1
    85    86    85    1
    86    86    87    1
    87    87    88    2
