@<TRIPOS>MOLECULE
tmp/2wlyA02.pdb
 88 88 0 0 0
SMALL
GASTEIGER

@<TRIPOS>ATOM
      1  N         27.8870   68.7810   -1.1080 N.3   252  TRP252     -0.1241
      2  CA        26.5810   68.5380   -1.6990 C.3   252  TRP252      0.1605
      3  C         26.4900   67.2620   -2.5840 C.2   252  TRP252      0.2264
      4  O         25.5050   66.5050   -2.4690 O.2   252  TRP252     -0.2867
      5  CB        26.0710   69.7950   -2.4340 C.3   252  TRP252      0.0550
      6  CG        24.6900   69.6260   -3.0060 C.ar  252  TRP252      0.0003
      7  CD1       24.3630   69.3400   -4.3530 C.ar  252  TRP252      0.0946
      8  CD2       23.4380   69.6810   -2.2900 C.ar  252  TRP252      0.0152
      9  NE1       23.0010   69.3090   -4.4870 N.ar  252  TRP252     -0.2442
     10  CE2       22.4070   69.4900   -3.2450 C.ar  252  TRP252      0.0810
     11  CE3       23.0930   69.9040   -0.9510 C.ar  252  TRP252      0.0012
     12  CZ2       21.0490   69.5330   -2.8980 C.ar  252  TRP252      0.0191
     13  CZ3       21.7450   69.9670   -0.6040 C.ar  252  TRP252      0.0001
     14  CH2       20.7360   69.7860   -1.5790 C.ar  252  TRP252      0.0015
     15  N         25.9810   66.1250    4.0420 N.3   292  GLU292     -0.1231
     16  CA        24.7810   66.8840    3.7980 C.3   292  GLU292      0.1699
     17  C         23.6060   65.9810    3.3600 C.2   292  GLU292      0.2592
     18  O         23.5550   65.5480    2.1790 O.2   292  GLU292     -0.2718
     19  CB        25.0940   67.9920    2.8130 C.3   292  GLU292      0.0402
     20  CG        26.4480   68.6730    3.1560 C.3   292  GLU292      0.1161
     21  CD        26.8280   69.8790    2.2580 C.2   292  GLU292      0.3649
     22  OE1       26.0220   70.3290    1.4030 O.co2 292  GLU292     -0.2457
     23  OE2       27.9750   70.3870    2.3990 O.co2 292  GLU292     -0.2457
     24  N         22.6990   65.6250    4.2640 N.am  293  PHE293     -0.1976
     25  CA        22.6420   65.9360    5.7090 C.3   293  PHE293      0.1639
     26  C         22.1130   64.6980    6.4350 C.2   293  PHE293      0.2290
     27  O         21.2970   63.9240    5.8630 O.2   293  PHE293     -0.2864
     28  CB        21.5980   67.0180    5.9720 C.3   293  PHE293      0.0560
     29  CG        21.7900   68.2530    5.1510 C.ar  293  PHE293     -0.0200
     30  CD1       22.7610   69.1950    5.5150 C.ar  293  PHE293     -0.0042
     31  CD2       21.0010   68.4860    3.9980 C.ar  293  PHE293     -0.0042
     32  CE1       22.9830   70.3280    4.7430 C.ar  293  PHE293     -0.0003
     33  CE2       21.1750   69.6420    3.2000 C.ar  293  PHE293     -0.0003
     34  CZ        22.1960   70.5530    3.5670 C.ar  293  PHE293     -0.0000
     35  N         23.9850   71.8620    8.2870 N.3   341  SER341     -0.1202
     36  CA        22.8850   72.7140    7.9270 C.3   341  SER341      0.2020
     37  C         22.5720   73.6840    9.0760 C.2   341  SER341      0.2619
     38  O         22.6960   73.3310   10.2750 O.2   341  SER341     -0.2717
     39  CB        21.6380   71.8990    7.6060 C.3   341  SER341      0.2103
     40  OG        20.5090   72.7900    7.4450 O.3   341  SER341     -0.2182
     41  N         22.2460   74.9220    8.7190 N.am  342  ALA342     -0.1965
     42  CA        21.8260   75.9350    9.6920 C.3   342  ALA342      0.1728
     43  C         20.2900   75.9380    9.9600 C.2   342  ALA342      0.2616
     44  O         19.8470   76.6480   10.8330 O.2   342  ALA342     -0.2715
     45  CB        22.2830   77.3180    9.2750 C.3   342  ALA342      0.0334
     46  N         19.4820   75.2010    9.1920 N.am  343  GLY343     -0.1955
     47  CA        18.0370   75.0960    9.4750 C.3   343  GLY343      0.1869
     48  C         17.7520   74.2120   10.6990 C.2   343  GLY343      0.2309
     49  O         18.3500   73.1040   10.8440 O.2   343  GLY343     -0.2863
     50  N         26.5330   76.2530    8.3610 N.3   365  MET365     -0.1245
     51  CA        26.2790   76.7460    7.0000 C.3   365  MET365      0.1570
     52  C         25.1450   77.7840    6.9110 C.2   365  MET365      0.2261
     53  O         24.0690   77.5600    6.2810 O.2   365  MET365     -0.2867
     54  CB        26.0880   75.5760    5.9990 C.3   365  MET365      0.0387
     55  CG        27.3800   74.7870    5.8680 C.3   365  MET365      0.0595
     56  SD        27.3680   73.5550    4.5930 S.3   365  MET365     -0.1393
     57  CE        26.1970   72.3370    5.1920 C.3   365  MET365      0.0692
     58  N         23.9600   80.0460    5.1360 N.3   367  TYR367     -0.1227
     59  CA        23.7860   80.6350    3.7890 C.3   367  TYR367      0.1736
     60  C         22.8620   79.6760    3.0250 C.2   367  TYR367      0.2595
     61  O         22.4730   78.6750    3.5940 O.2   367  TYR367     -0.2718
     62  CB        25.0930   80.8290    3.0400 C.3   367  TYR367      0.0548
     63  CG        26.1820   79.8090    3.3060 C.ar  367  TYR367     -0.0200
     64  CD1       26.1560   78.5580    2.6590 C.ar  367  TYR367     -0.0009
     65  CD2       27.2650   80.0970    4.1840 C.ar  367  TYR367     -0.0009
     66  CE1       27.1490   77.6210    2.8680 C.ar  367  TYR367      0.0417
     67  CE2       28.2760   79.1550    4.4050 C.ar  367  TYR367      0.0417
     68  CZ        28.1930   77.8980    3.7310 C.ar  367  TYR367      0.1957
     69  OH        29.1390   76.9140    3.8920 O.3   367  TYR367     -0.2866
     70  N         22.5080   79.9860    1.7760 N.am  368  ASP368     -0.1960
     71  CA        21.5480   79.1960    1.0120 C.3   368  ASP368      0.1840
     72  C         20.1280   79.1500    1.6330 C.2   368  ASP368      0.2622
     73  O         19.2980   78.2720    1.3200 O.2   368  ASP368     -0.2715
     74  CB        22.0850   77.8160    0.6930 C.3   368  ASP368      0.1450
     75  CG        23.4590   77.8490   -0.0450 C.2   368  ASP368      0.3671
     76  OD1       23.8790   78.8510   -0.7290 O.co2 368  ASP368     -0.2456
     77  OD2       24.1570   76.8250    0.0330 O.co2 368  ASP368     -0.2456
     78  N         19.7980   80.1220    2.4670 N.am  369  PHE369     -0.1974
     79  CA        18.4510   80.1860    3.0710 C.3   369  PHE369      0.1639
     80  C         17.3660   80.3460    2.0100 C.2   369  PHE369      0.2290
     81  O         16.2720   79.8920    2.2130 O.2   369  PHE369     -0.2864
     82  CB        18.3340   81.3230    4.1090 C.3   369  PHE369      0.0560
     83  CG        19.2700   81.1610    5.3240 C.ar  369  PHE369     -0.0200
     84  CD1       19.5490   79.8960    5.8630 C.ar  369  PHE369     -0.0042
     85  CD2       19.8330   82.2980    5.9590 C.ar  369  PHE369     -0.0042
     86  CE1       20.3590   79.7570    7.0070 C.ar  369  PHE369     -0.0003
     87  CE2       20.6630   82.1770    7.1010 C.ar  369  PHE369     -0.0003
     88  CZ        20.9370   80.9160    7.6360 C.ar  369  PHE369     -0.0000
@<TRIPOS>BOND
     1     9     7   ar
     2     9    10   ar
     3     7     6   ar
     4    10    12   ar
     5    10     8   ar
     6     6     5    1
     7     6     8   ar
     8    12    14   ar
     9     3     4    2
    10     3     2    1
    11     5     2    1
    12     8    11   ar
    13     2     1    1
    14    14    13   ar
    15    11    13   ar
    16    76    75   ar
    17    75    77   ar
    18    75    74    1
    19    74    71    1
    20    71    72    1
    21    71    70    1
    22    73    72    2
    23    22    21   ar
    24    72    78   am
    25    70    60   am
    26    80    81    2
    27    80    79    1
    28    18    17    2
    29    21    23   ar
    30    21    20    1
    31    78    79    1
    32    64    66   ar
    33    64    63   ar
    34    19    20    1
    35    19    16    1
    36    66    68   ar
    37    60    61    2
    38    60    59    1
    39    62    63    1
    40    62    59    1
    41    79    82    1
    42    33    34   ar
    43    33    31   ar
    44    63    65   ar
    45    17    16    1
    46    17    24   am
    47    34    32   ar
    48    68    69    1
    49    68    67   ar
    50    59    58    1
    51    16    15    1
    52    31    29   ar
    53    82    83    1
    54    65    67   ar
    55    24    25    1
    56    56    57    1
    57    56    55    1
    58    32    30   ar
    59    29    30   ar
    60    29    28    1
    61    83    84   ar
    62    83    85   ar
    63    25    28    1
    64    25    26    1
    65    27    26    2
    66    84    86   ar
    67    55    54    1
    68    85    87   ar
    69    54    51    1
    70    53    52    2
    71    52    51    1
    72    51    50    1
    73    86    88   ar
    74    87    88   ar
    75    40    39    1
    76    39    36    1
    77    36    35    1
    78    36    37    1
    79    41    37   am
    80    41    42    1
    81    37    38    2
    82    46    47    1
    83    46    43   am
    84    45    42    1
    85    47    48    1
    86    42    43    1
    87    43    44    2
    88    48    49    2
