@<TRIPOS>MOLECULE
tmp/2wlyA01.pdb
 113 111 0 0 0
SMALL
GASTEIGER

@<TRIPOS>ATOM
      1  N         34.0110   66.9420    8.1950 N.3   289  ILE289     -0.1245
      2  CA        33.0180   65.9710    7.7420 C.3   289  ILE289      0.1561
      3  C         31.8500   66.7860    7.2650 C.2   289  ILE289      0.2260
      4  O         31.1740   67.4750    8.0670 O.2   289  ILE289     -0.2867
      5  CB        32.5880   65.0490    8.8710 C.3   289  ILE289      0.0252
      6  CG1       33.7290   64.1640    9.3530 C.3   289  ILE289      0.0019
      7  CG2       31.3820   64.1250    8.4420 C.3   289  ILE289      0.0019
      8  CD1       34.2300   63.1340    8.2770 C.3   289  ILE289      0.0001
      9  N         28.6840   66.1060    5.8980 N.3   291  TRP291     -0.1241
     10  CA        27.6280   65.1640    5.5620 C.3   291  TRP291      0.1605
     11  C         26.3700   65.9890    5.3020 C.2   291  TRP291      0.2264
     12  O         25.7700   66.5350    6.2520 O.2   291  TRP291     -0.2867
     13  CB        27.4200   64.1900    6.7000 C.3   291  TRP291      0.0550
     14  CG        26.2720   63.2110    6.5090 C.ar  291  TRP291      0.0003
     15  CD1       25.3180   63.1740    5.4910 C.ar  291  TRP291      0.0946
     16  CD2       25.9570   62.1190    7.4060 C.ar  291  TRP291      0.0152
     17  NE1       24.4320   62.1010    5.7220 N.ar  291  TRP291     -0.2442
     18  CE2       24.8090   61.4600    6.8910 C.ar  291  TRP291      0.0810
     19  CE3       26.5170   61.6780    8.6360 C.ar  291  TRP291      0.0012
     20  CZ2       24.2230   60.3610    7.5520 C.ar  291  TRP291      0.0191
     21  CZ3       25.9270   60.6030    9.2930 C.ar  291  TRP291      0.0001
     22  CH2       24.8180   59.9320    8.7270 C.ar  291  TRP291      0.0015
     23  N         22.6990   65.6250    4.2640 N.3   293  PHE293     -0.1228
     24  CA        22.6420   65.9360    5.7090 C.3   293  PHE293      0.1721
     25  C         22.1130   64.6980    6.4350 C.2   293  PHE293      0.2437
     26  O         21.2970   63.9240    5.8630 O.2   293  PHE293     -0.2733
     27  CB        21.5980   67.0180    5.9720 C.3   293  PHE293      0.0547
     28  CG        21.7900   68.2530    5.1510 C.ar  293  PHE293     -0.0202
     29  CD1       22.7610   69.1950    5.5150 C.ar  293  PHE293     -0.0042
     30  CD2       21.0010   68.4860    3.9980 C.ar  293  PHE293     -0.0042
     31  CE1       22.9830   70.3280    4.7430 C.ar  293  PHE293     -0.0003
     32  CE2       21.1750   69.6420    3.2000 C.ar  293  PHE293     -0.0003
     33  CZ        22.1960   70.5530    3.5670 C.ar  293  PHE293     -0.0000
     34  N         22.4920   64.5030    7.7150 N.am  294  PRO294     -0.2729
     35  CA        21.9070   63.3290    8.4330 C.3   294  PRO294      0.1401
     36  C         20.3870   63.5050    8.3840 C.2   294  PRO294      0.2269
     37  O         19.9430   64.6100    8.6460 O.2   294  PRO294     -0.2865
     38  CB        22.3980   63.5200    9.8690 C.3   294  PRO294      0.0296
     39  CG        23.6200   64.3340    9.7240 C.3   294  PRO294      0.0237
     40  CD        23.3500   65.3000    8.5870 C.3   294  PRO294      0.0939
     41  N         25.8730   59.7230   12.9540 N.3   312  TYR312     -0.1241
     42  CA        26.6880   60.8870   13.0110 C.3   312  TYR312      0.1605
     43  C         27.4950   60.9650   14.3160 C.2   312  TYR312      0.2264
     44  O         28.7470   61.1780   14.2930 O.2   312  TYR312     -0.2867
     45  CB        25.8000   62.1140   12.8760 C.3   312  TYR312      0.0534
     46  CG        26.5650   63.3900   12.7890 C.ar  312  TYR312     -0.0201
     47  CD1       26.9750   64.0520   13.9340 C.ar  312  TYR312     -0.0009
     48  CD2       26.8040   63.9950   11.5370 C.ar  312  TYR312     -0.0009
     49  CE1       27.6730   65.2730   13.8540 C.ar  312  TYR312      0.0417
     50  CE2       27.4470   65.2290   11.4280 C.ar  312  TYR312      0.0417
     51  CZ        27.9390   65.8450   12.6010 C.ar  312  TYR312      0.1957
     52  OH        28.5980   67.0710   12.5120 O.3   312  TYR312     -0.2866
     53  N         33.0360   69.7520   11.4390 N.3   338  SER338     -0.1202
     54  CA        31.9750   69.3770   10.4950 C.3   338  SER338      0.2020
     55  C         31.1930   70.6100    9.9830 C.2   338  SER338      0.2619
     56  O         30.8880   71.5320   10.7240 O.2   338  SER338     -0.2717
     57  CB        31.0410   68.4630   11.2510 C.3   338  SER338      0.2103
     58  OG        30.0120   67.9750   10.4370 O.3   338  SER338     -0.2182
     59  N         30.8130   70.6080    8.7360 N.am  339  ALA339     -0.1965
     60  CA        29.9790   71.6780    8.2170 C.3   339  ALA339      0.1728
     61  C         28.5680   71.1390    8.2650 C.2   339  ALA339      0.2616
     62  O         28.3160   69.9970    7.8850 O.2   339  ALA339     -0.2715
     63  CB        30.3730   71.9710    6.7610 C.3   339  ALA339      0.0334
     64  N         27.6350   71.9520    8.7510 N.am  340  ILE340     -0.1963
     65  CA        26.2740   71.4590    9.0150 C.3   340  ILE340      0.1727
     66  C         25.1880   72.4100    8.5420 C.2   340  ILE340      0.2616
     67  O         25.4600   73.6460    8.3780 O.2   340  ILE340     -0.2715
     68  CB        26.0520   71.2080   10.5110 C.3   340  ILE340      0.0290
     69  CG1       25.8600   72.5250   11.2450 C.3   340  ILE340      0.0022
     70  CG2       27.2120   70.3650   11.0590 C.3   340  ILE340      0.0023
     71  CD1       25.2530   72.3000   12.6910 C.3   340  ILE340      0.0001
     72  N         23.9850   71.8620    8.2870 N.am  341  SER341     -0.1950
     73  CA        22.8850   72.7140    7.9270 C.3   341  SER341      0.1924
     74  C         22.5720   73.6840    9.0760 C.2   341  SER341      0.2314
     75  O         22.6960   73.3310   10.2750 O.2   341  SER341     -0.2863
     76  CB        21.6380   71.8990    7.6060 C.3   341  SER341      0.2116
     77  OG        20.5090   72.7900    7.4450 O.3   341  SER341     -0.2180
     78  N         16.8110   70.5600   10.2150 N.3   346  LYS346     -0.1231
     79  CA        17.9180   69.6140   10.0860 C.3   346  LYS346      0.1693
     80  C         18.7680   69.5450   11.3220 C.2   346  LYS346      0.2591
     81  O         19.2500   68.5030   11.6630 O.2   346  LYS346     -0.2718
     82  CB        18.7180   69.8800    8.8510 C.3   346  LYS346      0.0285
     83  CG        17.7950   69.7730    7.5940 C.3   346  LYS346      0.0035
     84  CD        18.3900   70.5050    6.4220 C.3   346  LYS346      0.0206
     85  CE        17.6020   70.2710    5.1430 C.3   346  LYS346      0.1093
     86  NZ        16.4180   71.1900    5.0490 N.3   346  LYS346     -0.1314
     87  N         18.9010   70.6520   12.0440 N.am  347  ILE347     -0.1980
     88  CA        19.7120   70.6640   13.2480 C.3   347  ILE347      0.1595
     89  C         19.2080   69.6820   14.2680 C.2   347  ILE347      0.2287
     90  O         19.9880   69.0720   14.9930 O.2   347  ILE347     -0.2864
     91  CB        19.8690   72.0640   13.8290 C.3   347  ILE347      0.0276
     92  CG1       20.9280   72.8110   13.0100 C.3   347  ILE347      0.0022
     93  CG2       20.3600   72.0290   15.3240 C.3   347  ILE347      0.0022
     94  CD1       20.9960   74.2670   13.2680 C.3   347  ILE347      0.0001
     95  N         20.1230   65.6810   15.0120 N.3   350  VAL350     -0.1245
     96  CA        21.4000   65.2300   15.5910 C.3   350  VAL350      0.1561
     97  C         21.5630   65.7890   16.9480 C.2   350  VAL350      0.2260
     98  O         21.1850   66.9410   17.2050 O.2   350  VAL350     -0.2867
     99  CB        22.5730   65.8270   14.7750 C.3   350  VAL350      0.0252
    100  CG1       23.9420   65.3140   15.3650 C.3   350  VAL350      0.0019
    101  CG2       22.3800   65.4930   13.2840 C.3   350  VAL350      0.0019
    102  N         23.8720   67.4110   18.5380 N.3   352  TYR352     -0.1241
    103  CA        25.1230   68.1480   18.5690 C.3   352  TYR352      0.1605
    104  C         25.6700   68.4090   19.9420 C.2   352  TYR352      0.2264
    105  O         26.8950   68.6070   20.1210 O.2   352  TYR352     -0.2867
    106  CB        24.9900   69.4470   17.8080 C.3   352  TYR352      0.0534
    107  CG        24.7830   69.2280   16.3490 C.ar  352  TYR352     -0.0201
    108  CD1       25.8180   68.7830   15.5460 C.ar  352  TYR352     -0.0009
    109  CD2       23.5710   69.5170   15.7490 C.ar  352  TYR352     -0.0009
    110  CE1       25.6270   68.5850   14.1850 C.ar  352  TYR352      0.0417
    111  CE2       23.3760   69.3290   14.3860 C.ar  352  TYR352      0.0417
    112  CZ        24.4310   68.8670   13.6320 C.ar  352  TYR352      0.1957
    113  OH        24.2660   68.6500   12.3250 O.3   352  TYR352     -0.2866
@<TRIPOS>BOND
     1    32    33   ar
     2    32    30   ar
     3    33    31   ar
     4    30    28   ar
     5    23    24    1
     6    31    29   ar
     7    86    85    1
     8    85    84    1
     9    28    29   ar
    10    28    27    1
    11    11    10    1
    12    11    12    2
    13    15    17   ar
    14    15    14   ar
    15    10     9    1
    16    10    13    1
    17    24    27    1
    18    24    25    1
    19    17    18   ar
    20    26    25    2
    21    84    83    1
    22    25    34   am
    23    14    13    1
    24    14    16   ar
    25    63    60    1
    26    18    16   ar
    27    18    20   ar
    28     3     2    1
    29     3     4    2
    30    16    19   ar
    31    77    76    1
    32    20    22   ar
    33    83    82    1
    34    76    73    1
    35    34    35    1
    36    34    40    1
    37     2     1    1
    38     2     5    1
    39    62    61    2
    40    73    72    1
    41    73    74    1
    42    60    61    1
    43    60    59    1
    44    61    64   am
    45     8     6    1
    46    72    66   am
    47    67    66    2
    48    36    35    1
    49    36    37    2
    50    35    38    1
    51     7     5    1
    52    66    65    1
    53    40    39    1
    54    19    21   ar
    55    22    21   ar
    56    59    55   am
    57    64    65    1
    58    82    79    1
    59     5     6    1
    60    65    68    1
    61    74    75    2
    62    39    38    1
    63    55    54    1
    64    55    56    2
    65    79    78    1
    66    79    80    1
    67    58    57    1
    68    54    57    1
    69    54    53    1
    70    68    70    1
    71    68    69    1
    72    69    71    1
    73    80    81    2
    74    80    87   am
    75    50    48   ar
    76    50    51   ar
    77    48    46   ar
    78    87    88    1
    79   113   112    1
    80    52    51    1
    81    51    49   ar
    82    46    45    1
    83    46    47   ar
    84    45    42    1
    85    41    42    1
    86    92    94    1
    87    92    91    1
    88    42    43    1
    89    88    91    1
    90    88    89    1
    91   101    99    1
    92   112   110   ar
    93   112   111   ar
    94    91    93    1
    95    49    47   ar
    96   110   108   ar
    97    89    90    2
    98    44    43    2
    99   111   109   ar
   100    99   100    1
   101    99    96    1
   102    95    96    1
   103   108   107   ar
   104    96    97    1
   105   109   107   ar
   106   107   106    1
   107    97    98    2
   108   106   103    1
   109   102   103    1
   110   103   104    1
   111   104   105    2
