@<TRIPOS>MOLECULE
tmp/2wm0A00.pdb
 182 180 0 0 0
SMALL
GASTEIGER

@<TRIPOS>ATOM
      1  N         38.6550   71.5850   -7.7220 N.3   144  TRP144     -0.1241
      2  CA        38.3540   71.8240   -9.1610 C.3   144  TRP144      0.1605
      3  C         38.5170   73.3220   -9.5340 C.2   144  TRP144      0.2264
      4  O         38.3360   73.6830  -10.6910 O.2   144  TRP144     -0.2867
      5  CB        36.8930   71.4010   -9.4580 C.3   144  TRP144      0.0550
      6  CG        35.8780   72.0640   -8.5900 C.ar  144  TRP144      0.0003
      7  CD1       35.2240   73.2220   -8.8340 C.ar  144  TRP144      0.0946
      8  CD2       35.4260   71.6120   -7.2860 C.ar  144  TRP144      0.0152
      9  NE1       34.3800   73.5240   -7.7870 N.ar  144  TRP144     -0.2442
     10  CE2       34.4810   72.5510   -6.8280 C.ar  144  TRP144      0.0810
     11  CE3       35.7430   70.5000   -6.4640 C.ar  144  TRP144      0.0012
     12  CZ2       33.8210   72.4270   -5.5800 C.ar  144  TRP144      0.0191
     13  CZ3       35.0850   70.3760   -5.2120 C.ar  144  TRP144      0.0001
     14  CH2       34.1500   71.3270   -4.7820 C.ar  144  TRP144      0.0015
     15  N         38.0840   78.4630  -12.8520 N.3   149  ARG149     -0.1245
     16  CA        38.1950   79.5460  -11.9070 C.3   149  ARG149      0.1563
     17  C         39.6580   80.0430  -11.7760 C.2   149  ARG149      0.2260
     18  O         39.8970   81.1020  -11.2110 O.2   149  ARG149     -0.2867
     19  CB        37.6390   79.1230  -10.5360 C.3   149  ARG149      0.0307
     20  CG        36.1240   78.9430  -10.4640 C.3   149  ARG149      0.0489
     21  CD        35.7620   78.1820   -9.1870 C.3   149  ARG149      0.2205
     22  NE        34.3190   78.1100   -8.9340 N.pl3 149  ARG149     -0.0865
     23  CZ        33.5080   77.2550   -9.5550 C.cat 149  ARG149      0.5346
     24  NH1       33.9870   76.4100  -10.4600 N.pl3 149  ARG149      0.1354
     25  NH2       32.2300   77.2640   -9.2880 N.pl3 149  ARG149      0.1354
     26  N         36.9240   68.7040   -2.2120 N.3   168  PHE168     -0.1241
     27  CA        36.5090   67.7450   -1.1900 C.3   168  PHE168      0.1605
     28  C         37.1820   66.4270   -1.4380 C.2   168  PHE168      0.2264
     29  O         37.5200   66.0780   -2.5720 O.2   168  PHE168     -0.2867
     30  CB        34.9790   67.4450   -1.2610 C.3   168  PHE168      0.0534
     31  CG        34.1200   68.5830   -0.8300 C.ar  168  PHE168     -0.0203
     32  CD1       34.0030   68.9070    0.5150 C.ar  168  PHE168     -0.0042
     33  CD2       33.3660   69.2770   -1.7520 C.ar  168  PHE168     -0.0042
     34  CE1       33.1860   69.9520    0.9300 C.ar  168  PHE168     -0.0003
     35  CE2       32.5550   70.2960   -1.3480 C.ar  168  PHE168     -0.0003
     36  CZ        32.4460   70.6280    0.0060 C.ar  168  PHE168     -0.0000
     37  N         26.7730   62.0370   -7.5290 N.3   181  LEU181     -0.1245
     38  CA        27.8110   62.5000   -8.4730 C.3   181  LEU181      0.1561
     39  C         27.3780   62.4710   -9.9030 C.2   181  LEU181      0.2260
     40  O         27.9740   63.1640  -10.7350 O.2   181  LEU181     -0.2867
     41  CB        29.0690   61.6240   -8.4400 C.3   181  LEU181      0.0270
     42  CG        29.9700   61.9770   -7.2940 C.3   181  LEU181      0.0019
     43  CD1       31.2370   61.0610   -7.3450 C.3   181  LEU181      0.0001
     44  CD2       30.4000   63.4790   -7.3220 C.3   181  LEU181      0.0001
     45  N         26.7380   65.4830  -12.3530 N.3   184  ILE184     -0.1245
     46  CA        27.8140   66.2740  -12.9400 C.3   184  ILE184      0.1561
     47  C         28.5340   65.4140  -13.9530 C.2   184  ILE184      0.2260
     48  O         29.0590   64.3380  -13.6190 O.2   184  ILE184     -0.2867
     49  CB        28.8020   66.7010  -11.8570 C.3   184  ILE184      0.0252
     50  CG1       28.0860   67.5690  -10.8310 C.3   184  ILE184      0.0019
     51  CG2       29.9930   67.4600  -12.4610 C.3   184  ILE184      0.0019
     52  CD1       28.4120   67.1450   -9.4180 C.3   184  ILE184      0.0001
     53  N         31.7760   63.0750  -13.5040 N.3   187  SER187     -0.1217
     54  CA        32.2700   63.1030  -12.1010 C.3   187  SER187      0.1889
     55  C         32.2190   61.7300  -11.4440 C.2   187  SER187      0.2288
     56  O         33.1300   61.3420  -10.7410 O.2   187  SER187     -0.2866
     57  CB        31.4480   64.0900  -11.2910 C.3   187  SER187      0.2089
     58  OG        31.9760   64.2090   -9.9820 O.3   187  SER187     -0.2183
     59  N         39.5210   62.7110   -5.6760 N.3   206  HIS206     -0.1241
     60  CA        38.5700   62.7470   -6.7660 C.3   206  HIS206      0.1621
     61  C         39.2640   63.0750   -8.1080 C.2   206  HIS206      0.2264
     62  O         39.0010   62.4260   -9.1360 O.2   206  HIS206     -0.2867
     63  CB        37.5080   63.7950   -6.4590 C.3   206  HIS206      0.0745
     64  CG        36.2480   63.6210   -7.2490 C.ar  206  HIS206      0.0817
     65  ND1       35.1280   64.4080   -7.0470 N.ar  206  HIS206     -0.2268
     66  CD2       35.9140   62.7290   -8.2150 C.ar  206  HIS206      0.1154
     67  CE1       34.1780   64.0360   -7.8850 C.ar  206  HIS206      0.1986
     68  NE2       34.6320   63.0220   -8.6090 N.ar  206  HIS206     -0.2212
     69  N         33.0940   64.9070    1.9430 N.3   250  GLY250     -0.1210
     70  CA        31.6630   65.0670    1.7200 C.3   250  GLY250      0.1956
     71  C         31.3080   66.2590    0.8350 C.2   250  GLY250      0.2612
     72  O         31.8400   66.4000   -0.2670 O.2   250  GLY250     -0.2717
     73  N         30.4530   67.1180    1.3320 N.am  251  GLY251     -0.1942
     74  CA        29.8990   68.2070    0.5300 C.3   251  GLY251      0.2014
     75  C         28.6320   67.7790   -0.1670 C.2   251  GLY251      0.2639
     76  O         28.2010   66.5880   -0.0760 O.2   251  GLY251     -0.2714
     77  N         28.0310   68.7160   -0.9040 N.am  252  TRP252     -0.1959
     78  CA        26.7380   68.4250   -1.5300 C.3   252  TRP252      0.1771
     79  C         26.6790   67.1390   -2.3400 C.2   252  TRP252      0.2620
     80  O         25.7270   66.3520   -2.2240 O.2   252  TRP252     -0.2715
     81  CB        26.2990   69.6240   -2.4120 C.3   252  TRP252      0.0590
     82  CG        24.8560   69.4890   -2.8830 C.ar  252  TRP252      0.0006
     83  CD1       24.4440   69.2420   -4.1800 C.ar  252  TRP252      0.0946
     84  CD2       23.6480   69.6010   -2.0780 C.ar  252  TRP252      0.0152
     85  NE1       23.0580   69.2070   -4.2130 N.ar  252  TRP252     -0.2442
     86  CE2       22.5520   69.4350   -2.9530 C.ar  252  TRP252      0.0810
     87  CE3       23.3880   69.8130   -0.6900 C.ar  252  TRP252      0.0012
     88  CZ2       21.2140   69.4800   -2.5040 C.ar  252  TRP252      0.0191
     89  CZ3       22.0450   69.8810   -0.2430 C.ar  252  TRP252      0.0001
     90  CH2       20.9700   69.7000   -1.1630 C.ar  252  TRP252      0.0015
     91  N         27.6740   66.9060   -3.1690 N.am  253  THR253     -0.1937
     92  CA        27.6320   65.7810   -4.1090 C.3   253  THR253      0.2028
     93  C         28.3450   64.5050   -3.6610 C.2   253  THR253      0.2642
     94  O         28.2490   63.4580   -4.3580 O.2   253  THR253     -0.2714
     95  CB        28.2380   66.1690   -5.4190 C.3   253  THR253      0.1808
     96  OG1       29.6320   66.4150   -5.2090 O.3   253  THR253     -0.2208
     97  CG2       27.4890   67.4130   -6.0010 C.3   253  THR253      0.0379
     98  N         29.0540   64.5620   -2.5270 N.am  254  LEU254     -0.1977
     99  CA        29.8670   63.4000   -2.1000 C.3   254  LEU254      0.1596
    100  C         29.4250   62.9060   -0.7040 C.2   254  LEU254      0.2287
    101  O         30.1780   62.1960   -0.0220 O.2   254  LEU254     -0.2864
    102  CB        31.3530   63.7800   -2.0830 C.3   254  LEU254      0.0297
    103  CG        32.0080   63.9040   -3.4860 C.3   254  LEU254      0.0022
    104  CD1       33.4280   64.5970   -3.4480 C.3   254  LEU254      0.0001
    105  CD2       32.1860   62.4710   -4.0970 C.3   254  LEU254      0.0001
    106  N         29.7840   84.5700   -2.0220 N.3   421  TYR421     -0.1241
    107  CA        29.0340   84.4610   -3.2530 C.3   421  TYR421      0.1605
    108  C         27.6120   84.9600   -2.9260 C.2   421  TYR421      0.2264
    109  O         27.2140   84.9970   -1.7750 O.2   421  TYR421     -0.2867
    110  CB        28.9870   82.9880   -3.7690 C.3   421  TYR421      0.0534
    111  CG        28.3100   82.0440   -2.7740 C.ar  421  TYR421     -0.0201
    112  CD1       29.0400   81.4770   -1.7200 C.ar  421  TYR421     -0.0009
    113  CD2       26.9640   81.7440   -2.8650 C.ar  421  TYR421     -0.0009
    114  CE1       28.4130   80.6480   -0.7640 C.ar  421  TYR421      0.0417
    115  CE2       26.3270   80.8980   -1.9130 C.ar  421  TYR421      0.0417
    116  CZ        27.0930   80.3540   -0.8760 C.ar  421  TYR421      0.1957
    117  OH        26.5160   79.5390    0.0530 O.3   421  TYR421     -0.2866
    118  N         23.3670   84.4520   -4.0360 N.3   423  ARG423     -0.1245
    119  CA        22.3860   83.7110   -4.8300 C.3   423  ARG423      0.1563
    120  C         21.3850   84.6990   -5.3870 C.2   423  ARG423      0.2260
    121  O         21.1380   85.7200   -4.7890 O.2   423  ARG423     -0.2867
    122  CB        21.6600   82.6520   -4.0050 C.3   423  ARG423      0.0307
    123  CG        22.6190   81.5650   -3.4800 C.3   423  ARG423      0.0489
    124  CD        21.8430   80.4100   -2.8200 C.3   423  ARG423      0.2205
    125  NE        22.7300   79.2650   -2.5900 N.pl3 423  ARG423     -0.0865
    126  CZ        22.9390   78.3010   -3.4750 C.cat 423  ARG423      0.5346
    127  NH1       22.2810   78.3220   -4.6460 N.pl3 423  ARG423      0.1354
    128  NH2       23.7900   77.3110   -3.1860 N.pl3 423  ARG423      0.1354
    129  N         29.4810   80.8360  -12.7140 N.3   449  TRP449     -0.1227
    130  CA        29.8720   79.4970  -13.1260 C.3   449  TRP449      0.1737
    131  C         28.6610   78.5820  -13.2610 C.2   449  TRP449      0.2595
    132  O         28.6900   77.6060  -14.0100 O.2   449  TRP449     -0.2718
    133  CB        30.8840   78.8920  -12.1210 C.3   449  TRP449      0.0564
    134  CG        32.0000   79.8440  -11.7750 C.ar  449  TRP449      0.0003
    135  CD1       32.1360   80.5430  -10.6120 C.ar  449  TRP449      0.0946
    136  CD2       33.1130   80.2210  -12.6080 C.ar  449  TRP449      0.0152
    137  NE1       33.2640   81.3230  -10.6660 N.ar  449  TRP449     -0.2442
    138  CE2       33.8800   81.1560  -11.8770 C.ar  449  TRP449      0.0810
    139  CE3       33.5390   79.8540  -13.8950 C.ar  449  TRP449      0.0012
    140  CZ2       35.0610   81.7330  -12.3860 C.ar  449  TRP449      0.0191
    141  CZ3       34.7080   80.4120  -14.4000 C.ar  449  TRP449      0.0001
    142  CH2       35.4580   81.3590  -13.6470 C.ar  449  TRP449      0.0015
    143  N         27.6260   78.8470  -12.4880 N.am  450  GLU450     -0.1979
    144  CA        26.3570   78.1560  -12.6170 C.3   450  GLU450      0.1602
    145  C         25.1920   79.0660  -12.2960 C.2   450  GLU450      0.2287
    146  O         25.3000   79.9770  -11.4810 O.2   450  GLU450     -0.2864
    147  CB        26.3050   76.9050  -11.7310 C.3   450  GLU450      0.0415
    148  CG        26.6080   77.1100  -10.2700 C.3   450  GLU450      0.1163
    149  CD        26.9370   75.7670   -9.5400 C.2   450  GLU450      0.3649
    150  OE1       25.9540   75.0460   -9.1970 O.co2 450  GLU450     -0.2457
    151  OE2       28.1650   75.4610   -9.3190 O.co2 450  GLU450     -0.2457
    152  N         23.8650   81.6830   -8.9900 N.3   453  ILE453     -0.1245
    153  CA        24.9900   81.9390   -8.0580 C.3   453  ILE453      0.1561
    154  C         26.0310   82.8570   -8.7080 C.2   453  ILE453      0.2260
    155  O         26.4610   82.6340   -9.8330 O.2   453  ILE453     -0.2867
    156  CB        25.7080   80.5980   -7.5960 C.3   453  ILE453      0.0252
    157  CG1       24.6890   79.6620   -6.9620 C.3   453  ILE453      0.0019
    158  CG2       26.8440   80.9050   -6.5770 C.3   453  ILE453      0.0019
    159  CD1       24.8180   78.2290   -7.3820 C.3   453  ILE453      0.0001
    160  N         32.6500   80.0950    2.5110 N.3   516  TRP516     -0.1227
    161  CA        32.6790   79.2960    1.2720 C.3   516  TRP516      0.1737
    162  C         32.5530   80.3050    0.1240 C.2   516  TRP516      0.2595
    163  O         31.6010   81.0850    0.1400 O.2   516  TRP516     -0.2718
    164  CB        31.4480   78.3570    1.2380 C.3   516  TRP516      0.0564
    165  CG        31.3840   77.5790   -0.0790 C.ar  516  TRP516      0.0003
    166  CD1       30.8180   77.9860   -1.2670 C.ar  516  TRP516      0.0946
    167  CD2       31.9640   76.2880   -0.3280 C.ar  516  TRP516      0.0152
    168  NE1       31.0230   77.0280   -2.2390 N.ar  516  TRP516     -0.2442
    169  CE2       31.7320   75.9750   -1.6930 C.ar  516  TRP516      0.0810
    170  CE3       32.6720   75.3760    0.4670 C.ar  516  TRP516      0.0012
    171  CZ2       32.1760   74.7410   -2.2810 C.ar  516  TRP516      0.0191
    172  CZ3       33.1310   74.1450   -0.1190 C.ar  516  TRP516      0.0001
    173  CH2       32.8700   73.8560   -1.4720 C.ar  516  TRP516      0.0015
    174  N         33.4290   80.3300   -0.8830 N.am  517  GLU517     -0.1979
    175  CA        34.6210   79.5330   -1.0600 C.3   517  GLU517      0.1602
    176  C         35.6810   80.5630   -1.4210 C.2   517  GLU517      0.2287
    177  O         35.3440   81.5860   -2.0170 O.2   517  GLU517     -0.2864
    178  CB        34.4270   78.5170   -2.2150 C.3   517  GLU517      0.0415
    179  CG        33.8490   79.1220   -3.5250 C.3   517  GLU517      0.1163
    180  CD        33.7250   78.0660   -4.6150 C.2   517  GLU517      0.3649
    181  OE1       34.7100   77.7400   -5.3210 O.co2 517  GLU517     -0.2457
    182  OE2       32.6120   77.5560   -4.7220 O.co2 517  GLU517     -0.2457
@<TRIPOS>BOND
     1   141   139   ar
     2   141   142   ar
     3   132   131    2
     4    47    48    2
     5    47    46    1
     6   139   136   ar
     7   142   140   ar
     8    53    54    1
     9   131   130    1
    10   131   143   am
    11   130   129    1
    12   130   133    1
    13    46    45    1
    14    46    49    1
    15    15    16    1
    16   144   143    1
    17   144   145    1
    18   144   147    1
    19   136   138   ar
    20   136   134   ar
    21    51    49    1
    22   140   138   ar
    23   145   146    2
    24   133   134    1
    25    54    55    1
    26    54    57    1
    27    16    17    1
    28    16    19    1
    29   138   137   ar
    30    49    50    1
    31    17    18    2
    32   134   135   ar
    33   147   148    1
    34    55    56    2
    35    57    58    1
    36    50    52    1
    37    40    39    2
    38     4     3    2
    39   137   135   ar
    40    19    20    1
    41    20    21    1
    42    24    23    1
    43   148   149    1
    44    39    38    1
    45   155   154    2
    46    23    25    1
    47    23    22    2
    48   149   151   ar
    49   149   150   ar
    50     3     2    1
    51     5     2    1
    52     5     6    1
    53    21    22    1
    54     2     1    1
    55    62    61    2
    56   152   153    1
    57     7     6   ar
    58     7     9   ar
    59   154   153    1
    60    68    66   ar
    61    68    67   ar
    62     6     8   ar
    63    38    41    1
    64    38    37    1
    65    41    42    1
    66    66    64   ar
    67    61    60    1
    68   153   156    1
    69    67    65   ar
    70     9    10   ar
    71   156   157    1
    72   156   158    1
    73   159   157    1
    74    43    42    1
    75    44    42    1
    76     8    10   ar
    77     8    11   ar
    78    64    65   ar
    79    64    63    1
    80    10    12   ar
    81    60    63    1
    82    60    59    1
    83    11    13   ar
    84    97    95    1
    85    12    14   ar
    86    95    96    1
    87    95    92    1
    88   120   119    1
    89   120   121    2
    90   181   180   ar
    91    13    14   ar
    92   119   118    1
    93   119   122    1
    94   182   180   ar
    95   127   126    1
    96   180   179    1
    97    94    93    2
    98    85    83   ar
    99    85    86   ar
   100    83    82   ar
   101    92    93    1
   102    92    91    1
   103   105   103    1
   104   122   123    1
   105   110   107    1
   106   110   111    1
   107    93    98   am
   108   179   178    1
   109   103   104    1
   110   103   102    1
   111   123   124    1
   112   126   128    1
   113   126   125    2
   114   107   108    1
   115   107   106    1
   116    91    79   am
   117    86    88   ar
   118    86    84   ar
   119   108   109    2
   120    82    81    1
   121    82    84   ar
   122   113   111   ar
   123   113   115   ar
   124   124   125    1
   125   111   112   ar
   126    29    28    2
   127    98    99    1
   128    88    90   ar
   129    81    78    1
   130    79    80    2
   131    79    78    1
   132   171   169   ar
   133   171   173   ar
   134   168   169   ar
   135   168   166   ar
   136   178   175    1
   137    26    27    1
   138    99   102    1
   139    99   100    1
   140    84    87   ar
   141   177   176    2
   142   115   116   ar
   143    33    35   ar
   144    33    31   ar
   145   112   114   ar
   146   169   167   ar
   147    78    77    1
   148   173   172   ar
   149    28    27    1
   150   176   175    1
   151    35    36   ar
   152   166   165   ar
   153    30    27    1
   154    30    31    1
   155    90    89   ar
   156   175   174    1
   157    77    75   am
   158   174   162   am
   159   116   114   ar
   160   116   117    1
   161    31    32   ar
   162   100   101    2
   163    87    89   ar
   164   167   165   ar
   165   167   170   ar
   166    72    71    2
   167    75    76    2
   168    75    74    1
   169   172   170   ar
   170   165   164    1
   171    36    34   ar
   172   162   163    2
   173   162   161    1
   174    32    34   ar
   175    74    73    1
   176    71    73   am
   177    71    70    1
   178   164   161    1
   179   161   160    1
   180    70    69    1
