@<TRIPOS>MOLECULE
tmp/2wm1A00.pdb
 147 147 0 0 0
SMALL
GASTEIGER

@<TRIPOS>ATOM
      1  N        -19.6750   25.0630    7.9490 N.3     8  HIS8       -0.1241
      2  CA       -18.8540   23.9000    7.7500 C.3     8  HIS8        0.1621
      3  C        -19.4180   23.1670    6.5450 C.2     8  HIS8        0.2264
      4  O        -20.6390   23.1490    6.3510 O.2     8  HIS8       -0.2867
      5  CB       -18.8920   22.9870    8.9970 C.3     8  HIS8        0.0745
      6  CG       -18.3020   23.6120   10.2350 C.ar    8  HIS8        0.0817
      7  ND1      -16.9640   23.9310   10.3340 N.ar    8  HIS8       -0.2268
      8  CD2      -18.8590   23.9630   11.4220 C.ar    8  HIS8        0.1154
      9  CE1      -16.7240   24.4740   11.5210 C.ar    8  HIS8        0.1986
     10  NE2      -17.8440   24.4710   12.2150 N.ar    8  HIS8       -0.2212
     11  N        -21.6330   10.3980   13.5590 N.3    47  ARG47      -0.1245
     12  CA       -22.4440   11.5640   13.2410 C.3    47  ARG47       0.1563
     13  C        -23.3290   11.3420   12.0180 C.2    47  ARG47       0.2260
     14  O        -22.9140   10.6920   11.0780 O.2    47  ARG47      -0.2867
     15  CB       -21.5380   12.7630   12.9910 C.3    47  ARG47       0.0307
     16  CG       -22.2850   14.0730   12.8730 C.3    47  ARG47       0.0489
     17  CD       -21.3400   15.2450   13.1170 C.3    47  ARG47       0.2205
     18  NE       -22.0790   16.3740   13.6480 N.pl3  47  ARG47      -0.0865
     19  CZ       -21.6030   17.6120   13.7600 C.cat  47  ARG47       0.5346
     20  NH1      -20.3670   17.8830   13.3620 N.pl3  47  ARG47       0.1354
     21  NH2      -22.3700   18.5830   14.2640 N.pl3  47  ARG47       0.1354
     22  N        -15.2830   20.4490    8.3240 N.3    76  VAL76      -0.1231
     23  CA       -15.6610   19.9200    9.6390 C.3    76  VAL76       0.1678
     24  C        -14.3780   19.6400   10.4510 C.2    76  VAL76       0.2434
     25  O        -13.4680   18.9560    9.9590 O.2    76  VAL76      -0.2733
     26  CB       -16.5280   18.6270    9.4830 C.3    76  VAL76       0.0265
     27  CG1      -17.0010   18.0780   10.8500 C.3    76  VAL76       0.0020
     28  CG2      -17.7350   18.8980    8.6080 C.3    76  VAL76       0.0020
     29  N        -14.2950   20.1780   11.6910 N.am   77  PRO77      -0.2718
     30  CA       -13.0570   20.1180   12.4750 C.3    77  PRO77       0.1535
     31  C        -12.4500   18.7150   12.6900 C.2    77  PRO77       0.2598
     32  O        -11.2330   18.5750   12.8490 O.2    77  PRO77      -0.2715
     33  CB       -13.4620   20.8010   13.8110 C.3    77  PRO77       0.0310
     34  CG       -14.5300   21.7760   13.4150 C.3    77  PRO77       0.0237
     35  CD       -15.3090   21.0460   12.3340 C.3    77  PRO77       0.0939
     36  N        -13.2740   17.6850   12.6740 N.am   78  VAL78      -0.1978
     37  CA       -12.8140   16.3120   12.8500 C.3    78  VAL78       0.1596
     38  C        -11.8940   15.8860   11.7060 C.2    78  VAL78       0.2287
     39  O        -11.0740   14.9680   11.8500 O.2    78  VAL78      -0.2864
     40  CB       -14.0060   15.3850   12.9360 C.3    78  VAL78       0.0276
     41  CG1      -14.5600   15.0920   11.5120 C.3    78  VAL78       0.0022
     42  CG2      -13.6470   14.1110   13.7430 C.3    78  VAL78       0.0022
     43  N        -11.1490   27.4120   15.9220 N.3   174  HIS174     -0.1227
     44  CA       -12.3530   26.5970   16.2380 C.3   174  HIS174      0.1737
     45  C        -12.0310   25.5050   17.2750 C.2   174  HIS174      0.2438
     46  O        -11.0940   24.7320   17.0910 O.2   174  HIS174     -0.2733
     47  CB       -12.8690   25.8810   14.9600 C.3   174  HIS174      0.0758
     48  CG       -14.2630   25.3420   15.1040 C.ar  174  HIS174      0.0818
     49  ND1      -14.5870   24.3390   15.9930 N.ar  174  HIS174     -0.2268
     50  CD2      -15.4280   25.7290   14.5350 C.ar  174  HIS174      0.1154
     51  CE1      -15.8900   24.0880   15.9280 C.ar  174  HIS174      0.1986
     52  NE2      -16.4190   24.9200   15.0480 N.ar  174  HIS174     -0.2212
     53  N        -12.8010   25.4330   18.3670 N.am  175  PRO175     -0.2729
     54  CA       -12.5640   24.3920   19.3760 C.3   175  PRO175      0.1401
     55  C        -12.7420   23.0100   18.7730 C.2   175  PRO175      0.2269
     56  O        -13.6330   22.8180   17.9440 O.2   175  PRO175     -0.2865
     57  CB       -13.6480   24.6710   20.4190 C.3   175  PRO175      0.0296
     58  CG       -14.7530   25.4160   19.5830 C.3   175  PRO175      0.0237
     59  CD       -13.9610   26.2780   18.6870 C.3   175  PRO175      0.0939
     60  N        -11.9810   17.7810   21.9330 N.3   178  MET178     -0.1245
     61  CA       -12.3520   17.8590   23.3680 C.3   178  MET178      0.1570
     62  C        -12.3210   16.4390   23.9550 C.2   178  MET178      0.2261
     63  O        -12.4630   15.4850   23.2180 O.2   178  MET178     -0.2867
     64  CB       -13.8340   18.3020   23.5320 C.3   178  MET178      0.0387
     65  CG       -14.2090   19.7120   23.0830 C.3   178  MET178      0.0595
     66  SD       -14.4370   19.7970   21.3030 S.3   178  MET178     -0.1393
     67  CE       -15.9350   18.8260   21.0730 C.3   178  MET178      0.0692
     68  N        -24.3750   15.7480   26.3480 N.3   188  TRP188     -0.1241
     69  CA       -23.7340   16.5350   25.2920 C.3   188  TRP188      0.1605
     70  C        -22.6890   17.4950   25.8710 C.2   188  TRP188      0.2264
     71  O        -22.4540   18.5510   25.3020 O.2   188  TRP188     -0.2867
     72  CB       -24.8000   17.3530   24.5620 C.3   188  TRP188      0.0550
     73  CG       -24.5040   17.5870   23.0730 C.ar  188  TRP188      0.0003
     74  CD1      -23.4900   17.0490   22.3430 C.ar  188  TRP188      0.0946
     75  CD2      -25.2630   18.4150   22.1610 C.ar  188  TRP188      0.0152
     76  NE1      -23.5580   17.4960   21.0230 N.ar  188  TRP188     -0.2442
     77  CE2      -24.6440   18.3210   20.8910 C.ar  188  TRP188      0.0810
     78  CE3      -26.4260   19.1960   22.2920 C.ar  188  TRP188      0.0012
     79  CZ2      -25.1350   19.0040   19.7650 C.ar  188  TRP188      0.0191
     80  CZ3      -26.9200   19.8630   21.1720 C.ar  188  TRP188      0.0001
     81  CH2      -26.2670   19.7730   19.9330 C.ar  188  TRP188      0.0015
     82  N        -19.7480   19.3640   23.7780 N.3   191  TRP191     -0.1241
     83  CA       -20.1980   20.5000   22.9380 C.3   191  TRP191      0.1605
     84  C        -20.6880   21.6780   23.7920 C.2   191  TRP191      0.2264
     85  O        -20.4600   22.8450   23.4540 O.2   191  TRP191     -0.2867
     86  CB       -21.3230   20.0290   21.9550 C.3   191  TRP191      0.0550
     87  CG       -20.7200   19.4500   20.6600 C.ar  191  TRP191      0.0003
     88  CD1      -20.4950   20.1360   19.4780 C.ar  191  TRP191      0.0946
     89  CD2      -20.1920   18.1310   20.4470 C.ar  191  TRP191      0.0152
     90  NE1      -19.8800   19.3220   18.5680 N.ar  191  TRP191     -0.2442
     91  CE2      -19.6900   18.0870   19.1250 C.ar  191  TRP191      0.0810
     92  CE3      -20.1250   16.9790   21.2280 C.ar  191  TRP191      0.0012
     93  CZ2      -19.1030   16.9310   18.5700 C.ar  191  TRP191      0.0191
     94  CZ3      -19.5530   15.8210   20.6730 C.ar  191  TRP191      0.0001
     95  CH2      -19.0510   15.8120   19.3520 C.ar  191  TRP191      0.0015
     96  N        -16.3180   22.6890   24.4840 N.3   195  MET195     -0.1245
     97  CA       -16.0010   23.6320   23.4220 C.3   195  MET195      0.1570
     98  C        -15.6840   25.0260   23.9480 C.2   195  MET195      0.2261
     99  O        -14.6100   25.5300   23.6590 O.2   195  MET195     -0.2867
    100  CB       -17.1030   23.6410   22.3790 C.3   195  MET195      0.0387
    101  CG       -16.9340   22.5030   21.3820 C.3   195  MET195      0.0595
    102  SD       -18.0700   22.6680   19.9430 S.3   195  MET195     -0.1393
    103  CE       -18.0350   24.4190   19.6280 C.3   195  MET195      0.0692
    104  N        -17.7270   30.6620   18.6650 N.3   224  HIS224     -0.1241
    105  CA       -18.6380   30.5990   19.8210 C.3   224  HIS224      0.1621
    106  C        -18.4840   31.7050   20.8670 C.2   224  HIS224      0.2264
    107  O        -18.4460   31.4420   22.1100 O.2   224  HIS224     -0.2867
    108  CB       -18.5880   29.2190   20.5380 C.3   224  HIS224      0.0745
    109  CG       -18.7490   28.0370   19.6260 C.ar  224  HIS224      0.0817
    110  ND1      -19.9070   27.7910   18.9120 N.ar  224  HIS224     -0.2268
    111  CD2      -17.8940   27.0410   19.2990 C.ar  224  HIS224      0.1154
    112  CE1      -19.7520   26.7000   18.1780 C.ar  224  HIS224      0.1986
    113  NE2      -18.5300   26.2400   18.3740 N.ar  224  HIS224     -0.2212
    114  N        -22.6450   28.5520   12.5580 N.3   291  ASP291     -0.1239
    115  CA       -22.3640   27.1070   12.6620 C.3   291  ASP291      0.1674
    116  C        -23.2980   26.2600   11.7790 C.2   291  ASP291      0.2266
    117  O        -23.5480   25.0920   12.0680 O.2   291  ASP291     -0.2867
    118  CB       -22.4150   26.5820   14.0890 C.3   291  ASP291      0.1410
    119  CG       -21.5790   25.3110   14.2760 C.2   291  ASP291      0.3668
    120  OD1      -20.5850   25.1000   13.5260 O.co2 291  ASP291     -0.2456
    121  OD2      -21.9070   24.5000   15.1870 O.co2 291  ASP291     -0.2456
    122  N        -25.0540   22.8180   11.4450 N.3   294  PHE294     -0.1228
    123  CA       -25.1910   22.0060   12.6520 C.3   294  PHE294      0.1721
    124  C        -26.2930   22.5140   13.6100 C.2   294  PHE294      0.2437
    125  O        -26.5680   23.7140   13.6870 O.2   294  PHE294     -0.2733
    126  CB       -23.8460   21.7750   13.3300 C.3   294  PHE294      0.0547
    127  CG       -22.8270   21.0650   12.4400 C.ar  294  PHE294     -0.0202
    128  CD1      -21.4750   21.4060   12.4860 C.ar  294  PHE294     -0.0042
    129  CD2      -23.2340   20.0690   11.5460 C.ar  294  PHE294     -0.0042
    130  CE1      -20.5410   20.7660   11.6730 C.ar  294  PHE294     -0.0003
    131  CE2      -22.3140   19.4260   10.7150 C.ar  294  PHE294     -0.0003
    132  CZ       -20.9570   19.7720   10.7710 C.ar  294  PHE294     -0.0000
    133  N        -26.9630   21.5920   14.3090 N.am  295  PRO295     -0.2718
    134  CA       -28.1180   21.9480   15.1690 C.3   295  PRO295      0.1535
    135  C        -27.8270   22.9400   16.3080 C.2   295  PRO295      0.2598
    136  O        -28.7280   23.6750   16.7180 O.2   295  PRO295     -0.2715
    137  CB       -28.5720   20.5810   15.7430 C.3   295  PRO295      0.0310
    138  CG       -27.3350   19.6760   15.6370 C.3   295  PRO295      0.0237
    139  CD       -26.7300   20.1320   14.2910 C.3   295  PRO295      0.0939
    140  N        -26.6010   22.9820   16.8000 N.am  296  LEU296     -0.1978
    141  CA       -26.2460   23.8970   17.8880 C.3   296  LEU296      0.1596
    142  C        -26.1180   25.3350   17.3730 C.2   296  LEU296      0.2287
    143  O        -25.7730   26.2470   18.1170 O.2   296  LEU296     -0.2864
    144  CB       -24.9060   23.4930   18.5160 C.3   296  LEU296      0.0297
    145  CG       -24.7490   23.3360   20.0400 C.3   296  LEU296      0.0022
    146  CD1      -23.3370   23.7550   20.4460 C.3   296  LEU296      0.0001
    147  CD2      -25.8390   24.0680   20.9140 C.3   296  LEU296      0.0001
@<TRIPOS>BOND
     1     4     3    2
     2     3     2    1
     3     2     1    1
     4     2     5    1
     5    22    23    1
     6    28    26    1
     7     5     6    1
     8    26    23    1
     9    26    27    1
    10    23    24    1
    11    25    24    2
    12     6     7   ar
    13     6     8   ar
    14     7     9   ar
    15    24    29   am
    16   131   132   ar
    17   131   129   ar
    18   132   130   ar
    19    14    13    2
    20     8    10   ar
    21   122   123    1
    22    41    40    1
    23     9    10   ar
    24   129   127   ar
    25   130   128   ar
    26    29    35    1
    27    29    30    1
    28    38    39    2
    29    38    37    1
    30   116   117    2
    31   116   115    1
    32    13    12    1
    33    35    34    1
    34   127   128   ar
    35   127   126    1
    36    30    31    1
    37    30    33    1
    38   114   115    1
    39   123   126    1
    40   123   124    1
    41   115   118    1
    42    36    31   am
    43    36    37    1
    44    31    32    2
    45    37    40    1
    46    16    15    1
    47    16    17    1
    48    40    42    1
    49    15    12    1
    50    17    18    1
    51    12    11    1
    52    20    19    1
    53    34    33    1
    54   120   119   ar
    55   124   125    2
    56   124   133   am
    57    18    19    2
    58    19    21    1
    59   118   119    1
    60   119   121   ar
    61   139   133    1
    62   139   138    1
    63   133   134    1
    64    50    52   ar
    65    50    48   ar
    66    47    48    1
    67    47    44    1
    68    52    51   ar
    69    48    49   ar
    70   134   137    1
    71   134   135    1
    72   138   137    1
    73    43    44    1
    74    51    49   ar
    75    44    45    1
    76   135   136    2
    77   135   140   am
    78   140   141    1
    79    46    45    2
    80    45    53   am
    81   142   141    1
    82   142   143    2
    83   141   144    1
    84    56    55    2
    85   112   113   ar
    86   112   110   ar
    87    53    59    1
    88    53    54    1
    89   113   111   ar
    90   144   145    1
    91    90    91   ar
    92    90    88   ar
    93    93    91   ar
    94    93    95   ar
    95   104   105    1
    96    59    58    1
    97    55    54    1
    98   110   109   ar
    99    91    89   ar
   100   111   109   ar
   101    95    94   ar
   102    54    57    1
   103    88    87   ar
   104    58    57    1
   105   109   108    1
   106   103   102    1
   107    79    81   ar
   108    79    77   ar
   109   105   108    1
   110   105   106    1
   111    81    80   ar
   112   102   101    1
   113   145   146    1
   114   145   147    1
   115    89    87   ar
   116    89    92   ar
   117    87    86    1
   118    94    92   ar
   119   106   107    2
   120    77    76   ar
   121    77    75   ar
   122    76    74   ar
   123    67    66    1
   124    80    78   ar
   125    66    65    1
   126   101   100    1
   127    60    61    1
   128    86    83    1
   129    75    78   ar
   130    75    73   ar
   131    74    73   ar
   132   100    97    1
   133    83    82    1
   134    83    84    1
   135    73    72    1
   136    65    64    1
   137    63    62    2
   138    61    64    1
   139    61    62    1
   140    97    98    1
   141    97    96    1
   142    85    84    2
   143    99    98    2
   144    72    69    1
   145    69    70    1
   146    69    68    1
   147    71    70    2
