@<TRIPOS>MOLECULE
tmp/2wmaB00.pdb
 117 111 0 0 0
SMALL
GASTEIGER

@<TRIPOS>ATOM
      1  N         24.3950   16.1310   -1.3690 N.3    36  MET36      -0.1245
      2  CA        23.0530   16.0700   -1.9640 C.3    36  MET36       0.1570
      3  C         22.4910   14.6610   -1.9630 C.2    36  MET36       0.2261
      4  O         21.2840   14.4590   -1.8540 O.2    36  MET36      -0.2867
      5  CB        23.0800   16.5810   -3.3960 C.3    36  MET36       0.0387
      6  CG        23.9970   17.7670   -3.6230 C.3    36  MET36       0.0595
      7  SD        23.7460   18.3790   -5.2920 S.3    36  MET36      -0.1393
      8  CE        22.3720   19.4760   -5.0030 C.3    36  MET36       0.0692
      9  N         21.1370   13.9430    1.4140 N.3    39  ILE39      -0.1231
     10  CA        19.7950   14.4950    1.4260 C.3    39  ILE39       0.1692
     11  C         18.7990   13.5140    0.7810 C.2    39  ILE39       0.2591
     12  O         17.7520   13.2220    1.3640 O.2    39  ILE39      -0.2718
     13  CB        19.7480   15.9150    0.7860 C.3    39  ILE39       0.0266
     14  CG1       20.6430   16.8800    1.5910 C.3    39  ILE39       0.0019
     15  CG2       18.3070   16.4080    0.7010 C.3    39  ILE39       0.0020
     16  CD1       20.5790   18.3370    1.2080 C.3    39  ILE39       0.0001
     17  N         19.1420   12.9780   -0.3900 N.am   40  LEU40      -0.1980
     18  CA        18.2730   12.0120   -1.0790 C.3    40  LEU40       0.1596
     19  C         18.0150   10.7770   -0.2450 C.2    40  LEU40       0.2287
     20  O         16.8700   10.3390   -0.0860 O.2    40  LEU40      -0.2864
     21  CB        18.9000   11.5660   -2.3960 C.3    40  LEU40       0.0297
     22  CG        18.0740   10.6970   -3.3390 C.3    40  LEU40       0.0022
     23  CD1       17.0290   11.5150   -4.0550 C.3    40  LEU40       0.0001
     24  CD2       18.9910   10.0520   -4.3470 C.3    40  LEU40       0.0001
     25  N         18.4160   10.3790    2.9040 N.3    42  ASP42      -0.1225
     26  CA        17.6860   10.8050    4.1130 C.3    42  ASP42       0.1805
     27  C         16.2260   10.9180    3.7580 C.2    42  ASP42       0.2597
     28  O         15.3790   10.3540    4.4500 O.2    42  ASP42      -0.2718
     29  CB        18.2060   12.1470    4.6520 C.3    42  ASP42       0.1424
     30  CG        17.4980   12.5940    5.9420 C.2    42  ASP42       0.3668
     31  OD1       16.6300   13.4780    5.8560 O.co2  42  ASP42      -0.2456
     32  OD2       17.8040   12.0770    7.0430 O.co2  42  ASP42      -0.2456
     33  N         15.9470   11.6230    2.6620 N.am   43  TRP43      -0.1976
     34  CA        14.5980   11.7200    2.1290 C.3    43  TRP43       0.1640
     35  C         13.9390   10.3530    1.9060 C.2    43  TRP43       0.2290
     36  O         12.7550   10.1730    2.2060 O.2    43  TRP43      -0.2864
     37  CB        14.5810   12.5150    0.8280 C.3    43  TRP43       0.0576
     38  CG        13.2330   12.5720    0.2470 C.ar   43  TRP43       0.0006
     39  CD1       12.1390   13.1420    0.8060 C.ar   43  TRP43       0.0946
     40  CD2       12.8060   12.0190   -1.0010 C.ar   43  TRP43       0.0152
     41  NE1       11.0500   12.9930   -0.0190 N.ar   43  TRP43      -0.2442
     42  CE2       11.4360   12.3120   -1.1400 C.ar   43  TRP43       0.0810
     43  CE3       13.4500   11.3120   -2.0230 C.ar   43  TRP43       0.0012
     44  CZ2       10.6960   11.9180   -2.2500 C.ar   43  TRP43       0.0191
     45  CZ3       12.7100   10.9220   -3.1310 C.ar   43  TRP43       0.0001
     46  CH2       11.3530   11.2240   -3.2320 C.ar   43  TRP43       0.0015
     47  N         12.6970    8.7660    5.0960 N.3    46  GLU46      -0.1245
     48  CA        11.4690    9.4570    5.4820 C.3    46  GLU46       0.1567
     49  C         10.3210    8.8190    4.7490 C.2    46  GLU46       0.2260
     50  O          9.3600    8.3770    5.3620 O.2    46  GLU46      -0.2867
     51  CB        11.5720   10.9160    5.0800 C.3    46  GLU46       0.0388
     52  CG        10.9350   11.8950    6.0280 C.3    46  GLU46       0.1160
     53  CD        11.7720   13.1490    6.1260 C.2    46  GLU46       0.3649
     54  OE1       11.8130   13.7510    7.2260 O.co2  46  GLU46      -0.2457
     55  OE2       12.4210   13.5070    5.1050 O.co2  46  GLU46      -0.2457
     56  N         21.4570   18.1090  -10.4380 N.3    76  ARG76      -0.1231
     57  CA        20.7420   18.1900   -9.1520 C.3    76  ARG76       0.1694
     58  C         19.2220   18.1950   -9.3360 C.2    76  ARG76       0.2592
     59  O         18.5030   17.5830   -8.5520 O.2    76  ARG76      -0.2718
     60  CB        21.1580   19.4180   -8.3450 C.3    76  ARG76       0.0321
     61  CG        20.7680   20.7360   -8.9970 C.3    76  ARG76       0.0489
     62  CD        19.9090   21.6280   -8.0840 C.3    76  ARG76       0.2205
     63  NE        20.5310   21.9160   -6.7800 N.pl3  76  ARG76      -0.0865
     64  CZ        21.6690   22.5960   -6.6000 C.cat  76  ARG76       0.5346
     65  NH1       22.3680   23.0670   -7.6400 N.pl3  76  ARG76       0.1354
     66  NH2       22.1200   22.7980   -5.3670 N.pl3  76  ARG76       0.1354
     67  N         18.7460   18.8670  -10.3860 N.am   77  GLY77      -0.1957
     68  CA        17.3140   19.0170  -10.6330 C.3    77  GLY77       0.1869
     69  C         16.5740   17.7270  -10.9290 C.2    77  GLY77       0.2309
     70  O         15.3460   17.7100  -10.9480 O.2    77  GLY77      -0.2863
     71  N         18.1080   14.5490   -9.7310 N.3    79  LEU79      -0.1231
     72  CA        18.5690   13.5600   -8.7630 C.3    79  LEU79       0.1693
     73  C         17.4080   12.9010   -7.9750 C.2    79  LEU79       0.2591
     74  O         17.4510   11.7130   -7.6850 O.2    79  LEU79      -0.2718
     75  CB        19.6160   14.1720   -7.8290 C.3    79  LEU79       0.0284
     76  CG        20.2190   13.2730   -6.7420 C.3    79  LEU79       0.0019
     77  CD1       20.7870   11.9930   -7.3150 C.3    79  LEU79       0.0001
     78  CD2       21.2780   13.9980   -5.9520 C.3    79  LEU79       0.0001
     79  N         16.3730   13.6700   -7.6560 N.am   80  GLN80      -0.1979
     80  CA        15.2350   13.1710   -6.8960 C.3    80  GLN80       0.1601
     81  C         14.3820   12.2220   -7.7400 C.2    80  GLN80       0.2287
     82  O         13.7560   11.2820   -7.2200 O.2    80  GLN80      -0.2864
     83  CB        14.3840   14.3400   -6.3580 C.3    80  GLN80       0.0394
     84  CG        13.5670   14.0060   -5.1120 C.3    80  GLN80       0.0908
     85  CD        12.4880   15.0360   -4.7640 C.2    80  GLN80       0.2608
     86  OE1       12.5060   16.1790   -5.2420 O.2    80  GLN80      -0.2717
     87  NE2       11.5410   14.6310   -3.9110 N.am   80  GLN80      -0.0878
     88  N          4.9780   12.1500   -3.4230 N.3   107  ILE107     -0.1231
     89  CA         5.9720   12.3800   -2.3540 C.3   107  ILE107      0.1692
     90  C          7.1290   13.2780   -2.7800 C.2   107  ILE107      0.2593
     91  O          8.0590   13.5120   -2.0180 O.2   107  ILE107     -0.2718
     92  CB         6.5420   11.0670   -1.7620 C.3   107  ILE107      0.0266
     93  CG1        7.0920   10.1730   -2.8740 C.3   107  ILE107      0.0019
     94  CG2        5.4890   10.3710   -0.9210 C.3   107  ILE107      0.0020
     95  CD1        7.6960    8.8670   -2.4140 C.3   107  ILE107      0.0001
     96  N          7.0700   13.7780   -4.0010 N.am  108  THR108     -0.1939
     97  CA         8.0280   14.7640   -4.4370 C.3   108  THR108      0.2028
     98  C          7.3180   16.1180   -4.4410 C.2   108  THR108      0.2642
     99  O          7.8350   17.1050   -4.9730 O.2   108  THR108     -0.2714
    100  CB         8.5840   14.4120   -5.8260 C.3   108  THR108      0.1808
    101  OG1        7.5230   14.4580   -6.7880 O.3   108  THR108     -0.2208
    102  CG2        9.1820   13.0150   -5.8180 C.3   108  THR108      0.0379
    103  N          6.1400   16.1530   -3.8110 N.am  109  ASP109     -0.1971
    104  CA         5.2080   17.2890   -3.8920 C.3   109  ASP109      0.1709
    105  C          5.0800   17.7530   -5.3450 C.2   109  ASP109      0.2293
    106  O          5.2610   18.9280   -5.6690 O.2   109  ASP109     -0.2864
    107  CB         5.5990   18.4330   -2.9310 C.3   109  ASP109      0.1436
    108  CG         4.5320   19.5440   -2.8510 C.2   109  ASP109      0.3671
    109  OD1        3.3110   19.2410   -2.7330 O.co2 109  ASP109     -0.2456
    110  OD2        4.9250   20.7320   -2.8990 O.co2 109  ASP109     -0.2456
    111  N          6.9440   17.3560   -8.0310 N.3   111  THR111     -0.1218
    112  CA         8.1120   17.8580   -8.7660 C.3   111  THR111      0.1862
    113  C          8.3170   17.2040  -10.1490 C.2   111  THR111      0.2287
    114  O          8.9490   17.7990  -11.0270 O.2   111  THR111     -0.2866
    115  CB         9.3950   17.7570   -7.9120 C.3   111  THR111      0.1770
    116  OG1        9.1350   18.3060   -6.6180 O.3   111  THR111     -0.2211
    117  CG2       10.5390   18.5220   -8.5450 C.3   111  THR111      0.0375
@<TRIPOS>BOND
     1   114   113    2
     2    70    69    2
     3    69    68    1
     4    68    67    1
     5    56    57    1
     6    67    58   am
     7   113   112    1
     8    71    72    1
     9    58    57    1
    10    58    59    2
    11    57    60    1
    12    61    60    1
    13    61    62    1
    14   112   111    1
    15   112   115    1
    16    72    73    1
    17    72    75    1
    18   117   115    1
    19    62    63    1
    20    73    74    2
    21    73    79   am
    22   115   116    1
    23    75    76    1
    24    81    82    2
    25    81    80    1
    26    79    80    1
    27    65    64    1
    28    77    76    1
    29    80    83    1
    30   101   100    1
    31    63    64    2
    32    76    78    1
    33    64    66    1
    34    83    84    1
    35   100   102    1
    36   100    97    1
    37   106   105    2
    38   105   104    1
    39     7     8    1
    40     7     6    1
    41    86    85    2
    42    84    85    1
    43    99    98    2
    44    85    87   am
    45    98    97    1
    46    98   103   am
    47    97    96    1
    48    24    22    1
    49    23    22    1
    50    96    90   am
    51   104   103    1
    52   104   107    1
    53     6     5    1
    54    88    89    1
    55     5     2    1
    56    22    21    1
    57    46    45   ar
    58    46    44   ar
    59    45    43   ar
    60   107   108    1
    61   110   108   ar
    62    93    95    1
    63    93    92    1
    64   108   109   ar
    65    90    89    1
    66    90    91    2
    67    21    18    1
    68    89    92    1
    69    44    42   ar
    70    43    40   ar
    71     2     3    1
    72     2     1    1
    73     3     4    2
    74    92    94    1
    75    42    40   ar
    76    42    41   ar
    77    18    17    1
    78    18    19    1
    79    40    38   ar
    80    17    11   am
    81    19    20    2
    82    41    39   ar
    83    38    39   ar
    84    38    37    1
    85    15    13    1
    86    11    12    2
    87    11    10    1
    88    13    10    1
    89    13    14    1
    90    37    34    1
    91    16    14    1
    92     9    10    1
    93    35    34    1
    94    35    36    2
    95    34    33    1
    96    33    27   am
    97    25    26    1
    98    27    26    1
    99    27    28    2
   100    26    29    1
   101    29    30    1
   102    49    50    2
   103    49    48    1
   104    51    48    1
   105    51    52    1
   106    47    48    1
   107    55    53   ar
   108    31    30   ar
   109    30    32   ar
   110    52    53    1
   111    53    54   ar
