@<TRIPOS>MOLECULE
tmp/2wmcA00.pdb
 128 125 0 0 0
SMALL
GASTEIGER

@<TRIPOS>ATOM
      1  N          7.3200   60.7540   10.5940 N.3    18  LYS18      -0.1245
      2  CA         8.1680   61.9090   10.3670 C.3    18  LYS18       0.1561
      3  C          9.1780   61.9100   11.4870 C.2    18  LYS18       0.2260
      4  O         10.2670   62.4380   11.3700 O.2    18  LYS18      -0.2867
      5  CB         7.3860   63.2290   10.3770 C.3    18  LYS18       0.0271
      6  CG         6.3850   63.4570    9.2550 C.3    18  LYS18       0.0035
      7  CD         5.9300   64.9300    9.2600 C.3    18  LYS18       0.0206
      8  CE         5.0730   65.2860    8.0410 C.3    18  LYS18       0.1093
      9  NZ         4.2020   66.5270    8.1950 N.3    18  LYS18      -0.1314
     10  N         13.3420   65.0050    4.6280 N.3    24  TRP24      -0.1241
     11  CA        11.9540   65.3530    4.3660 C.3    24  TRP24       0.1605
     12  C         11.3060   64.3450    3.4120 C.2    24  TRP24       0.2264
     13  O         11.8440   64.0030    2.3740 O.2    24  TRP24      -0.2867
     14  CB        11.7920   66.7690    3.8070 C.3    24  TRP24       0.0550
     15  CG        10.3870   67.0330    3.6990 C.ar   24  TRP24       0.0003
     16  CD1        9.5780   67.5160    4.6730 C.ar   24  TRP24       0.0946
     17  CD2        9.5340   66.7160    2.5850 C.ar   24  TRP24       0.0152
     18  NE1        8.2840   67.5670    4.2270 N.ar   24  TRP24      -0.2442
     19  CE2        8.2280   67.0750    2.9500 C.ar   24  TRP24       0.0810
     20  CE3        9.7560   66.1890    1.3110 C.ar   24  TRP24       0.0012
     21  CZ2        7.1460   66.9310    2.0830 C.ar   24  TRP24       0.0191
     22  CZ3        8.6820   66.0460    0.4580 C.ar   24  TRP24       0.0001
     23  CH2        7.3980   66.4110    0.8440 C.ar   24  TRP24       0.0015
     24  N          0.2010   64.9750    6.9410 N.3    58  ASP58      -0.1239
     25  CA        -0.0650   65.3440    5.5540 C.3    58  ASP58       0.1674
     26  C         -0.6820   64.1370    4.8880 C.2    58  ASP58       0.2266
     27  O         -0.2250   62.9960    5.0560 O.2    58  ASP58      -0.2867
     28  CB         1.2150   65.7230    4.8100 C.3    58  ASP58       0.1410
     29  CG         1.9570   66.8760    5.4590 C.2    58  ASP58       0.3668
     30  OD1        1.2850   67.8820    5.7940 O.co2  58  ASP58      -0.2456
     31  OD2        3.2060   66.7760    5.6140 O.co2  58  ASP58      -0.2456
     32  N         -2.1520   62.8880    1.1370 N.3    60  TYR60      -0.1241
     33  CA        -2.0800   63.1520   -0.3080 C.3    60  TYR60       0.1605
     34  C         -2.9650   62.2560   -1.1470 C.2    60  TYR60       0.2264
     35  O         -3.2130   61.1000   -0.8220 O.2    60  TYR60      -0.2867
     36  CB        -0.6600   62.9980   -0.8480 C.3    60  TYR60       0.0534
     37  CG         0.4250   63.8400   -0.2040 C.ar   60  TYR60      -0.0201
     38  CD1        1.0190   63.4460    0.9830 C.ar   60  TYR60      -0.0009
     39  CD2        0.8850   64.9940   -0.8130 C.ar   60  TYR60      -0.0009
     40  CE1        2.0160   64.1840    1.5640 C.ar   60  TYR60       0.0417
     41  CE2        1.8870   65.7470   -0.2410 C.ar   60  TYR60       0.0417
     42  CZ         2.4610   65.3280    0.9480 C.ar   60  TYR60       0.1957
     43  OH         3.4640   66.0620    1.5270 O.3    60  TYR60      -0.2866
     44  N          6.2020   65.4730   -4.5680 N.3    69  LYS69      -0.1231
     45  CA         7.5040   66.0740   -4.3130 C.3    69  LYS69       0.1693
     46  C          7.9540   67.0860   -5.3570 C.2    69  LYS69       0.2592
     47  O          7.8070   66.8910   -6.5630 O.2    69  LYS69      -0.2718
     48  CB         8.5520   64.9810   -4.1750 C.3    69  LYS69       0.0285
     49  CG         8.6900   64.5170   -2.7540 C.3    69  LYS69       0.0035
     50  CD         9.2340   63.0910   -2.6600 C.3    69  LYS69       0.0206
     51  CE         8.8890   62.5080   -1.3070 C.3    69  LYS69       0.1093
     52  NZ         8.8060   61.0340   -1.2690 N.3    69  LYS69      -0.1314
     53  N          8.5120   68.1730   -4.8400 N.am   70  TRP70      -0.1962
     54  CA         9.0740   69.2440   -5.6710 C.3    70  TRP70       0.1771
     55  C          9.9540   68.6050   -6.6940 C.2    70  TRP70       0.2619
     56  O          9.9330   68.9540   -7.8720 O.2    70  TRP70      -0.2715
     57  CB         9.9230   70.2030   -4.8450 C.3    70  TRP70       0.0590
     58  CG         9.0550   70.9210   -3.8940 C.ar   70  TRP70       0.0006
     59  CD1        7.6990   70.9580   -3.9590 C.ar   70  TRP70       0.0946
     60  CD2        9.4260   71.6750   -2.7330 C.ar   70  TRP70       0.0152
     61  NE1        7.1940   71.6950   -2.9190 N.ar   70  TRP70      -0.2442
     62  CE2        8.2310   72.1490   -2.1500 C.ar   70  TRP70       0.0810
     63  CE3       10.6450   72.0060   -2.1310 C.ar   70  TRP70       0.0012
     64  CZ2        8.2160   72.9320   -0.9850 C.ar   70  TRP70       0.0191
     65  CZ3       10.6280   72.7840   -0.9680 C.ar   70  TRP70       0.0001
     66  CH2        9.4240   73.2380   -0.4150 C.ar   70  TRP70       0.0015
     67  N         10.7570   67.6790   -6.1840 N.am   71  GLU71      -0.1977
     68  CA        11.8180   66.9950   -6.9750 C.3    71  GLU71       0.1602
     69  C         11.3390   65.7870   -7.7750 C.2    71  GLU71       0.2287
     70  O         12.1490   65.1030   -8.4050 O.2    71  GLU71      -0.2864
     71  CB        13.0530   66.6100   -6.1270 C.3    71  GLU71       0.0415
     72  CG        12.7940   66.1100   -4.7230 C.3    71  GLU71       0.1163
     73  CD        12.5890   67.2570   -3.7320 C.2    71  GLU71       0.3649
     74  OE1       13.3890   68.2180   -3.7460 O.co2  71  GLU71      -0.2457
     75  OE2       11.6150   67.1950   -2.9500 O.co2  71  GLU71      -0.2457
     76  N         -2.9330   69.4520    4.7170 N.3   118  ASN118     -0.1240
     77  CA        -1.9540   69.6090    5.7550 C.3   118  ASN118      0.1653
     78  C         -2.6270   69.9850    7.0360 C.2   118  ASN118      0.2266
     79  O         -3.2330   71.0480    7.1390 O.2   118  ASN118     -0.2867
     80  CB        -1.0020   70.7340    5.3980 C.3   118  ASN118      0.1155
     81  CG        -0.3350   70.5470    4.0640 C.2   118  ASN118      0.2627
     82  OD1       -0.4090   71.4180    3.2310 O.2   118  ASN118     -0.2716
     83  ND2        0.3620   69.4400    3.8740 N.am  118  ASN118     -0.0877
     84  N         -2.3630   71.2320   10.6200 N.3   120  ARG120     -0.1245
     85  CA        -1.4540   71.9580   11.4820 C.3   120  ARG120      0.1563
     86  C         -2.1090   72.4680   12.7520 C.2   120  ARG120      0.2260
     87  O         -3.2700   72.2120   13.0270 O.2   120  ARG120     -0.2867
     88  CB        -0.8610   73.1300   10.7420 C.3   120  ARG120      0.0307
     89  CG        -0.1180   72.7060    9.4840 C.3   120  ARG120      0.0489
     90  CD         1.0710   71.8080    9.8340 C.3   120  ARG120      0.2205
     91  NE         1.8550   71.4230    8.6620 N.pl3 120  ARG120     -0.0865
     92  CZ         1.7490   70.2620    8.0300 C.cat 120  ARG120      0.5346
     93  NH1        0.8780   69.3590    8.4250 N.pl3 120  ARG120      0.1354
     94  NH2        2.4940   70.0180    6.9780 N.pl3 120  ARG120      0.1354
     95  N         -4.6220   73.3170    5.7700 N.3   125  LYS125     -0.1245
     96  CA        -4.4150   73.7750    4.3800 C.3   125  LYS125      0.1561
     97  C         -4.7460   72.6900    3.4010 C.2   125  LYS125      0.2260
     98  O         -4.4690   71.5080    3.6180 O.2   125  LYS125     -0.2867
     99  CB        -2.9560   74.1450    4.1210 C.3   125  LYS125      0.0271
    100  CG        -2.3230   75.0170    5.1610 C.3   125  LYS125      0.0035
    101  CD        -0.9770   75.5520    4.7150 C.3   125  LYS125      0.0206
    102  CE         0.1690   74.6130    5.0940 C.3   125  LYS125      0.1093
    103  NZ         1.5020   75.0680    4.5090 N.3   125  LYS125     -0.1314
    104  N         -1.6540   70.6020   -6.4880 N.3   129  TRP129     -0.1241
    105  CA        -0.3610   70.6010   -7.1470 C.3   129  TRP129      0.1605
    106  C         -0.5790   70.3710   -8.6210 C.2   129  TRP129      0.2264
    107  O         -1.2480   69.3990   -9.0240 O.2   129  TRP129     -0.2867
    108  CB         0.5220   69.4800   -6.6240 C.3   129  TRP129      0.0550
    109  CG         1.1720   69.7230   -5.3450 C.ar  129  TRP129      0.0003
    110  CD1        0.6600   70.3750   -4.2600 C.ar  129  TRP129      0.0946
    111  CD2        2.4710   69.2640   -4.9720 C.ar  129  TRP129      0.0152
    112  NE1        1.5830   70.3720   -3.2420 N.ar  129  TRP129     -0.2442
    113  CE2        2.7030   69.6940   -3.6590 C.ar  129  TRP129      0.0810
    114  CE3        3.4650   68.5300   -5.6310 C.ar  129  TRP129      0.0012
    115  CZ2        3.8890   69.4170   -2.9850 C.ar  129  TRP129      0.0191
    116  CZ3        4.6490   68.2660   -4.9590 C.ar  129  TRP129      0.0001
    117  CH2        4.8510   68.7150   -3.6560 C.ar  129  TRP129      0.0015
    118  N          9.8310   79.2920    2.7380 N.3   166  ARG166     -0.1245
    119  CA         8.9390   80.1180    3.5430 C.3   166  ARG166      0.1563
    120  C          9.0700   81.5570    3.0690 C.2   166  ARG166      0.2260
    121  O          8.2940   82.4380    3.4410 O.2   166  ARG166     -0.2867
    122  CB         9.2980   80.0020    5.0270 C.3   166  ARG166      0.0307
    123  CG         9.6900   78.5920    5.4360 C.3   166  ARG166      0.0489
    124  CD         9.5450   78.3710    6.9360 C.3   166  ARG166      0.2205
    125  NE         9.4160   76.9510    7.2620 N.pl3 166  ARG166     -0.0865
    126  CZ         8.2420   76.3460    7.4000 C.cat 166  ARG166      0.5346
    127  NH1        7.1310   77.0540    7.2450 N.pl3 166  ARG166      0.1354
    128  NH2        8.1700   75.0540    7.6950 N.pl3 166  ARG166      0.1354
@<TRIPOS>BOND
     1   107   106    2
     2   106   105    1
     3    70    69    2
     4    56    55    2
     5    69    68    1
     6   105   108    1
     7   105   104    1
     8    68    67    1
     9    68    71    1
    10    55    67   am
    11    55    54    1
    12   108   109    1
    13    47    46    2
    14    71    72    1
    15    54    57    1
    16    54    53    1
    17   114   111   ar
    18   114   116   ar
    19    46    53   am
    20    46    45    1
    21   109   111   ar
    22   109   110   ar
    23   111   113   ar
    24   116   117   ar
    25    57    58    1
    26    72    73    1
    27    44    45    1
    28    45    48    1
    29   110   112   ar
    30    48    49    1
    31    59    58   ar
    32    59    61   ar
    33    58    60   ar
    34    74    73   ar
    35    73    75   ar
    36   113   112   ar
    37   113   115   ar
    38   117   115   ar
    39    61    62   ar
    40    49    50    1
    41    60    62   ar
    42    60    63   ar
    43    50    51    1
    44    62    64   ar
    45    63    65   ar
    46    51    52    1
    47    34    35    2
    48    34    33    1
    49    64    66   ar
    50    65    66   ar
    51    36    33    1
    52    36    37    1
    53    39    41   ar
    54    39    37   ar
    55    33    32    1
    56    41    42   ar
    57    37    38   ar
    58    22    23   ar
    59    22    20   ar
    60    23    21   ar
    61    42    43    1
    62    42    40   ar
    63    38    40   ar
    64    20    17   ar
    65    21    19   ar
    66    13    12    2
    67    17    19   ar
    68    17    15   ar
    69   118   119    1
    70    19    18   ar
    71   120   121    2
    72   120   119    1
    73    82    81    2
    74    97    98    2
    75    97    96    1
    76    12    11    1
    77   119   122    1
    78    15    14    1
    79    15    16   ar
    80    14    11    1
    81    83    81   am
    82    81    80    1
    83    99    96    1
    84    99   100    1
    85    18    16   ar
    86    11    10    1
    87    96    95    1
    88   103   102    1
    89   101   102    1
    90   101   100    1
    91    76    77    1
    92    28    29    1
    93    28    25    1
    94    26    27    2
    95    26    25    1
    96   122   123    1
    97    80    77    1
    98   123   124    1
    99    29    31   ar
   100    29    30   ar
   101    25    24    1
   102    77    78    1
   103   124   125    1
   104    94    92    1
   105    78    79    2
   106   127   126    1
   107   125   126    2
   108   126   128    1
   109    92    93    1
   110    92    91    2
   111     8     9    1
   112     8     7    1
   113    91    90    1
   114     6     7    1
   115     6     5    1
   116    89    90    1
   117    89    88    1
   118     2     5    1
   119     2     1    1
   120     2     3    1
   121    84    85    1
   122    88    85    1
   123     4     3    2
   124    85    86    1
   125    86    87    2
