@<TRIPOS>MOLECULE
tmp/2wmeE00.pdb
 190 185 0 0 0
SMALL
GASTEIGER

@<TRIPOS>ATOM
      1  N         41.2660  -31.5820    9.9880 N.3   148  ILE148     -0.1231
      2  CA        41.9770  -32.8700    9.9830 C.3   148  ILE148      0.1692
      3  C         43.3240  -32.7170   10.7000 C.2   148  ILE148      0.2593
      4  O         44.2080  -31.9240   10.2760 O.2   148  ILE148     -0.2718
      5  CB        42.0890  -33.4790    8.5410 C.3   148  ILE148      0.0266
      6  CG1       40.6750  -33.7150    7.9540 C.3   148  ILE148      0.0019
      7  CG2       42.9100  -34.7980    8.5320 C.3   148  ILE148      0.0020
      8  CD1       40.6230  -33.8210    6.3880 C.3   148  ILE148      0.0001
      9  N         43.4560  -33.4490   11.8210 N.am  149  GLY149     -0.1942
     10  CA        44.5820  -33.2420   12.7360 C.3   149  GLY149      0.2014
     11  C         45.7950  -34.1140   12.4770 C.2   149  GLY149      0.2639
     12  O         45.6790  -35.1280   11.8400 O.2   149  GLY149     -0.2714
     13  N         46.9540  -33.7080   12.9920 N.am  150  ALA150     -0.1963
     14  CA        48.1900  -34.4510   12.8600 C.3   150  ALA150      0.1728
     15  C         48.4680  -35.1410   14.2120 C.2   150  ALA150      0.2616
     16  O         47.7850  -34.8670   15.2180 O.2   150  ALA150     -0.2715
     17  CB        49.3260  -33.4740   12.4560 C.3   150  ALA150      0.0334
     18  N         49.3900  -36.0880   14.2420 N.am  151  TRP151     -0.1974
     19  CA        49.6530  -36.8490   15.4780 C.3   151  TRP151      0.1640
     20  C         50.6940  -36.2720   16.4520 C.2   151  TRP151      0.2290
     21  O         50.7530  -36.6970   17.6270 O.2   151  TRP151     -0.2864
     22  CB        49.9800  -38.3060   15.1540 C.3   151  TRP151      0.0576
     23  CG        51.1030  -38.5520   14.2060 C.ar  151  TRP151      0.0006
     24  CD1       50.9940  -39.0830   12.9430 C.ar  151  TRP151      0.0946
     25  CD2       52.5080  -38.3330   14.4320 C.ar  151  TRP151      0.0152
     26  NE1       52.2350  -39.1950   12.3560 N.ar  151  TRP151     -0.2442
     27  CE2       53.1910  -38.7520   13.2380 C.ar  151  TRP151      0.0810
     28  CE3       53.2740  -37.8610   15.5330 C.ar  151  TRP151      0.0012
     29  CZ2       54.6000  -38.7150   13.1160 C.ar  151  TRP151      0.0191
     30  CZ3       54.6780  -37.7850   15.4010 C.ar  151  TRP151      0.0001
     31  CH2       55.3250  -38.2120   14.1960 C.ar  151  TRP151      0.0015
     32  N         38.4890  -34.5590   12.6680 N.3   175  LYS175     -0.1231
     33  CA        39.0510  -35.9080   12.5410 C.3   175  LYS175      0.1678
     34  C         40.5090  -35.9580   13.0230 C.2   175  LYS175      0.2434
     35  O         41.4440  -35.5500   12.2870 O.2   175  LYS175     -0.2733
     36  CB        38.9560  -36.4950   11.0930 C.3   175  LYS175      0.0284
     37  CG        39.1030  -38.0590   11.1210 C.3   175  LYS175      0.0035
     38  CD        39.9110  -38.6790   10.0540 C.3   175  LYS175      0.0206
     39  CE        41.3860  -38.4440   10.0930 C.3   175  LYS175      0.1093
     40  NZ        42.2530  -39.4330   10.8170 N.3   175  LYS175     -0.1314
     41  N         40.7050  -36.4980   14.2470 N.am  176  PRO176     -0.2718
     42  CA        42.0320  -36.6810   14.7780 C.3   176  PRO176      0.1535
     43  C         42.8210  -37.7610   13.9800 C.2   176  PRO176      0.2599
     44  O         42.2170  -38.6320   13.2780 O.2   176  PRO176     -0.2715
     45  CB        41.7690  -37.1370   16.2270 C.3   176  PRO176      0.0310
     46  CG        40.4070  -37.7830   16.1370 C.3   176  PRO176      0.0237
     47  CD        39.6570  -37.0170   15.1620 C.3   176  PRO176      0.0939
     48  N         44.1480  -37.6950   14.0680 N.am  177  SER177     -0.1936
     49  CA        44.9820  -38.7540   13.5050 C.3   177  SER177      0.2055
     50  C         44.5600  -40.0920   14.1660 C.2   177  SER177      0.2643
     51  O         44.2290  -40.1510   15.3820 O.2   177  SER177     -0.2714
     52  CB        46.4820  -38.4660   13.7270 C.3   177  SER177      0.2130
     53  OG        47.2530  -39.6190   13.4250 O.3   177  SER177     -0.2179
     54  N         44.4710  -41.1350   13.3460 N.am  178  GLU178     -0.1963
     55  CA        44.2370  -42.5120   13.8400 C.3   178  GLU178      0.1733
     56  C         45.3130  -42.9110   14.8950 C.2   178  GLU178      0.2616
     57  O         45.0830  -43.7700   15.7410 O.2   178  GLU178     -0.2715
     58  CB        44.3280  -43.4600   12.6190 C.3   178  GLU178      0.0429
     59  CG        43.6610  -44.7490   12.8020 C.3   178  GLU178      0.1163
     60  CD        43.8440  -45.7190   11.6440 C.2   178  GLU178      0.3649
     61  OE1       43.2470  -45.5380   10.5600 O.co2 178  GLU178     -0.2457
     62  OE2       44.5450  -46.7100   11.8500 O.co2 178  GLU178     -0.2457
     63  N         46.5080  -42.3200   14.7990 N.am  179  VAL179     -0.1977
     64  CA        47.6060  -42.6380   15.7220 C.3   179  VAL179      0.1596
     65  C         47.2910  -42.0700   17.1310 C.2   179  VAL179      0.2287
     66  O         47.7040  -42.6600   18.1220 O.2   179  VAL179     -0.2864
     67  CB        49.0210  -42.1940   15.1790 C.3   179  VAL179      0.0276
     68  CG1       50.1850  -42.5490   16.1350 C.3   179  VAL179      0.0022
     69  CG2       49.3300  -42.7800   13.7520 C.3   179  VAL179      0.0022
     70  N         38.8900  -42.4490   12.8070 N.3   206  GLY206     -0.1210
     71  CA        39.2000  -43.4850   11.8140 C.3   206  GLY206      0.1956
     72  C         40.2910  -42.9730   10.8820 C.2   206  GLY206      0.2613
     73  O         41.0410  -42.0410   11.2270 O.2   206  GLY206     -0.2717
     74  N         40.3580  -43.5070    9.6810 N.am  207  SER207     -0.1938
     75  CA        41.4970  -43.2320    8.7990 C.3   207  SER207      0.2055
     76  C         41.3930  -41.9690    7.9450 C.2   207  SER207      0.2644
     77  O         40.3150  -41.4540    7.6850 O.2   207  SER207     -0.2714
     78  CB        41.7300  -44.4180    7.8540 C.3   207  SER207      0.2130
     79  OG        40.7030  -44.4680    6.8800 O.3   207  SER207     -0.2179
     80  N         42.5420  -41.4910    7.4890 N.am  208  GLY208     -0.1939
     81  CA        42.5490  -40.4240    6.5000 C.3   208  GLY208      0.2014
     82  C         41.9670  -40.8210    5.1610 C.2   208  GLY208      0.2638
     83  O         41.1750  -40.0530    4.5650 O.2   208  GLY208     -0.2714
     84  N         42.3220  -42.0140    4.6720 N.am  209  ARG209     -0.1977
     85  CA        41.9000  -42.4020    3.3460 C.3   209  ARG209      0.1597
     86  C         40.3930  -42.7290    3.2160 C.2   209  ARG209      0.2287
     87  O         39.8670  -42.7480    2.1000 O.2   209  ARG209     -0.2864
     88  CB        42.7900  -43.5040    2.8160 C.3   209  ARG209      0.0334
     89  CG        44.0850  -42.8880    2.2000 C.3   209  ARG209      0.0492
     90  CD        45.0450  -43.9150    1.6740 C.3   209  ARG209      0.2205
     91  NE        45.9200  -44.3930    2.7380 N.pl3 209  ARG209     -0.0865
     92  CZ        47.1300  -43.8950    2.9960 C.cat 209  ARG209      0.5346
     93  NH1       47.6170  -42.8960    2.2570 N.pl3 209  ARG209      0.1354
     94  NH2       47.8600  -44.4060    3.9920 N.pl3 209  ARG209      0.1354
     95  N         38.6620  -39.1740    6.5060 N.3   212  GLY212     -0.1210
     96  CA        39.2730  -37.8920    6.1390 C.3   212  GLY212      0.1956
     97  C         38.8070  -37.4930    4.7530 C.2   212  GLY212      0.2611
     98  O         38.3590  -36.3680    4.5260 O.2   212  GLY212     -0.2717
     99  N         38.8850  -38.4330    3.8220 N.am  213  GLN213     -0.1979
    100  CA        38.5240  -38.1780    2.4600 C.3   213  GLN213      0.1601
    101  C         37.0020  -37.9770    2.2450 C.2   213  GLN213      0.2287
    102  O         36.5960  -37.2130    1.3540 O.2   213  GLN213     -0.2864
    103  CB        39.0190  -39.3130    1.6290 C.3   213  GLN213      0.0394
    104  CG        38.2260  -39.4880    0.3640 C.3   213  GLN213      0.0908
    105  CD        39.1370  -39.7190   -0.8040 C.2   213  GLN213      0.2608
    106  OE1       39.9610  -38.8720   -1.1150 O.2   213  GLN213     -0.2717
    107  NE2       39.0050  -40.8640   -1.4550 N.am  213  GLN213     -0.0878
    108  N         36.4390  -34.3850    3.0450 N.3   216  THR216     -0.1218
    109  CA        36.9420  -33.4540    2.0100 C.3   216  THR216      0.1862
    110  C         36.0620  -33.4430    0.7850 C.2   216  THR216      0.2287
    111  O         36.0310  -32.4410    0.0670 O.2   216  THR216     -0.2866
    112  CB        38.4260  -33.6790    1.6090 C.3   216  THR216      0.1770
    113  OG1       38.5870  -34.9830    1.0260 O.3   216  THR216     -0.2211
    114  CG2       39.3260  -33.5790    2.8200 C.3   216  THR216      0.0375
    115  N         43.7080  -28.4100    7.2930 N.3   226  PHE226     -0.1227
    116  CA        44.4760  -29.6500    7.4170 C.3   226  PHE226      0.1736
    117  C         45.8640  -29.3750    7.9570 C.2   226  PHE226      0.2596
    118  O         46.4620  -28.3710    7.5860 O.2   226  PHE226     -0.2718
    119  CB        44.5350  -30.3370    6.0320 C.3   226  PHE226      0.0547
    120  CG        45.5060  -31.5220    5.9320 C.ar  226  PHE226     -0.0202
    121  CD1       45.0570  -32.8140    6.1380 C.ar  226  PHE226     -0.0042
    122  CD2       46.8480  -31.3240    5.5110 C.ar  226  PHE226     -0.0042
    123  CE1       45.9220  -33.9120    6.0310 C.ar  226  PHE226     -0.0003
    124  CE2       47.7170  -32.4060    5.3590 C.ar  226  PHE226     -0.0003
    125  CZ        47.2360  -33.7250    5.6450 C.ar  226  PHE226     -0.0000
    126  N         46.3880  -30.2830    8.7930 N.am  227  THR227     -0.1939
    127  CA        47.8090  -30.2300    9.2250 C.3   227  THR227      0.2028
    128  C         48.4030  -31.6200    9.0140 C.2   227  THR227      0.2643
    129  O         47.7800  -32.6380    9.3740 O.2   227  THR227     -0.2714
    130  CB        47.9700  -29.7320   10.7190 C.3   227  THR227      0.1808
    131  OG1       47.4470  -28.4020   10.8440 O.3   227  THR227     -0.2208
    132  CG2       49.4360  -29.6780   11.1500 C.3   227  THR227      0.0379
    133  N         49.5590  -31.6760    8.3570 N.am  228  GLY228     -0.1939
    134  CA        50.2180  -32.9730    8.0380 C.3   228  GLY228      0.2014
    135  C         51.3000  -32.7800    6.9940 C.2   228  GLY228      0.2639
    136  O         51.6830  -31.6380    6.7480 O.2   228  GLY228     -0.2714
    137  N         51.7800  -33.8760    6.3810 N.am  229  GLY229     -0.1954
    138  CA        52.8240  -33.8270    5.3400 C.3   229  GLY229      0.1869
    139  C         52.4310  -33.1440    4.0130 C.2   229  GLY229      0.2309
    140  O         51.2460  -33.1240    3.6170 O.2   229  GLY229     -0.2863
    141  N         50.6640  -35.4890    1.3080 N.3   232  THR232     -0.1218
    142  CA        49.2760  -35.6960    1.6990 C.3   232  THR232      0.1862
    143  C         48.4460  -34.4150    1.4940 C.2   232  THR232      0.2287
    144  O         47.2960  -34.4920    1.0500 O.2   232  THR232     -0.2866
    145  CB        49.1330  -36.1580    3.1880 C.3   232  THR232      0.1770
    146  OG1       49.9800  -37.2760    3.4080 O.3   232  THR232     -0.2211
    147  CG2       47.6760  -36.5290    3.5490 C.3   232  THR232      0.0375
    148  N         47.0780  -33.9750   -2.0650 N.3   235  LYS235     -0.1231
    149  CA        45.9410  -34.8880   -2.2500 C.3   235  LYS235      0.1693
    150  C         44.6690  -34.3070   -1.6240 C.2   235  LYS235      0.2591
    151  O         43.6200  -34.2720   -2.2470 O.2   235  LYS235     -0.2718
    152  CB        46.2120  -36.2870   -1.6300 C.3   235  LYS235      0.0285
    153  CG        47.2510  -37.1650   -2.3380 C.3   235  LYS235      0.0035
    154  CD        47.6180  -38.3410   -1.4150 C.3   235  LYS235      0.0206
    155  CE        48.6590  -39.2740   -2.0920 C.3   235  LYS235      0.1093
    156  NZ        50.0520  -38.7030   -2.2380 N.3   235  LYS235     -0.1314
    157  N         44.7860  -33.8460   -0.3930 N.am  236  VAL236     -0.1980
    158  CA        43.6570  -33.2880    0.3720 C.3   236  VAL236      0.1595
    159  C         43.1040  -31.9960   -0.2850 C.2   236  VAL236      0.2287
    160  O         41.8950  -31.8790   -0.5000 O.2   236  VAL236     -0.2864
    161  CB        44.0960  -32.9970    1.8080 C.3   236  VAL236      0.0276
    162  CG1       43.0580  -32.1460    2.5630 C.3   236  VAL236      0.0022
    163  CG2       44.5270  -34.3010    2.5400 C.3   236  VAL236      0.0022
    164  N         41.3860  -32.8210   -3.6420 N.3   239  SER239     -0.1217
    165  CA        40.0380  -33.3770   -3.3630 C.3   239  SER239      0.1889
    166  C         38.9790  -32.3590   -2.8610 C.2   239  SER239      0.2288
    167  O         37.8030  -32.4010   -3.2810 O.2   239  SER239     -0.2866
    168  CB        40.1460  -34.5700   -2.3950 C.3   239  SER239      0.2089
    169  OG        38.8700  -34.9310   -1.8590 O.3   239  SER239     -0.2183
    170  N         57.2370  -45.2450   12.2300 N.3   331  HIS331     -0.1241
    171  CA        57.9260  -43.9680   12.0740 C.3   331  HIS331      0.1621
    172  C         59.4370  -44.0870   12.3460 C.2   331  HIS331      0.2264
    173  O         60.2520  -43.6650   11.5130 O.2   331  HIS331     -0.2867
    174  CB        57.2800  -42.8540   12.9000 C.3   331  HIS331      0.0745
    175  CG        57.8330  -41.5020   12.5940 C.ar  331  HIS331      0.0817
    176  ND1       57.8480  -40.9760   11.3130 N.ar  331  HIS331     -0.2268
    177  CD2       58.4230  -40.5770   13.3880 C.ar  331  HIS331      0.1154
    178  CE1       58.4310  -39.7900   11.3350 C.ar  331  HIS331      0.1986
    179  NE2       58.7660  -39.5150   12.5850 N.ar  331  HIS331     -0.2212
    180  N         61.5570  -35.6550   10.1340 N.3   387  PHE387     -0.1241
    181  CA        60.5330  -35.6850   11.2110 C.3   387  PHE387      0.1605
    182  C         60.9100  -36.6520   12.3450 C.2   387  PHE387      0.2264
    183  O         60.0630  -37.3950   12.8730 O.2   387  PHE387     -0.2867
    184  CB        59.1310  -35.9760   10.6490 C.3   387  PHE387      0.0534
    185  CG        58.0160  -35.2650   11.3680 C.ar  387  PHE387     -0.0203
    186  CD1       57.9040  -33.8710   11.3090 C.ar  387  PHE387     -0.0042
    187  CD2       57.0850  -35.9790   12.1030 C.ar  387  PHE387     -0.0042
    188  CE1       56.8910  -33.2100   11.9620 C.ar  387  PHE387     -0.0003
    189  CE2       56.0360  -35.3260   12.7650 C.ar  387  PHE387     -0.0003
    190  CZ        55.9330  -33.9410   12.7060 C.ar  387  PHE387     -0.0000
@<TRIPOS>BOND
     1   164   165    1
     2   165   166    1
     3   165   168    1
     4   167   166    2
     5   168   169    1
     6   153   152    1
     7   153   154    1
     8   149   148    1
     9   149   152    1
    10   149   150    1
    11   151   150    2
    12   156   155    1
    13   155   154    1
    14   150   157   am
    15   107   105   am
    16   106   105    2
    17   105   104    1
    18   160   159    2
    19   157   158    1
    20   159   158    1
    21   111   110    2
    22   104   103    1
    23   158   161    1
    24   110   109    1
    25   113   112    1
    26   144   143    2
    27   141   142    1
    28   102   101    2
    29   143   142    1
    30   112   109    1
    31   112   114    1
    32   103   100    1
    33    90    89    1
    34    90    91    1
    35   142   145    1
    36   161   163    1
    37   161   162    1
    38   109   108    1
    39    87    86    2
    40    89    88    1
    41   101   100    1
    42    93    92    1
    43   100    99    1
    44    91    92    2
    45    88    85    1
    46    92    94    1
    47   145   146    1
    48   145   147    1
    49    86    85    1
    50    85    84    1
    51   140   139    2
    52    99    97   am
    53   139   138    1
    54    98    97    2
    55    83    82    2
    56    84    82   am
    57    97    96    1
    58    82    81    1
    59   138   137    1
    60   124   122   ar
    61   124   125   ar
    62   122   120   ar
    63   125   123   ar
    64   120   119    1
    65   120   121   ar
    66   123   121   ar
    67   119   116    1
    68    96    95    1
    69   137   135   am
    70     8     6    1
    71    81    80    1
    72   136   135    2
    73    79    78    1
    74   135   134    1
    75   115   116    1
    76   116   117    1
    77    80    76   am
    78   118   117    2
    79    77    76    2
    80    78    75    1
    81    76    75    1
    82     6     5    1
    83   117   126   am
    84   134   133    1
    85   133   128   am
    86     7     5    1
    87     5     2    1
    88   126   127    1
    89    75    74    1
    90   128   127    1
    91   128   129    2
    92   127   130    1
    93    74    72   am
    94     2     1    1
    95     2     3    1
    96    38    39    1
    97    38    37    1
    98    39    40    1
    99   180   181    1
   100     4     3    2
   101    61    60   ar
   102   184   181    1
   103   184   185    1
   104     3     9   am
   105   130   131    1
   106   130   132    1
   107    72    73    2
   108    72    71    1
   109    36    37    1
   110    36    33    1
   111   181   182    1
   112   186   185   ar
   113   186   188   ar
   114   176   178   ar
   115   176   175   ar
   116   178   179   ar
   117   185   187   ar
   118   173   172    2
   119    60    62   ar
   120    60    59    1
   121    71    70    1
   122     9    10    1
   123    12    11    2
   124   188   190   ar
   125   171   170    1
   126   171   172    1
   127   171   174    1
   128   187   189   ar
   129    35    34    2
   130   182   183    2
   131    26    24   ar
   132    26    27   ar
   133    17    14    1
   134    11    10    1
   135    11    13   am
   136    33    32    1
   137    33    34    1
   138   179   177   ar
   139   175   174    1
   140   175   177   ar
   141    58    59    1
   142    58    55    1
   143   190   189   ar
   144    14    13    1
   145    14    15    1
   146    24    23   ar
   147    34    41   am
   148    29    27   ar
   149    29    31   ar
   150    27    25   ar
   151    44    43    2
   152    54    55    1
   153    54    50   am
   154    53    52    1
   155    49    52    1
   156    49    48    1
   157    49    50    1
   158    69    67    1
   159    55    56    1
   160    43    48   am
   161    43    42    1
   162    50    51    2
   163    31    30   ar
   164    23    25   ar
   165    23    22    1
   166    15    18   am
   167    15    16    2
   168    18    19    1
   169    41    42    1
   170    41    47    1
   171    25    28   ar
   172    42    45    1
   173    63    56   am
   174    63    64    1
   175    56    57    2
   176    22    19    1
   177    47    46    1
   178    67    64    1
   179    67    68    1
   180    30    28   ar
   181    19    20    1
   182    64    65    1
   183    46    45    1
   184    20    21    2
   185    65    66    2
