@<TRIPOS>MOLECULE
tmp/2wmgA00.pdb
 196 195 0 0 0
SMALL
GASTEIGER

@<TRIPOS>ATOM
      1  N         14.8100   22.2160   17.8690 N.3    19  TYR19      -0.1241
      2  CA        15.5950   23.1980   17.1290 C.3    19  TYR19       0.1605
      3  C         15.5920   22.9740   15.6070 C.2    19  TYR19       0.2264
      4  O         15.8590   21.8680   15.1250 O.2    19  TYR19      -0.2867
      5  CB        17.0160   23.2320   17.6940 C.3    19  TYR19       0.0534
      6  CG        17.1360   24.0590   18.9640 C.ar   19  TYR19      -0.0201
      7  CD1       17.8480   25.2430   18.9640 C.ar   19  TYR19      -0.0009
      8  CD2       16.5330   23.6560   20.1590 C.ar   19  TYR19      -0.0009
      9  CE1       17.9650   26.0110   20.1000 C.ar   19  TYR19       0.0417
     10  CE2       16.6430   24.4240   21.3120 C.ar   19  TYR19       0.0417
     11  CZ        17.3570   25.6030   21.2620 C.ar   19  TYR19       0.1957
     12  OH        17.4960   26.3880   22.3730 O.3    19  TYR19      -0.2866
     13  N         12.0740   26.2580   18.3100 N.3    53  HIS53      -0.1241
     14  CA        13.0620   27.2810   18.0150 C.3    53  HIS53       0.1621
     15  C         13.5520   27.0740   16.5760 C.2    53  HIS53       0.2264
     16  O         14.0650   25.9910   16.2560 O.2    53  HIS53      -0.2867
     17  CB        14.2320   27.1630   18.9970 C.3    53  HIS53       0.0745
     18  CG        15.0790   28.3960   19.0970 C.ar   53  HIS53       0.0817
     19  ND1       15.5910   29.0470   17.9940 N.ar   53  HIS53      -0.2268
     20  CD2       15.5300   29.0770   20.1770 C.ar   53  HIS53       0.1154
     21  CE1       16.3020   30.0870   18.3910 C.ar   53  HIS53       0.1986
     22  NE2       16.2880   30.1220   19.7120 N.ar   53  HIS53      -0.2212
     23  N         21.8780   34.7350   10.3340 N.3    61  THR61      -0.1203
     24  CA        22.4330   34.1520   11.5520 C.3    61  THR61       0.1994
     25  C         21.5020   33.1390   12.2210 C.2    61  THR61       0.2619
     26  O         20.3200   33.4100   12.4540 O.2    61  THR61      -0.2717
     27  CB        22.8430   35.2330   12.5650 C.3    61  THR61       0.1784
     28  OG1       23.6650   36.2060   11.9120 O.3    61  THR61      -0.2211
     29  CG2       23.6270   34.6220   13.7340 C.3    61  THR61       0.0376
     30  N         22.0730   31.9780   12.5320 N.am   62  SER62      -0.1937
     31  CA        21.3760   30.9130   13.2280 C.3    62  SER62       0.2055
     32  C         20.8740   31.3850   14.6070 C.2    62  SER62       0.2643
     33  O         21.6120   32.0370   15.3680 O.2    62  SER62      -0.2714
     34  CB        22.2960   29.6900   13.3570 C.3    62  SER62       0.2130
     35  OG        21.6890   28.6730   14.1350 O.3    62  SER62      -0.2179
     36  N         19.6080   31.0600   14.8910 N.am   63  CYS63      -0.1953
     37  CA        18.8970   31.4320   16.1200 C.3    63  CYS63       0.1843
     38  C         18.4340   32.8740   16.2090 C.2    63  CYS63       0.2625
     39  O         17.8740   33.2600   17.2320 O.2    63  CYS63      -0.2714
     40  CB        19.6960   31.0730   17.3820 C.3    63  CYS63       0.0997
     41  SG        20.2150   29.3730   17.4650 S.3    63  CYS63      -0.0797
     42  N         18.6860   33.6770   15.1740 N.am   64  ILE64      -0.1977
     43  CA        18.1540   35.0560   15.1120 C.3    64  ILE64       0.1596
     44  C         16.9980   35.1330   14.0970 C.2    64  ILE64       0.2287
     45  O         17.2430   35.2190   12.8960 O.2    64  ILE64      -0.2864
     46  CB        19.2530   36.1310   14.7880 C.3    64  ILE64       0.0276
     47  CG1       20.5510   35.8240   15.5510 C.3    64  ILE64       0.0022
     48  CG2       18.7140   37.5500   15.0660 C.3    64  ILE64       0.0022
     49  CD1       21.5550   36.9560   15.6600 C.3    64  ILE64       0.0001
     50  N         14.5010   36.8340   19.3820 N.3    95  SER95      -0.1202
     51  CA        15.8000   36.4470   19.9570 C.3    95  SER95       0.2020
     52  C         16.9270   37.3660   19.4730 C.2    95  SER95       0.2618
     53  O         16.8710   37.8870   18.3640 O.2    95  SER95      -0.2717
     54  CB        16.1380   34.9910   19.6100 C.3    95  SER95       0.2103
     55  OG        17.2120   34.5140   20.3930 O.3    95  SER95      -0.2182
     56  N         17.9240   37.5690   20.3320 N.am   96  ALA96      -0.1979
     57  CA        19.1900   38.2280   19.9750 C.3    96  ALA96       0.1597
     58  C         19.0690   39.5960   19.2820 C.2    96  ALA96       0.2287
     59  O         19.7960   39.8740   18.3190 O.2    96  ALA96      -0.2864
     60  CB        20.0600   37.2770   19.1470 C.3    96  ALA96       0.0319
     61  N         13.5990   35.0800   23.5940 N.3   123  ILE123     -0.1231
     62  CA        14.7260   34.5050   24.3400 C.3   123  ILE123      0.1692
     63  C         16.0690   35.2060   24.0880 C.2   123  ILE123      0.2591
     64  O         16.5260   35.2750   22.9590 O.2   123  ILE123     -0.2718
     65  CB        14.9010   32.9730   24.0350 C.3   123  ILE123      0.0266
     66  CG1       13.6060   32.2060   24.3040 C.3   123  ILE123      0.0019
     67  CG2       16.0590   32.3760   24.8420 C.3   123  ILE123      0.0020
     68  CD1       13.7290   30.7130   24.1550 C.3   123  ILE123      0.0001
     69  N         16.6920   35.6990   25.1550 N.am  124  ALA124     -0.1980
     70  CA        18.1110   36.1500   25.1670 C.3   124  ALA124      0.1597
     71  C         18.4780   37.3900   24.3260 C.2   124  ALA124      0.2287
     72  O         18.7370   37.2900   23.1310 O.2   124  ALA124     -0.2864
     73  CB        19.0720   34.9830   24.8820 C.3   124  ALA124      0.0319
     74  N         20.1540   40.2240   26.3820 N.3   126  TYR126     -0.1227
     75  CA        20.9440   41.0150   27.3570 C.3   126  TYR126      0.1736
     76  C         22.2420   41.5750   26.7780 C.2   126  TYR126      0.2595
     77  O         22.7340   42.6250   27.2150 O.2   126  TYR126     -0.2718
     78  CB        21.2300   40.2070   28.6390 C.3   126  TYR126      0.0548
     79  CG        21.7540   38.8030   28.3780 C.ar  126  TYR126     -0.0200
     80  CD1       23.1190   38.5780   28.1520 C.ar  126  TYR126     -0.0009
     81  CD2       20.8880   37.7100   28.3510 C.ar  126  TYR126     -0.0009
     82  CE1       23.6010   37.3000   27.8890 C.ar  126  TYR126      0.0417
     83  CE2       21.3560   36.4360   28.0960 C.ar  126  TYR126      0.0417
     84  CZ        22.7200   36.2420   27.8610 C.ar  126  TYR126      0.1957
     85  OH        23.2030   34.9860   27.6070 O.3   126  TYR126     -0.2866
     86  N         22.7790   40.8780   25.7850 N.am  127  TRP127     -0.1976
     87  CA        24.0550   41.2300   25.1890 C.3   127  TRP127      0.1640
     88  C         23.9090   42.1240   23.9430 C.2   127  TRP127      0.2290
     89  O         24.9100   42.5890   23.3700 O.2   127  TRP127     -0.2864
     90  CB        24.8120   39.9380   24.8510 C.3   127  TRP127      0.0576
     91  CG        23.9490   38.9270   24.1360 C.ar  127  TRP127      0.0006
     92  CD1       22.9880   38.1130   24.6840 C.ar  127  TRP127      0.0946
     93  CD2       23.9660   38.6400   22.7400 C.ar  127  TRP127      0.0152
     94  NE1       22.4090   37.3370   23.7080 N.ar  127  TRP127     -0.2442
     95  CE2       22.9970   37.6380   22.5050 C.ar  127  TRP127      0.0810
     96  CE3       24.7170   39.1240   21.6650 C.ar  127  TRP127      0.0012
     97  CZ2       22.7580   37.1190   21.2460 C.ar  127  TRP127      0.0191
     98  CZ3       24.4760   38.6090   20.4040 C.ar  127  TRP127      0.0001
     99  CH2       23.5010   37.6180   20.2020 C.ar  127  TRP127      0.0015
    100  N         17.3510   33.5260   32.6110 N.3   186  LYS186     -0.1245
    101  CA        18.1830   32.7200   31.7110 C.3   186  LYS186      0.1561
    102  C         19.6590   32.9120   32.0710 C.2   186  LYS186      0.2260
    103  O         20.3550   33.7180   31.4450 O.2   186  LYS186     -0.2867
    104  CB        17.9350   33.0760   30.2400 C.3   186  LYS186      0.0271
    105  CG        18.4130   31.9950   29.2620 C.3   186  LYS186      0.0035
    106  CD        18.4170   32.5010   27.8240 C.3   186  LYS186      0.0206
    107  CE        18.9550   31.4630   26.8670 C.3   186  LYS186      0.1093
    108  NZ        20.4380   31.5030   26.7930 N.3   186  LYS186     -0.1314
    109  N         22.5060   31.8520   31.6260 N.3   188  THR188     -0.1204
    110  CA        23.6170   31.6680   30.6960 C.3   188  THR188      0.1979
    111  C         24.8530   32.5750   30.9100 C.2   188  THR188      0.2459
    112  O         25.9750   32.0640   30.9450 O.2   188  THR188     -0.2732
    113  CB        23.1410   31.7990   29.2390 C.3   188  THR188      0.1783
    114  OG1       21.8680   31.1470   29.0980 O.3   188  THR188     -0.2211
    115  CG2       24.1820   31.1720   28.2650 C.3   188  THR188      0.0376
    116  N         24.6540   33.9120   31.0430 N.am  189  PRO189     -0.2728
    117  CA        25.8020   34.8130   30.9980 C.3   189  PRO189      0.1401
    118  C         26.5720   34.9300   32.3090 C.2   189  PRO189      0.2269
    119  O         27.3910   35.8480   32.4520 O.2   189  PRO189     -0.2865
    120  CB        25.1580   36.1470   30.6800 C.3   189  PRO189      0.0296
    121  CG        23.8550   36.0790   31.4350 C.3   189  PRO189      0.0237
    122  CD        23.3940   34.6690   31.2010 C.3   189  PRO189      0.0939
    123  N         20.2360   26.8370   32.0380 N.3   217  ASP217     -0.1239
    124  CA        21.0910   26.6400   30.8710 C.3   217  ASP217      0.1674
    125  C         22.4310   26.0630   31.2530 C.2   217  ASP217      0.2266
    126  O         23.2140   26.7130   31.9450 O.2   217  ASP217     -0.2867
    127  CB        21.2500   27.9580   30.1040 C.3   217  ASP217      0.1410
    128  CG        22.0270   27.8040   28.8140 C.2   217  ASP217      0.3668
    129  OD1       22.3690   26.6650   28.4260 O.co2 217  ASP217     -0.2456
    130  OD2       22.2850   28.8420   28.1820 O.co2 217  ASP217     -0.2456
    131  N         24.8880   25.4260   29.3650 N.3   219  TRP219     -0.1241
    132  CA        25.9660   26.2040   28.7400 C.3   219  TRP219      0.1605
    133  C         26.7380   27.0580   29.7520 C.2   219  TRP219      0.2264
    134  O         27.8790   27.4340   29.4850 O.2   219  TRP219     -0.2867
    135  CB        25.4220   27.1390   27.6580 C.3   219  TRP219      0.0550
    136  CG        25.2120   26.5550   26.2900 C.ar  219  TRP219      0.0003
    137  CD1       24.0100   26.2270   25.7080 C.ar  219  TRP219      0.0946
    138  CD2       26.2240   26.2730   25.3060 C.ar  219  TRP219      0.0152
    139  NE1       24.2140   25.7600   24.4220 N.ar  219  TRP219     -0.2442
    140  CE2       25.5600   25.7800   24.1490 C.ar  219  TRP219      0.0810
    141  CE3       27.6220   26.3960   25.2860 C.ar  219  TRP219      0.0012
    142  CZ2       26.2590   25.3850   22.9820 C.ar  219  TRP219      0.0191
    143  CZ3       28.3220   26.0140   24.1190 C.ar  219  TRP219      0.0001
    144  CH2       27.6310   25.5150   22.9860 C.ar  219  TRP219      0.0015
    145  N         30.0160   25.7760   30.4900 N.3   222  TRP222     -0.1227
    146  CA        30.9680   26.1850   29.4470 C.3   222  TRP222      0.1737
    147  C         31.4630   27.6180   29.6730 C.2   222  TRP222      0.2595
    148  O         32.6560   27.8860   29.5240 O.2   222  TRP222     -0.2718
    149  CB        30.3060   26.0550   28.0640 C.3   222  TRP222      0.0564
    150  CG        31.1740   26.4230   26.9050 C.ar  222  TRP222      0.0003
    151  CD1       31.9860   25.5890   26.1910 C.ar  222  TRP222      0.0946
    152  CD2       31.2930   27.7200   26.2890 C.ar  222  TRP222      0.0152
    153  NE1       32.6110   26.2800   25.1880 N.ar  222  TRP222     -0.2442
    154  CE2       32.2070   27.5890   25.2180 C.ar  222  TRP222      0.0810
    155  CE3       30.7240   28.9810   26.5480 C.ar  222  TRP222      0.0012
    156  CZ2       32.5730   28.6710   24.3930 C.ar  222  TRP222      0.0191
    157  CZ3       31.0980   30.0640   25.7290 C.ar  222  TRP222      0.0001
    158  CH2       32.0100   29.8930   24.6580 C.ar  222  TRP222      0.0015
    159  N         30.5560   28.5260   30.0340 N.am  223  GLU223     -0.1979
    160  CA        30.9290   29.9280   30.3170 C.3   223  GLU223      0.1602
    161  C         31.9760   30.0470   31.4380 C.2   223  GLU223      0.2287
    162  O         32.8600   30.9130   31.3920 O.2   223  GLU223     -0.2864
    163  CB        29.6950   30.7820   30.6420 C.3   223  GLU223      0.0415
    164  CG        28.7220   31.0150   29.4660 C.3   223  GLU223      0.1163
    165  CD        29.2440   32.0100   28.4230 C.2   223  GLU223      0.3649
    166  OE1       30.2440   32.7010   28.6930 O.co2 223  GLU223     -0.2457
    167  OE2       28.6520   32.1160   27.3310 O.co2 223  GLU223     -0.2457
    168  N         18.2880   24.4780   28.3750 N.3   267  GLU267     -0.1245
    169  CA        19.3120   24.3390   27.3460 C.3   267  GLU267      0.1567
    170  C         20.5420   23.7620   28.0740 C.2   267  GLU267      0.2260
    171  O         20.6250   23.8800   29.3010 O.2   267  GLU267     -0.2867
    172  CB        19.6680   25.7030   26.7370 C.3   267  GLU267      0.0388
    173  CG        18.5540   26.4020   25.9610 C.3   267  GLU267      0.1160
    174  CD        19.0200   27.6820   25.2760 C.2   267  GLU267      0.3649
    175  OE1       20.2070   27.7660   24.8690 O.co2 267  GLU267     -0.2457
    176  OE2       18.1920   28.6090   25.1160 O.co2 267  GLU267     -0.2457
    177  N         29.2960   24.1620   16.9600 N.3   477  SER477     -0.1202
    178  CA        27.8720   24.0320   17.2280 C.3   477  SER477      0.2020
    179  C         27.0900   24.3540   15.9640 C.2   477  SER477      0.2618
    180  O         27.4610   25.2540   15.2050 O.2   477  SER477     -0.2717
    181  CB        27.4270   24.9090   18.3980 C.3   477  SER477      0.2103
    182  OG        27.7540   26.2570   18.1690 O.3   477  SER477     -0.2182
    183  N         26.0140   23.5980   15.7550 N.am  478  TRP478     -0.1975
    184  CA        25.2130   23.6150   14.5250 C.3   478  TRP478      0.1640
    185  C         25.9210   22.8950   13.3740 C.2   478  TRP478      0.2290
    186  O         25.3960   22.8560   12.2530 O.2   478  TRP478     -0.2864
    187  CB        24.7820   25.0280   14.1110 C.3   478  TRP478      0.0576
    188  CG        24.2400   25.8670   15.2410 C.ar  478  TRP478      0.0006
    189  CD1       24.6710   27.1120   15.6180 C.ar  478  TRP478      0.0946
    190  CD2       23.1820   25.5150   16.1460 C.ar  478  TRP478      0.0152
    191  NE1       23.9460   27.5580   16.6890 N.ar  478  TRP478     -0.2442
    192  CE2       23.0280   26.5990   17.0420 C.ar  478  TRP478      0.0810
    193  CE3       22.3470   24.3950   16.2810 C.ar  478  TRP478      0.0012
    194  CZ2       22.0670   26.5990   18.0680 C.ar  478  TRP478      0.0191
    195  CZ3       21.3880   24.3920   17.3030 C.ar  478  TRP478      0.0001
    196  CH2       21.2590   25.4920   18.1810 C.ar  478  TRP478      0.0015
@<TRIPOS>BOND
     1    23    24    1
     2    24    25    1
     3    24    27    1
     4    28    27    1
     5    25    26    2
     6    25    30   am
     7   186   185    2
     8    30    31    1
     9    27    29    1
    10    45    44    2
    11    31    34    1
    12    31    32    1
    13    34    35    1
    14   185   184    1
    15    44    43    1
    16   187   184    1
    17   187   188    1
    18   184   183    1
    19    32    36   am
    20    32    33    2
    21    46    48    1
    22    46    43    1
    23    46    47    1
    24    36    37    1
    25    43    42    1
    26     4     3    2
    27    42    38   am
    28   180   179    2
    29   188   189   ar
    30   188   190   ar
    31    47    49    1
    32     3     2    1
    33   189   191   ar
    34   183   179   am
    35   179   178    1
    36    37    38    1
    37    37    40    1
    38   190   193   ar
    39   190   192   ar
    40    38    39    2
    41    16    15    2
    42   193   195   ar
    43    15    14    1
    44   191   192   ar
    45   177   178    1
    46   192   194   ar
    47     2     5    1
    48     2     1    1
    49   178   181    1
    50   195   196   ar
    51    40    41    1
    52     5     6    1
    53    19    21   ar
    54    19    18   ar
    55    14    13    1
    56    14    17    1
    57   194   196   ar
    58   182   181    1
    59    59    58    2
    60    53    52    2
    61    21    22   ar
    62     6     7   ar
    63     6     8   ar
    64     7     9   ar
    65    17    18    1
    66    18    20   ar
    67    60    57    1
    68    58    57    1
    69    50    51    1
    70    52    51    1
    71    52    56   am
    72    54    51    1
    73    54    55    1
    74    22    20   ar
    75    57    56    1
    76     9    11   ar
    77     8    10   ar
    78    99    98   ar
    79    99    97   ar
    80    98    96   ar
    81    97    95   ar
    82    11    10   ar
    83    11    12    1
    84    96    93   ar
    85    95    93   ar
    86    95    94   ar
    87    93    91   ar
    88    64    63    2
    89   142   144   ar
    90   142   140   ar
    91   144   143   ar
    92    72    71    2
    93    89    88    2
    94    61    62    1
    95    94    92   ar
    96    88    87    1
    97    65    66    1
    98    65    62    1
    99    65    67    1
   100    63    62    1
   101    63    69   am
   102   143   141   ar
   103    91    92   ar
   104    91    90    1
   105   140   139   ar
   106   140   138   ar
   107    68    66    1
   108    71    70    1
   109   156   158   ar
   110   156   154   ar
   111   139   137   ar
   112   158   157   ar
   113    90    87    1
   114   175   174   ar
   115    73    70    1
   116   176   174   ar
   117    69    70    1
   118   153   154   ar
   119   153   151   ar
   120    87    86    1
   121   154   152   ar
   122   174   173    1
   123   141   138   ar
   124   138   136   ar
   125   137   136   ar
   126   157   155   ar
   127    86    76   am
   128   173   172    1
   129   151   150   ar
   130   152   155   ar
   131   152   150   ar
   132   136   135    1
   133    74    75    1
   134   172   169    1
   135    76    77    2
   136    76    75    1
   137   108   107    1
   138   107   106    1
   139   150   149    1
   140   167   165   ar
   141   169   170    1
   142   169   168    1
   143    75    78    1
   144    85    84    1
   145   135   132    1
   146   106   105    1
   147    84    82   ar
   148    84    83   ar
   149    82    80   ar
   150   149   146    1
   151   170   171    2
   152    83    81   ar
   153    80    79   ar
   154   130   128   ar
   155   115   113    1
   156    81    79   ar
   157    79    78    1
   158   165   166   ar
   159   165   164    1
   160   129   128   ar
   161   132   131    1
   162   132   133    1
   163   128   127    1
   164   114   113    1
   165   113   110    1
   166   105   104    1
   167   146   147    1
   168   146   145    1
   169   164   163    1
   170   134   133    2
   171   148   147    2
   172   147   159   am
   173   159   160    1
   174   127   124    1
   175   104   101    1
   176   160   163    1
   177   160   161    1
   178   120   117    1
   179   120   121    1
   180   110   111    1
   181   110   109    1
   182   124   125    1
   183   124   123    1
   184   111   112    2
   185   111   116   am
   186   117   116    1
   187   117   118    1
   188   116   122    1
   189   122   121    1
   190   125   126    2
   191   162   161    2
   192   103   102    2
   193   101   102    1
   194   101   100    1
   195   118   119    2
