@<TRIPOS>MOLECULE
tmp/2wmhA00.pdb
 160 158 0 0 0
SMALL
GASTEIGER

@<TRIPOS>ATOM
      1  N         14.5980   22.2600   18.0220 N.3    19  TYR19      -0.1241
      2  CA        15.3140   23.3040   17.3030 C.3    19  TYR19       0.1605
      3  C         15.2860   23.0220   15.8010 C.2    19  TYR19       0.2264
      4  O         15.4970   21.8760   15.3610 O.2    19  TYR19      -0.2867
      5  CB        16.7560   23.3830   17.8100 C.3    19  TYR19       0.0534
      6  CG        16.9700   24.2540   19.0650 C.ar   19  TYR19      -0.0201
      7  CD1       17.8640   25.3150   19.0360 C.ar   19  TYR19      -0.0009
      8  CD2       16.3190   24.0050   20.2690 C.ar   19  TYR19      -0.0009
      9  CE1       18.1060   26.1310   20.1620 C.ar   19  TYR19       0.0417
     10  CE2       16.5340   24.8540   21.4000 C.ar   19  TYR19       0.0417
     11  CZ        17.4140   25.9100   21.3210 C.ar   19  TYR19       0.1957
     12  OH        17.6470   26.7160   22.4390 O.3    19  TYR19      -0.2866
     13  N         11.8600   26.2650   18.4470 N.3    53  HIS53      -0.1241
     14  CA        12.8540   27.3020   18.2300 C.3    53  HIS53       0.1621
     15  C         13.3620   27.1540   16.8010 C.2    53  HIS53       0.2264
     16  O         13.9040   26.1130   16.4560 O.2    53  HIS53      -0.2867
     17  CB        14.0300   27.1700   19.2240 C.3    53  HIS53       0.0745
     18  CG        14.8750   28.3990   19.2910 C.ar   53  HIS53       0.0817
     19  ND1       15.1930   29.1310   18.1650 N.ar   53  HIS53      -0.2268
     20  CD2       15.4310   29.0540   20.3410 C.ar   53  HIS53       0.1154
     21  CE1       15.9230   30.1720   18.5250 C.ar   53  HIS53       0.1986
     22  NE2       16.0810   30.1440   19.8390 N.ar   53  HIS53      -0.2212
     23  N         19.2840   31.1570   14.9980 N.3    63  CYS63      -0.1221
     24  CA        18.6250   31.5200   16.2480 C.3    63  CYS63       0.1808
     25  C         18.0790   32.9450   16.3090 C.2    63  CYS63       0.2601
     26  O         17.4010   33.2950   17.2670 O.2    63  CYS63      -0.2717
     27  CB        19.5160   31.2050   17.4710 C.3    63  CYS63       0.0970
     28  SG        19.8830   29.4200   17.6830 S.3    63  CYS63      -0.0800
     29  N         18.3070   33.7450   15.2680 N.am   64  ILE64      -0.1979
     30  CA        17.8520   35.1280   15.2530 C.3    64  ILE64       0.1595
     31  C         16.6980   35.1840   14.2450 C.2    64  ILE64       0.2287
     32  O         16.9530   35.1580   13.0520 O.2    64  ILE64      -0.2864
     33  CB        18.9850   36.1400   14.9540 C.3    64  ILE64       0.0276
     34  CG1       20.1470   35.9590   15.9620 C.3    64  ILE64       0.0022
     35  CG2       18.4370   37.5580   15.0300 C.3    64  ILE64       0.0022
     36  CD1       21.2520   37.0400   15.9210 C.3    64  ILE64       0.0001
     37  N         14.3110   36.8830   19.4990 N.3    95  SER95      -0.1202
     38  CA        15.5760   36.5740   20.1300 C.3    95  SER95       0.2020
     39  C         16.6830   37.5160   19.6580 C.2    95  SER95       0.2618
     40  O         16.6710   38.0050   18.5210 O.2    95  SER95      -0.2717
     41  CB        15.9980   35.1280   19.8280 C.3    95  SER95       0.2103
     42  OG        17.1280   34.6970   20.5930 O.3    95  SER95      -0.2182
     43  N         17.6820   37.6870   20.5090 N.am   96  ALA96      -0.1979
     44  CA        18.9420   38.3070   20.1270 C.3    96  ALA96       0.1597
     45  C         18.7990   39.6550   19.3760 C.2    96  ALA96       0.2287
     46  O         19.5130   39.9360   18.3660 O.2    96  ALA96      -0.2864
     47  CB        19.8120   37.2990   19.3560 C.3    96  ALA96       0.0319
     48  N         13.4750   35.2210   23.7890 N.3   123  ILE123     -0.1231
     49  CA        14.6140   34.6320   24.5120 C.3   123  ILE123      0.1692
     50  C         15.9130   35.3600   24.2200 C.2   123  ILE123      0.2591
     51  O         16.3330   35.4090   23.0850 O.2   123  ILE123     -0.2718
     52  CB        14.8050   33.1150   24.1500 C.3   123  ILE123      0.0266
     53  CG1       13.5050   32.2930   24.4330 C.3   123  ILE123      0.0019
     54  CG2       16.0450   32.5310   24.8910 C.3   123  ILE123      0.0020
     55  CD1       13.6290   30.7990   24.0770 C.3   123  ILE123      0.0001
     56  N         16.5100   35.9330   25.2720 N.am  124  GLU124     -0.1979
     57  CA        17.9220   36.2960   25.3360 C.3   124  GLU124      0.1602
     58  C         18.2820   37.5410   24.5450 C.2   124  GLU124      0.2287
     59  O         18.4290   37.4870   23.3170 O.2   124  GLU124     -0.2864
     60  CB        18.8500   35.1550   24.8800 C.3   124  GLU124      0.0415
     61  CG        20.3300   35.5240   25.0460 C.3   124  GLU124      0.1163
     62  CD        21.2690   34.4400   24.5850 C.2   124  GLU124      0.3649
     63  OE1       21.0530   33.2780   24.9170 O.co2 124  GLU124     -0.2457
     64  OE2       22.2570   34.7460   23.8950 O.co2 124  GLU124     -0.2457
     65  N         22.8650   40.9410   25.7420 N.3   127  TRP127     -0.1241
     66  CA        24.1100   41.3330   25.0760 C.3   127  TRP127      0.1605
     67  C         23.8600   42.2120   23.8260 C.2   127  TRP127      0.2264
     68  O         24.8080   42.6480   23.1810 O.2   127  TRP127     -0.2867
     69  CB        24.9550   40.1060   24.7040 C.3   127  TRP127      0.0550
     70  CG        24.2450   39.0860   23.8840 C.ar  127  TRP127      0.0003
     71  CD1       23.4270   38.1000   24.3500 C.ar  127  TRP127      0.0946
     72  CD2       24.2870   38.9200   22.4570 C.ar  127  TRP127      0.0152
     73  NE1       22.9600   37.3310   23.3120 N.ar  127  TRP127     -0.2442
     74  CE2       23.4620   37.8170   22.1380 C.ar  127  TRP127      0.0810
     75  CE3       24.9550   39.5880   21.4150 C.ar  127  TRP127      0.0012
     76  CZ2       23.2760   37.3680   20.8250 C.ar  127  TRP127      0.0191
     77  CZ3       24.7600   39.1380   20.0980 C.ar  127  TRP127      0.0001
     78  CH2       23.9230   38.0650   19.8120 C.ar  127  TRP127      0.0015
     79  N         17.3380   33.5880   32.7080 N.3   186  LYS186     -0.1245
     80  CA        18.1540   32.7880   31.8000 C.3   186  LYS186      0.1561
     81  C         19.6070   33.0270   32.1390 C.2   186  LYS186      0.2260
     82  O         20.2440   33.9230   31.5830 O.2   186  LYS186     -0.2867
     83  CB        17.8870   33.1730   30.3380 C.3   186  LYS186      0.0271
     84  CG        18.5790   32.2260   29.3520 C.3   186  LYS186      0.0035
     85  CD        18.2620   32.5110   27.9340 C.3   186  LYS186      0.0206
     86  CE        18.8020   31.4330   27.0250 C.3   186  LYS186      0.1093
     87  NZ        20.2620   31.5380   26.8850 N.3   186  LYS186     -0.1314
     88  N         22.5250   31.8670   31.6610 N.3   188  THR188     -0.1218
     89  CA        23.6310   31.8160   30.7180 C.3   188  THR188      0.1862
     90  C         24.8670   32.7050   30.9500 C.2   188  THR188      0.2287
     91  O         26.0060   32.1730   30.9320 O.2   188  THR188     -0.2866
     92  CB        23.1130   32.0130   29.2390 C.3   188  THR188      0.1770
     93  OG1       21.8670   31.3220   29.0800 O.3   188  THR188     -0.2211
     94  CG2       24.1730   31.4730   28.2350 C.3   188  THR188      0.0375
     95  N         24.8270   25.5690   29.3670 N.3   219  TRP219     -0.1241
     96  CA        25.9210   26.3620   28.7660 C.3   219  TRP219      0.1605
     97  C         26.6340   27.2180   29.8030 C.2   219  TRP219      0.2264
     98  O         27.7450   27.6320   29.5650 O.2   219  TRP219     -0.2867
     99  CB        25.4320   27.3090   27.6610 C.3   219  TRP219      0.0550
    100  CG        25.2240   26.6840   26.2950 C.ar  219  TRP219      0.0003
    101  CD1       24.0370   26.3340   25.7120 C.ar  219  TRP219      0.0946
    102  CD2       26.2460   26.4030   25.3260 C.ar  219  TRP219      0.0152
    103  NE1       24.2610   25.8300   24.4400 N.ar  219  TRP219     -0.2442
    104  CE2       25.6040   25.8610   24.1780 C.ar  219  TRP219      0.0810
    105  CE3       27.6370   26.5250   25.3270 C.ar  219  TRP219      0.0012
    106  CZ2       26.3220   25.4650   23.0250 C.ar  219  TRP219      0.0191
    107  CZ3       28.3550   26.1540   24.1760 C.ar  219  TRP219      0.0001
    108  CH2       27.6920   25.6350   23.0450 C.ar  219  TRP219      0.0015
    109  N         30.0380   25.7740   30.3510 N.3   222  TRP222     -0.1227
    110  CA        30.9810   26.2260   29.3150 C.3   222  TRP222      0.1737
    111  C         31.4720   27.6720   29.5900 C.2   222  TRP222      0.2595
    112  O         32.6730   27.9580   29.5030 O.2   222  TRP222     -0.2718
    113  CB        30.2940   26.1210   27.9290 C.3   222  TRP222      0.0564
    114  CG        31.1890   26.5070   26.7850 C.ar  222  TRP222      0.0003
    115  CD1       32.0870   25.7190   26.1380 C.ar  222  TRP222      0.0946
    116  CD2       31.2680   27.7850   26.1940 C.ar  222  TRP222      0.0152
    117  NE1       32.7240   26.4460   25.1380 N.ar  222  TRP222     -0.2442
    118  CE2       32.2120   27.7130   25.1450 C.ar  222  TRP222      0.0810
    119  CE3       30.6100   28.9910   26.4300 C.ar  222  TRP222      0.0012
    120  CZ2       32.5470   28.8070   24.3700 C.ar  222  TRP222      0.0191
    121  CZ3       30.9200   30.0830   25.6300 C.ar  222  TRP222      0.0001
    122  CH2       31.8870   29.9820   24.6070 C.ar  222  TRP222      0.0015
    123  N         30.5460   28.5690   29.9470 N.am  223  GLU223     -0.1979
    124  CA        30.8720   29.9680   30.2280 C.3   223  GLU223      0.1602
    125  C         31.9160   30.0810   31.3600 C.2   223  GLU223      0.2287
    126  O         32.7550   30.9770   31.3290 O.2   223  GLU223     -0.2864
    127  CB        29.6080   30.7810   30.5490 C.3   223  GLU223      0.0415
    128  CG        28.6700   30.9570   29.3530 C.3   223  GLU223      0.1163
    129  CD        29.1870   31.9490   28.3130 C.2   223  GLU223      0.3649
    130  OE1       30.1850   32.6520   28.5710 O.co2 223  GLU223     -0.2457
    131  OE2       28.5790   32.0390   27.2290 O.co2 223  GLU223     -0.2457
    132  N         18.1660   24.6120   28.4960 N.3   267  GLU267     -0.1245
    133  CA        19.1940   24.4490   27.4520 C.3   267  GLU267      0.1567
    134  C         20.3980   23.8030   28.1610 C.2   267  GLU267      0.2260
    135  O         20.4960   23.8650   29.3960 O.2   267  GLU267     -0.2867
    136  CB        19.5920   25.8180   26.8440 C.3   267  GLU267      0.0388
    137  CG        18.5280   26.4620   26.0130 C.3   267  GLU267      0.1160
    138  CD        18.9640   27.7070   25.2530 C.2   267  GLU267      0.3649
    139  OE1       20.0890   27.7020   24.6750 O.co2 267  GLU267     -0.2457
    140  OE2       18.1580   28.6900   25.2360 O.co2 267  GLU267     -0.2457
    141  N         29.0780   24.3000   16.8980 N.3   477  SER477     -0.1202
    142  CA        27.6420   24.3710   17.1740 C.3   477  SER477      0.2020
    143  C         26.8900   24.5230   15.8580 C.2   477  SER477      0.2618
    144  O         27.3130   25.3080   15.0000 O.2   477  SER477     -0.2717
    145  CB        27.3120   25.5480   18.0910 C.3   477  SER477      0.2103
    146  OG        27.7230   25.2800   19.4140 O.3   477  SER477     -0.2182
    147  N         25.7970   23.7620   15.7090 N.am  478  TRP478     -0.1975
    148  CA        24.9860   23.7110   14.4870 C.3   478  TRP478      0.1640
    149  C         25.7030   23.0470   13.3220 C.2   478  TRP478      0.2290
    150  O         25.2280   23.1490   12.2020 O.2   478  TRP478     -0.2864
    151  CB        24.4830   25.0960   14.0230 C.3   478  TRP478      0.0576
    152  CG        24.0020   25.9360   15.1470 C.ar  478  TRP478      0.0006
    153  CD1       24.4430   27.1670   15.4860 C.ar  478  TRP478      0.0946
    154  CD2       23.0050   25.5760   16.1170 C.ar  478  TRP478      0.0152
    155  NE1       23.7810   27.6120   16.6030 N.ar  478  TRP478     -0.2442
    156  CE2       22.8960   26.6500   17.0160 C.ar  478  TRP478      0.0810
    157  CE3       22.1910   24.4480   16.3040 C.ar  478  TRP478      0.0012
    158  CZ2       22.0020   26.6380   18.0980 C.ar  478  TRP478      0.0191
    159  CZ3       21.2960   24.4320   17.3660 C.ar  478  TRP478      0.0001
    160  CH2       21.2150   25.5160   18.2560 C.ar  478  TRP478      0.0015
@<TRIPOS>BOND
     1   150   149    2
     2    32    31    2
     3   149   148    1
     4   151   148    1
     5   151   152    1
     6    31    30    1
     7   148   147    1
     8    33    35    1
     9    33    30    1
    10    33    34    1
    11    23    24    1
    12   144   143    2
    13   152   153   ar
    14   152   154   ar
    15    30    29    1
    16    29    25   am
    17     4     3    2
    18   153   155   ar
    19   147   143   am
    20     3     2    1
    21   143   142    1
    22    36    34    1
    23   154   157   ar
    24   154   156   ar
    25    24    25    1
    26    24    27    1
    27   157   159   ar
    28    25    26    2
    29    16    15    2
    30   155   156   ar
    31    15    14    1
    32   141   142    1
    33   156   158   ar
    34   142   145    1
    35     2     5    1
    36     2     1    1
    37   159   160   ar
    38    27    28    1
    39     5     6    1
    40   145   146    1
    41   158   160   ar
    42    19    21   ar
    43    19    18   ar
    44    14    13    1
    45    14    17    1
    46    46    45    2
    47    40    39    2
    48    21    22   ar
    49     7     6   ar
    50     7     9   ar
    51     6     8   ar
    52    17    18    1
    53    18    20   ar
    54    47    44    1
    55    45    44    1
    56    37    38    1
    57    39    38    1
    58    39    43   am
    59    78    77   ar
    60    78    76   ar
    61    41    38    1
    62    41    42    1
    63    22    20   ar
    64    77    75   ar
    65    44    43    1
    66     9    11   ar
    67     8    10   ar
    68    76    74   ar
    69    11    10   ar
    70    11    12    1
    71    75    72   ar
    72    74    72   ar
    73    74    73   ar
    74    72    70   ar
    75   106   108   ar
    76   106   104   ar
    77   108   107   ar
    78    51    50    2
    79    68    67    2
    80    73    71   ar
    81    59    58    2
    82    48    49    1
    83    67    66    1
    84    70    71   ar
    85    70    69    1
    86    64    62   ar
    87    55    53    1
    88    52    53    1
    89    52    49    1
    90    52    54    1
    91   107   105   ar
    92   104   103   ar
    93   104   102   ar
    94    50    49    1
    95    50    56   am
    96   120   122   ar
    97   120   118   ar
    98   103   101   ar
    99    58    57    1
   100    62    63   ar
   101    62    61    1
   102   122   121   ar
   103   139   138   ar
   104    69    66    1
   105    60    61    1
   106    60    57    1
   107    66    65    1
   108   117   118   ar
   109   117   115   ar
   110   118   116   ar
   111   140   138   ar
   112   138   137    1
   113    56    57    1
   114   102   105   ar
   115   102   100   ar
   116   121   119   ar
   117   101   100   ar
   118   137   136    1
   119   115   114   ar
   120   116   119   ar
   121   116   114   ar
   122   100    99    1
   123   114   113    1
   124   136   133    1
   125    87    86    1
   126    86    85    1
   127   131   129   ar
   128   133   134    1
   129   133   132    1
   130    99    96    1
   131   113   110    1
   132    85    84    1
   133   134   135    2
   134    94    92    1
   135   129   130   ar
   136   129   128    1
   137    96    95    1
   138    96    97    1
   139    93    92    1
   140    92    89    1
   141   110   111    1
   142   110   109    1
   143    84    83    1
   144   128   127    1
   145   112   111    2
   146    98    97    2
   147   111   123   am
   148   123   124    1
   149   124   127    1
   150   124   125    1
   151    83    80    1
   152    89    90    1
   153    89    88    1
   154    91    90    2
   155   126   125    2
   156    82    81    2
   157    80    81    1
   158    80    79    1
