@<TRIPOS>MOLECULE
tmp/2wmjB00.pdb
 196 192 0 0 0
SMALL
GASTEIGER

@<TRIPOS>ATOM
      1  N         37.6690   49.8140  -16.6430 N.3    19  TYR19      -0.1241
      2  CA        38.2300   48.5500  -17.1510 C.3    19  TYR19       0.1605
      3  C         37.4460   48.0650  -18.3900 C.2    19  TYR19       0.2264
      4  O         36.2230   47.8580  -18.3160 O.2    19  TYR19      -0.2867
      5  CB        38.1750   47.4570  -16.0370 C.3    19  TYR19       0.0534
      6  CG        39.2870   47.5410  -14.9890 C.ar   19  TYR19      -0.0201
      7  CD1       39.5870   48.7400  -14.3240 C.ar   19  TYR19      -0.0009
      8  CD2       40.0390   46.4140  -14.6650 C.ar   19  TYR19      -0.0009
      9  CE1       40.6320   48.8040  -13.3710 C.ar   19  TYR19       0.0417
     10  CE2       41.0590   46.4610  -13.7240 C.ar   19  TYR19       0.0417
     11  CZ        41.3430   47.6450  -13.0610 C.ar   19  TYR19       0.1957
     12  OH        42.3890   47.6620  -12.1440 O.3    19  TYR19      -0.2866
     13  N         33.4690   47.0780  -17.8140 N.3    33  TRP33      -0.1241
     14  CA        32.8800   46.2440  -16.7540 C.3    33  TRP33       0.1605
     15  C         32.2490   47.1370  -15.6890 C.2    33  TRP33       0.2264
     16  O         32.8710   48.1000  -15.2410 O.2    33  TRP33      -0.2867
     17  CB        33.9470   45.3600  -16.1000 C.3    33  TRP33       0.0550
     18  CG        34.3770   44.2040  -16.9470 C.ar   33  TRP33       0.0003
     19  CD1       35.5490   44.0760  -17.6320 C.ar   33  TRP33       0.0946
     20  CD2       33.6230   43.0110  -17.2000 C.ar   33  TRP33       0.0152
     21  NE1       35.5830   42.8510  -18.2720 N.ar   33  TRP33      -0.2442
     22  CE2       34.4050   42.1930  -18.0390 C.ar   33  TRP33       0.0810
     23  CE3       32.3550   42.5600  -16.7930 C.ar   33  TRP33       0.0012
     24  CZ2       33.9600   40.9310  -18.5000 C.ar   33  TRP33       0.0191
     25  CZ3       31.9140   41.2970  -17.2360 C.ar   33  TRP33       0.0001
     26  CH2       32.7210   40.5010  -18.0770 C.ar   33  TRP33       0.0015
     27  N         41.9120   51.0310  -18.3980 N.3    58  HIS58      -0.1241
     28  CA        42.5930   49.7510  -18.1280 C.3    58  HIS58       0.1621
     29  C         42.0860   48.7290  -19.1650 C.2    58  HIS58       0.2264
     30  O         40.8700   48.6370  -19.4180 O.2    58  HIS58      -0.2867
     31  CB        42.2670   49.2620  -16.7120 C.3    58  HIS58       0.0745
     32  CG        43.1460   48.1440  -16.2170 C.ar   58  HIS58       0.0817
     33  ND1       43.1100   46.8690  -16.7490 N.ar   58  HIS58      -0.2268
     34  CD2       44.0400   48.0990  -15.1990 C.ar   58  HIS58       0.1154
     35  CE1       43.9780   46.1010  -16.1090 C.ar   58  HIS58       0.1986
     36  NE2       44.5530   46.8230  -15.1620 N.ar   58  HIS58      -0.2212
     37  N         42.0280   45.4820  -19.0050 N.3    60  ASP60      -0.1225
     38  CA        41.4720   44.2930  -18.3650 C.3    60  ASP60       0.1805
     39  C         41.5510   43.0500  -19.2760 C.2    60  ASP60       0.2597
     40  O         42.6440   42.5900  -19.5950 O.2    60  ASP60      -0.2718
     41  CB        40.0480   44.5890  -17.8960 C.3    60  ASP60       0.1424
     42  CG        39.5660   43.6310  -16.8080 C.2    60  ASP60       0.3668
     43  OD1       40.3470   42.7560  -16.3820 O.co2  60  ASP60      -0.2456
     44  OD2       38.3990   43.7760  -16.3710 O.co2  60  ASP60      -0.2456
     45  N         40.4150   42.5350  -19.7350 N.am   61  ASP61      -0.1974
     46  CA        40.4280   41.2410  -20.4200 C.3    61  ASP61       0.1709
     47  C         40.1910   41.3580  -21.9490 C.2    61  ASP61       0.2293
     48  O         39.6380   40.4570  -22.5840 O.2    61  ASP61      -0.2864
     49  CB        39.4480   40.2750  -19.7430 C.3    61  ASP61       0.1436
     50  CG        38.0090   40.7240  -19.8750 C.2    61  ASP61       0.3671
     51  OD1       37.7720   41.9140  -20.2210 O.co2  61  ASP61      -0.2456
     52  OD2       37.1140   39.8900  -19.6300 O.co2  61  ASP61      -0.2456
     53  N         51.4160   46.0080  -17.2530 N.3   102  THR102     -0.1203
     54  CA        50.8480   45.3160  -16.0920 C.3   102  THR102      0.1994
     55  C         51.1300   43.8250  -16.2850 C.2   102  THR102      0.2617
     56  O         51.2990   43.3780  -17.4310 O.2   102  THR102     -0.2717
     57  CB        49.3080   45.6020  -15.9330 C.3   102  THR102      0.1784
     58  OG1       48.8470   45.1030  -14.6670 O.3   102  THR102     -0.2211
     59  CG2       48.4670   44.9670  -17.0970 C.3   102  THR102      0.0376
     60  N         51.2330   43.0690  -15.1730 N.am  103  ALA103     -0.1979
     61  CA        51.6520   41.6520  -15.2280 C.3   103  ALA103      0.1597
     62  C         52.8710   41.4320  -16.1180 C.2   103  ALA103      0.2287
     63  O         52.9020   40.4660  -16.9340 O.2   103  ALA103     -0.2864
     64  CB        50.5110   40.7420  -15.6820 C.3   103  ALA103      0.0319
     65  N         51.2590   49.0420  -13.4670 N.3   136  THR136     -0.1203
     66  CA        50.5970   48.5750  -12.2600 C.3   136  THR136      0.1994
     67  C         50.7090   47.0610  -12.0620 C.2   136  THR136      0.2617
     68  O         50.4070   46.2890  -12.9740 O.2   136  THR136     -0.2717
     69  CB        49.1060   49.0510  -12.1970 C.3   136  THR136      0.1784
     70  OG1       48.5220   48.6410  -10.9590 O.3   136  THR136     -0.2211
     71  CG2       48.2330   48.5240  -13.3650 C.3   136  THR136      0.0376
     72  N         51.1540   46.6780  -10.8670 N.am  137  GLU137     -0.1979
     73  CA        51.2050   45.2720  -10.4020 C.3   137  GLU137      0.1602
     74  C         52.0590   44.3130  -11.2490 C.2   137  GLU137      0.2287
     75  O         51.5310   43.5470  -12.0640 O.2   137  GLU137     -0.2864
     76  CB        49.7930   44.7110  -10.2380 C.3   137  GLU137      0.0415
     77  CG        49.7840   43.5010   -9.3480 C.3   137  GLU137      0.1163
     78  CD        48.4430   42.8720   -9.2570 C.2   137  GLU137      0.3649
     79  OE1       47.4670   43.6020   -8.9600 O.co2 137  GLU137     -0.2457
     80  OE2       48.3870   41.6380   -9.4680 O.co2 137  GLU137     -0.2457
     81  N         54.8040   40.1290   -9.0030 N.3   140  TRP140     -0.1241
     82  CA        54.7080   38.6520   -9.0490 C.3   140  TRP140      0.1605
     83  C         55.2150   38.0890  -10.3700 C.2   140  TRP140      0.2264
     84  O         55.2730   36.8540  -10.5510 O.2   140  TRP140     -0.2867
     85  CB        53.2810   38.1530   -8.7530 C.3   140  TRP140      0.0550
     86  CG        52.2120   38.7070   -9.6620 C.ar  140  TRP140      0.0003
     87  CD1       51.5430   39.9010   -9.5130 C.ar  140  TRP140      0.0946
     88  CD2       51.6910   38.1050  -10.8700 C.ar  140  TRP140      0.0152
     89  NE1       50.6450   40.0690  -10.5430 N.ar  140  TRP140     -0.2442
     90  CE2       50.7250   38.9900  -11.3930 C.ar  140  TRP140      0.0810
     91  CE3       51.9560   36.9080  -11.5560 C.ar  140  TRP140      0.0012
     92  CZ2       49.9980   38.7070  -12.5640 C.ar  140  TRP140      0.0191
     93  CZ3       51.2500   36.6380  -12.7380 C.ar  140  TRP140      0.0001
     94  CH2       50.2810   37.5310  -13.2260 C.ar  140  TRP140      0.0015
     95  N         51.0030   49.6480   -3.9630 N.3   203  LYS203     -0.1245
     96  CA        49.8010   48.9200   -4.3950 C.3   203  LYS203      0.1561
     97  C         49.5660   47.8280   -3.3610 C.2   203  LYS203      0.2260
     98  O         50.2570   46.8230   -3.3850 O.2   203  LYS203     -0.2867
     99  CB        49.9920   48.2760   -5.7810 C.3   203  LYS203      0.0271
    100  CG        48.6220   47.9460   -6.4130 C.3   203  LYS203      0.0035
    101  CD        48.6950   47.2140   -7.7090 C.3   203  LYS203      0.0206
    102  CE        47.2950   47.0740   -8.3190 C.3   203  LYS203      0.1093
    103  NZ        46.5550   45.8640   -7.7910 N.3   203  LYS203     -0.1314
    104  N         47.4880   45.4900   -2.6150 N.3   205  THR205     -0.1218
    105  CA        46.8840   44.2050   -3.0150 C.3   205  THR205      0.1862
    106  C         47.4520   42.9250   -2.3340 C.2   205  THR205      0.2287
    107  O         46.6940   42.1610   -1.7440 O.2   205  THR205     -0.2866
    108  CB        46.9170   44.0640   -4.5770 C.3   205  THR205      0.1770
    109  OG1       46.3390   45.2290   -5.1590 O.3   205  THR205     -0.2211
    110  CG2       46.1350   42.8500   -5.0280 C.3   205  THR205      0.0375
    111  N         47.7380   52.9650   -4.1820 N.3   234  LEU234     -0.1245
    112  CA        46.5130   52.3480   -4.6650 C.3   234  LEU234      0.1561
    113  C         46.0960   51.3870   -3.5410 C.2   234  LEU234      0.2260
    114  O         46.8640   50.4940   -3.1580 O.2   234  LEU234     -0.2867
    115  CB        46.7050   51.6280   -6.0270 C.3   234  LEU234      0.0270
    116  CG        45.4930   50.9770   -6.7450 C.3   234  LEU234      0.0019
    117  CD1       45.8230   50.6950   -8.2280 C.3   234  LEU234      0.0001
    118  CD2       45.0150   49.6820   -6.0580 C.3   234  LEU234      0.0001
    119  N         43.4600   48.6270   -2.0570 N.3   236  ASP236     -0.1239
    120  CA        42.7060   47.6100   -2.8100 C.3   236  ASP236      0.1674
    121  C         41.9300   46.7080   -1.8650 C.2   236  ASP236      0.2266
    122  O         42.5340   46.1030   -0.9720 O.2   236  ASP236     -0.2867
    123  CB        43.6860   46.8320   -3.6850 C.3   236  ASP236      0.1410
    124  CG        43.0180   45.7470   -4.5500 C.2   236  ASP236      0.3668
    125  OD1       41.7710   45.6260   -4.6160 O.co2 236  ASP236     -0.2456
    126  OD2       43.7880   44.9870   -5.1730 O.co2 236  ASP236     -0.2456
    127  N         40.6700   43.9340   -2.5160 N.3   238  TRP238     -0.1241
    128  CA        41.1240   42.5500   -2.7330 C.3   238  TRP238      0.1605
    129  C         42.0920   42.0860   -1.6380 C.2   238  TRP238      0.2264
    130  O         42.3760   40.9040   -1.5820 O.2   238  TRP238     -0.2867
    131  CB        41.7950   42.3600   -4.1030 C.3   238  TRP238      0.0550
    132  CG        40.8930   42.2460   -5.2900 C.ar  238  TRP238      0.0003
    133  CD1       40.5880   43.2350   -6.1690 C.ar  238  TRP238      0.0946
    134  CD2       40.2280   41.0610   -5.7710 C.ar  238  TRP238      0.0152
    135  NE1       39.7580   42.7550   -7.1580 N.ar  238  TRP238     -0.2442
    136  CE2       39.5220   41.4230   -6.9380 C.ar  238  TRP238      0.0810
    137  CE3       40.1430   39.7420   -5.3160 C.ar  238  TRP238      0.0012
    138  CZ2       38.7460   40.5090   -7.6740 C.ar  238  TRP238      0.0191
    139  CZ3       39.3640   38.8050   -6.0820 C.ar  238  TRP238      0.0001
    140  CH2       38.6910   39.2090   -7.2370 C.ar  238  TRP238      0.0015
    141  N         40.6090   39.3210    0.3100 N.3   241  TYR241     -0.1227
    142  CA        40.7660   37.9700   -0.3740 C.3   241  TYR241      0.1736
    143  C         42.1610   37.3480   -0.1240 C.2   241  TYR241      0.2595
    144  O         42.3100   36.2170    0.3620 O.2   241  TYR241     -0.2718
    145  CB        40.5060   38.1840   -1.8590 C.3   241  TYR241      0.0548
    146  CG        40.9700   37.0840   -2.8290 C.ar  241  TYR241     -0.0200
    147  CD1       40.2340   35.9000   -2.9910 C.ar  241  TYR241     -0.0009
    148  CD2       42.1120   37.2580   -3.6080 C.ar  241  TYR241     -0.0009
    149  CE1       40.6170   34.9210   -3.9190 C.ar  241  TYR241      0.0417
    150  CE2       42.5150   36.2800   -4.5240 C.ar  241  TYR241      0.0417
    151  CZ        41.7570   35.1170   -4.6720 C.ar  241  TYR241      0.1957
    152  OH        42.1680   34.1510   -5.5700 O.3   241  TYR241     -0.2866
    153  N         43.1780   38.1250   -0.4620 N.am  242  GLU242     -0.1979
    154  CA        44.5900   37.7410   -0.2760 C.3   242  GLU242      0.1602
    155  C         44.9120   37.2840    1.1300 C.2   242  GLU242      0.2287
    156  O         45.7470   36.3990    1.2980 O.2   242  GLU242     -0.2864
    157  CB        45.5110   38.9260   -0.6530 C.3   242  GLU242      0.0415
    158  CG        45.4990   39.2350   -2.1220 C.3   242  GLU242      0.1163
    159  CD        46.1390   38.1100   -2.9450 C.2   242  GLU242      0.3649
    160  OE1       47.1640   37.5400   -2.5010 O.co2 242  GLU242     -0.2457
    161  OE2       45.6130   37.8150   -4.0390 O.co2 242  GLU242     -0.2457
    162  N         40.9230   49.7850   -5.9020 N.3   289  GLU289     -0.1231
    163  CA        40.2720   48.6060   -6.4670 C.3   289  GLU289      0.1699
    164  C         39.5360   47.9470   -5.2900 C.2   289  GLU289      0.2592
    165  O         39.8670   48.2470   -4.1400 O.2   289  GLU289     -0.2718
    166  CB        41.2940   47.5930   -7.0590 C.3   289  GLU289      0.0402
    167  CG        42.1050   48.0590   -8.3030 C.3   289  GLU289      0.1161
    168  CD        43.0060   46.9780   -8.8150 C.2   289  GLU289      0.3649
    169  OE1       42.4950   45.8990   -9.2230 O.co2 289  GLU289     -0.2457
    170  OE2       44.2350   47.1860   -8.8270 O.co2 289  GLU289     -0.2457
    171  N         38.5290   47.1050   -5.5230 N.am  290  HIS290     -0.1962
    172  CA        37.8980   46.8190   -6.8230 C.3   290  HIS290      0.1772
    173  C         37.0370   48.0370   -7.2490 C.2   290  HIS290      0.2462
    174  O         36.2880   48.5660   -6.4390 O.2   290  HIS290     -0.2730
    175  CB        37.0090   45.5710   -6.6280 C.3   290  HIS290      0.0785
    176  CG        36.3800   45.0350   -7.8820 C.ar  290  HIS290      0.0821
    177  ND1       35.4800   45.7590   -8.6420 N.ar  290  HIS290     -0.2267
    178  CD2       36.4630   43.8140   -8.4650 C.ar  290  HIS290      0.1154
    179  CE1       35.0840   45.0320   -9.6690 C.ar  290  HIS290      0.1986
    180  NE2       35.6600   43.8450   -9.5830 N.ar  290  HIS290     -0.2212
    181  N         37.1140   48.4690   -8.5300 N.am  291  PRO291     -0.2727
    182  CA        36.3430   49.6670   -8.9670 C.3   291  PRO291      0.1402
    183  C         34.8190   49.6490   -8.7510 C.2   291  PRO291      0.2269
    184  O         34.2390   50.7170   -8.4670 O.2   291  PRO291     -0.2865
    185  CB        36.6820   49.7700  -10.4720 C.3   291  PRO291      0.0296
    186  CG        38.0620   49.1590  -10.5610 C.3   291  PRO291      0.0237
    187  CD        37.8980   47.9210   -9.6590 C.3   291  PRO291      0.0939
    188  N         32.4400   37.1840  -10.8950 N.3   495  LYS495     -0.1245
    189  CA        32.6400   38.5930  -11.2870 C.3   495  LYS495      0.1561
    190  C         31.3100   39.2460  -11.6560 C.2   495  LYS495      0.2260
    191  O         30.9110   40.2400  -11.0350 O.2   495  LYS495     -0.2867
    192  CB        33.7030   38.7240  -12.4140 C.3   495  LYS495      0.0271
    193  CG        33.8610   40.1270  -12.9740 C.3   495  LYS495      0.0035
    194  CD        35.0750   40.2350  -13.8890 C.3   495  LYS495      0.0206
    195  CE        35.2310   41.6550  -14.3780 C.3   495  LYS495      0.1093
    196  NZ        36.5260   41.7390  -15.0790 N.3   495  LYS495     -0.1314
@<TRIPOS>BOND
     1    48    47    2
     2    47    46    1
     3    46    49    1
     4    46    45    1
     5    51    50   ar
     6    50    49    1
     7    50    52   ar
     8    45    39   am
     9    40    39    2
    10    30    29    2
    11    39    38    1
    12    29    28    1
    13    37    38    1
    14    24    26   ar
    15    24    22   ar
    16    27    28    1
    17     3     4    2
    18     3     2    1
    19    38    41    1
    20    21    22   ar
    21    21    19   ar
    22    28    31    1
    23    26    25   ar
    24    22    20   ar
    25    41    42    1
    26    13    14    1
    27    19    18   ar
    28    56    55    2
    29    53    54    1
    30    25    23   ar
    31    20    18   ar
    32    20    23   ar
    33     2     1    1
    34     2     5    1
    35    59    57    1
    36    18    17    1
    37    63    62    2
    38    42    43   ar
    39    42    44   ar
    40    14    17    1
    41    14    15    1
    42    33    32   ar
    43    33    35   ar
    44    31    32    1
    45    55    54    1
    46    55    60   am
    47    32    34   ar
    48    62    61    1
    49    35    36   ar
    50    54    57    1
    51     5     6    1
    52    57    58    1
    53    15    16    2
    54    64    61    1
    55    61    60    1
    56    34    36   ar
    57   196   195    1
    58     6     8   ar
    59     6     7   ar
    60     8    10   ar
    61   195   194    1
    62     7     9   ar
    63   194   193    1
    64    10    11   ar
    65    65    66    1
    66     9    11   ar
    67    71    69    1
    68    94    93   ar
    69    94    92   ar
    70    11    12    1
    71   193   192    1
    72    68    67    2
    73    93    91   ar
    74    92    90   ar
    75   192   189    1
    76    66    69    1
    77    66    67    1
    78    69    70    1
    79    75    74    2
    80    67    72   am
    81   190   189    1
    82   190   191    2
    83    91    88   ar
    84    90    88   ar
    85    90    89   ar
    86   189   188    1
    87    74    73    1
    88    88    86   ar
    89    72    73    1
    90   186   185    1
    91   186   187    1
    92    84    83    2
    93    89    87   ar
    94   185   182    1
    95    73    76    1
    96    83    82    1
    97    76    77    1
    98   179   180   ar
    99   179   177   ar
   100    86    87   ar
   101    86    85    1
   102   187   181    1
   103   180   178   ar
   104    80    78   ar
   105    77    78    1
   106    78    79   ar
   107   169   168   ar
   108    82    81    1
   109    82    85    1
   110   182   183    1
   111   182   181    1
   112   170   168   ar
   113   168   167    1
   114   183   184    2
   115   177   176   ar
   116   181   173   am
   117   178   176   ar
   118   102   103    1
   119   102   101    1
   120   167   166    1
   121   117   116    1
   122   176   175    1
   123   101   100    1
   124   138   140   ar
   125   138   136   ar
   126   173   172    1
   127   173   174    2
   128   140   139   ar
   129   135   136   ar
   130   135   133   ar
   131   166   163    1
   132   136   134   ar
   133   172   175    1
   134   172   171    1
   135   116   118    1
   136   116   115    1
   137   163   162    1
   138   163   164    1
   139   100    99    1
   140   133   132   ar
   141   139   137   ar
   142   115   112    1
   143    99    96    1
   144   134   137   ar
   145   134   132   ar
   146   152   151    1
   147   171   164   am
   148   164   165    2
   149   132   131    1
   150   126   124   ar
   151   109   108    1
   152   110   108    1
   153   151   150   ar
   154   151   149   ar
   155   112   111    1
   156   112   113    1
   157   125   124   ar
   158   108   105    1
   159   124   123    1
   160   150   148   ar
   161    96    95    1
   162    96    97    1
   163   131   128    1
   164   161   159   ar
   165   149   147   ar
   166   123   120    1
   167   148   146   ar
   168   113   114    2
   169    98    97    2
   170   105   104    1
   171   105   106    1
   172   147   146   ar
   173   159   160   ar
   174   159   158    1
   175   146   145    1
   176   120   119    1
   177   120   121    1
   178   128   127    1
   179   128   129    1
   180   106   107    2
   181   158   157    1
   182   121   122    2
   183   145   142    1
   184   129   130    2
   185   157   154    1
   186   153   154    1
   187   153   143   am
   188   142   143    1
   189   142   141    1
   190   154   155    1
   191   143   144    2
   192   155   156    2
