@<TRIPOS>MOLECULE
tmp/2wmkA00.pdb
 249 246 0 0 0
SMALL
GASTEIGER

@<TRIPOS>ATOM
      1  N         -4.5590  105.5810  -28.4800 N.3    19  TYR19      -0.1241
      2  CA        -3.8740  106.8340  -28.0670 C.3    19  TYR19       0.1605
      3  C         -4.5660  107.4440  -26.8440 C.2    19  TYR19       0.2264
      4  O         -5.7390  107.8070  -26.9180 O.2    19  TYR19      -0.2867
      5  CB        -3.9050  107.8690  -29.2270 C.3    19  TYR19       0.0534
      6  CG        -2.8190  107.6880  -30.2470 C.ar   19  TYR19      -0.0201
      7  CD1       -2.5460  106.4150  -30.8140 C.ar   19  TYR19      -0.0009
      8  CD2       -2.0460  108.7720  -30.6590 C.ar   19  TYR19      -0.0009
      9  CE1       -1.5270  106.2780  -31.7720 C.ar   19  TYR19       0.0417
     10  CE2       -1.0400  108.6380  -31.5990 C.ar   19  TYR19       0.0417
     11  CZ        -0.7840  107.4090  -32.1610 C.ar   19  TYR19       0.1957
     12  OH         0.2390  107.2960  -33.0630 O.3    19  TYR19      -0.2866
     13  N         -8.4320  108.7080  -27.3120 N.3    33  TRP33      -0.1241
     14  CA        -8.9520  109.5460  -28.3790 C.3    33  TRP33       0.1605
     15  C         -9.6720  108.6680  -29.3690 C.2    33  TRP33       0.2264
     16  O         -9.1530  107.6340  -29.7930 O.2    33  TRP33      -0.2867
     17  CB        -7.8220  110.2810  -29.0870 C.3    33  TRP33       0.0550
     18  CG        -7.3160  111.4450  -28.3160 C.ar   33  TRP33       0.0003
     19  CD1       -6.1440  111.5240  -27.6070 C.ar   33  TRP33       0.0946
     20  CD2       -7.9990  112.6720  -28.1170 C.ar   33  TRP33       0.0152
     21  NE1       -6.0460  112.7500  -27.0060 N.ar   33  TRP33      -0.2442
     22  CE2       -7.1710  113.4800  -27.3060 C.ar   33  TRP33       0.0810
     23  CE3       -9.2510  113.1760  -28.5500 C.ar   33  TRP33       0.0012
     24  CZ2       -7.5420  114.7830  -26.9050 C.ar   33  TRP33       0.0191
     25  CZ3       -9.6140  114.5020  -28.1690 C.ar   33  TRP33       0.0001
     26  CH2       -8.7590  115.2770  -27.3610 C.ar   33  TRP33       0.0015
     27  N         -0.3480  104.1400  -26.7890 N.3    58  HIS58      -0.1241
     28  CA         0.5240  105.2910  -27.1330 C.3    58  HIS58       0.1621
     29  C          0.1330  106.3890  -26.1470 C.2    58  HIS58       0.2264
     30  O         -1.0550  106.5740  -25.8800 O.2    58  HIS58      -0.2867
     31  CB         0.2140  105.7340  -28.5800 C.3    58  HIS58       0.0745
     32  CG         1.1470  106.7700  -29.1210 C.ar   58  HIS58       0.0817
     33  ND1        1.1900  108.0620  -28.6400 N.ar   58  HIS58      -0.2268
     34  CD2        2.0430  106.7140  -30.1340 C.ar   58  HIS58       0.1154
     35  CE1        2.0870  108.7510  -29.3300 C.ar   58  HIS58       0.1986
     36  NE2        2.6190  107.9550  -30.2410 N.ar   58  HIS58      -0.2212
     37  N          0.2700  109.6250  -26.3780 N.3    60  ASP60      -0.1225
     38  CA        -0.2730  110.8190  -27.0550 C.3    60  ASP60       0.1805
     39  C         -0.0730  112.0770  -26.1970 C.2    60  ASP60       0.2597
     40  O          1.0970  112.4960  -25.9610 O.2    60  ASP60      -0.2718
     41  CB        -1.7520  110.5840  -27.4790 C.3    60  ASP60       0.1424
     42  CG        -2.2340  111.5230  -28.6040 C.2    60  ASP60       0.3668
     43  OD1       -1.4550  112.3810  -29.0960 O.co2  60  ASP60      -0.2456
     44  OD2       -3.4340  111.4400  -28.9570 O.co2  60  ASP60      -0.2456
     45  N         -1.1630  112.6960  -25.7680 N.am   61  ASP61      -0.1974
     46  CA        -1.0220  113.9730  -25.0780 C.3    61  ASP61       0.1709
     47  C         -1.2340  113.8980  -23.5580 C.2    61  ASP61       0.2293
     48  O         -1.6700  114.8850  -22.9420 O.2    61  ASP61      -0.2864
     49  CB        -1.9450  115.0390  -25.6980 C.3    61  ASP61       0.1436
     50  CG        -3.4370  114.7090  -25.5250 C.2    61  ASP61       0.3671
     51  OD1       -3.8190  113.5330  -25.2720 O.co2  61  ASP61      -0.2456
     52  OD2       -4.2480  115.6550  -25.6970 O.co2  61  ASP61      -0.2456
     53  N          9.4470  108.3960  -28.0520 N.3   102  THR102     -0.1203
     54  CA         8.9760  109.0810  -29.2630 C.3   102  THR102      0.1994
     55  C          9.3860  110.5340  -29.1490 C.2   102  THR102      0.2617
     56  O          9.6500  111.0320  -28.0190 O.2   102  THR102     -0.2717
     57  CB         7.4520  108.9290  -29.4970 C.3   102  THR102      0.1784
     58  OG1        7.1140  109.4640  -30.7840 O.3   102  THR102     -0.2211
     59  CG2        6.6350  109.6870  -28.4210 C.3   102  THR102      0.0376
     60  N          9.4760  111.2170  -30.2900 N.am  103  ALA103     -0.1979
     61  CA         9.9310  112.6110  -30.2840 C.3   103  ALA103      0.1597
     62  C         11.2090  112.8150  -29.4590 C.2   103  ALA103      0.2287
     63  O         11.2890  113.7940  -28.7150 O.2   103  ALA103     -0.2864
     64  CB         8.8090  113.5470  -29.7810 C.3   103  ALA103      0.0319
     65  N          8.0300  117.4100  -25.3240 N.3   109  TYR109     -0.1227
     66  CA         7.2460  116.7150  -26.3550 C.3   109  TYR109      0.1736
     67  C          6.4030  115.5320  -25.8950 C.2   109  TYR109      0.2596
     68  O          5.3680  115.2610  -26.5010 O.2   109  TYR109     -0.2718
     69  CB         8.1580  116.1990  -27.4860 C.3   109  TYR109      0.0548
     70  CG         8.6780  117.2880  -28.4050 C.ar  109  TYR109     -0.0200
     71  CD1        7.8970  118.4120  -28.7260 C.ar  109  TYR109     -0.0009
     72  CD2        9.9580  117.1950  -28.9590 C.ar  109  TYR109     -0.0009
     73  CE1        8.3910  119.4220  -29.5670 C.ar  109  TYR109      0.0417
     74  CE2       10.4600  118.2110  -29.8110 C.ar  109  TYR109      0.0417
     75  CZ         9.6580  119.3130  -30.1020 C.ar  109  TYR109      0.1957
     76  OH        10.1220  120.3140  -30.9640 O.3   109  TYR109     -0.2866
     77  N          6.8510  114.7760  -24.8880 N.am  110  THR110     -0.1953
     78  CA         6.1140  113.5290  -24.5430 C.3   110  THR110      0.1897
     79  C          6.2350  113.0880  -23.0770 C.2   110  THR110      0.2313
     80  O          7.2980  113.1840  -22.5090 O.2   110  THR110     -0.2863
     81  CB         6.5700  112.3440  -25.4660 C.3   110  THR110      0.1794
     82  OG1        5.8320  111.1420  -25.1670 O.3   110  THR110     -0.2208
     83  CG2        8.0810  112.0350  -25.2960 C.3   110  THR110      0.0378
     84  N          7.8680   99.9490  -27.9760 N.3   134  PHE134     -0.1241
     85  CA         7.8440  100.6050  -29.2910 C.3   134  PHE134      0.1605
     86  C          8.5060  101.9950  -29.1910 C.2   134  PHE134      0.2264
     87  O          8.1960  102.7710  -28.2930 O.2   134  PHE134     -0.2867
     88  CB         6.3750  100.7330  -29.7150 C.3   134  PHE134      0.0534
     89  CG         6.1400  101.2280  -31.1330 C.ar  134  PHE134     -0.0203
     90  CD1        6.8900  100.7540  -32.2280 C.ar  134  PHE134     -0.0042
     91  CD2        5.0890  102.1330  -31.3740 C.ar  134  PHE134     -0.0042
     92  CE1        6.6090  101.1880  -33.5610 C.ar  134  PHE134     -0.0003
     93  CE2        4.7760  102.5710  -32.6880 C.ar  134  PHE134     -0.0003
     94  CZ         5.5540  102.0850  -33.7970 C.ar  134  PHE134     -0.0000
     95  N          9.0600  105.3280  -31.8430 N.3   136  THR136     -0.1203
     96  CA         8.5370  105.8030  -33.1270 C.3   136  THR136      0.1994
     97  C          8.8480  107.2820  -33.4000 C.2   136  THR136      0.2617
     98  O          8.7020  108.1260  -32.5310 O.2   136  THR136     -0.2717
     99  CB         6.9800  105.5140  -33.2840 C.3   136  THR136      0.1784
    100  OG1        6.5300  105.9830  -34.5680 O.3   136  THR136     -0.2211
    101  CG2        6.1420  106.1700  -32.1570 C.3   136  THR136      0.0376
    102  N          9.2640  107.5900  -34.6260 N.am  137  ALA137     -0.1979
    103  CA         9.2340  108.9670  -35.1320 C.3   137  ALA137      0.1597
    104  C         10.1740  109.9070  -34.3780 C.2   137  ALA137      0.2287
    105  O          9.7430  110.9210  -33.8220 O.2   137  ALA137     -0.2864
    106  CB         7.8130  109.5350  -35.1290 C.3   137  ALA137      0.0319
    107  N         13.0650  110.8990  -36.0880 N.3   139  TYR139     -0.1227
    108  CA        13.9420  111.4750  -37.1660 C.3   139  TYR139      0.1736
    109  C         14.1050  113.0110  -37.1030 C.2   139  TYR139      0.2595
    110  O         15.1600  113.5590  -37.4770 O.2   139  TYR139     -0.2718
    111  CB        13.4690  111.0440  -38.6030 C.3   139  TYR139      0.0548
    112  CG        12.0100  111.3250  -38.8000 C.ar  139  TYR139     -0.0200
    113  CD1       11.5860  112.5680  -39.2330 C.ar  139  TYR139     -0.0009
    114  CD2       11.0340  110.3430  -38.5160 C.ar  139  TYR139     -0.0009
    115  CE1       10.2180  112.8590  -39.3710 C.ar  139  TYR139      0.0417
    116  CE2        9.6890  110.6080  -38.6780 C.ar  139  TYR139      0.0417
    117  CZ         9.2890  111.8610  -39.1110 C.ar  139  TYR139      0.1957
    118  OH         7.9630  112.1820  -39.2350 O.3   139  TYR139     -0.2866
    119  N         13.0640  113.6960  -36.6840 N.am  140  TRP140     -0.1976
    120  CA        13.0140  115.1400  -36.6890 C.3   140  TRP140      0.1640
    121  C         13.5520  115.7640  -35.3780 C.2   140  TRP140      0.2290
    122  O         13.6530  116.9890  -35.2640 O.2   140  TRP140     -0.2864
    123  CB        11.5840  115.5800  -36.9520 C.3   140  TRP140      0.0576
    124  CG        10.5960  115.0450  -35.9450 C.ar  140  TRP140      0.0006
    125  CD1       10.0150  113.7900  -35.9130 C.ar  140  TRP140      0.0946
    126  CD2       10.1200  115.7450  -34.7840 C.ar  140  TRP140      0.0152
    127  NE1        9.2000  113.6800  -34.7900 N.ar  140  TRP140     -0.2442
    128  CE2        9.2030  114.8930  -34.1230 C.ar  140  TRP140      0.0810
    129  CE3       10.3490  117.0370  -34.2680 C.ar  140  TRP140      0.0012
    130  CZ2        8.5330  115.2840  -32.9300 C.ar  140  TRP140      0.0191
    131  CZ3        9.6670  117.4330  -33.1160 C.ar  140  TRP140      0.0001
    132  CH2        8.7770  116.5480  -32.4540 C.ar  140  TRP140      0.0015
    133  N          8.5820  104.5020  -41.3250 N.3   203  LYS203     -0.1245
    134  CA         7.5460  105.3770  -40.7840 C.3   203  LYS203      0.1561
    135  C          7.3720  106.4830  -41.8060 C.2   203  LYS203      0.2260
    136  O          8.1190  107.4800  -41.8150 O.2   203  LYS203     -0.2867
    137  CB         7.9330  105.8970  -39.3770 C.3   203  LYS203      0.0271
    138  CG         7.1900  107.1600  -38.8110 C.3   203  LYS203      0.0035
    139  CD         5.7710  107.0670  -38.6360 C.3   203  LYS203      0.0206
    140  CE         5.2640  107.7520  -37.3360 C.3   203  LYS203      0.1093
    141  NZ         4.4980  109.0880  -37.5590 N.3   203  LYS203     -0.1314
    142  N          5.3460  108.9390  -42.6470 N.3   205  THR205     -0.1204
    143  CA         4.8120  110.2900  -42.3680 C.3   205  THR205      0.1979
    144  C          5.5120  111.4810  -43.0810 C.2   205  THR205      0.2459
    145  O          4.7850  112.3040  -43.6770 O.2   205  THR205     -0.2732
    146  CB         4.8300  110.5430  -40.8390 C.3   205  THR205      0.1783
    147  OG1        4.1440  109.4430  -40.1780 O.3   205  THR205     -0.2211
    148  CG2        4.2440  111.9410  -40.4720 C.3   205  THR205      0.0376
    149  N          6.8800  111.5860  -43.0150 N.am  206  PRO206     -0.2728
    150  CA         7.5140  112.8240  -43.5090 C.3   206  PRO206      0.1401
    151  C          7.7140  112.8480  -45.0300 C.2   206  PRO206      0.2269
    152  O          8.8320  112.9250  -45.5480 O.2   206  PRO206     -0.2865
    153  CB         8.8330  112.8770  -42.7310 C.3   206  PRO206      0.0296
    154  CG         9.2470  111.4240  -42.6480 C.3   206  PRO206      0.0237
    155  CD         7.9150  110.6530  -42.5010 C.3   206  PRO206      0.0939
    156  N          5.1670  101.4880  -40.9840 N.3   234  LEU234     -0.1245
    157  CA         4.0230  102.2630  -40.5100 C.3   234  LEU234      0.1561
    158  C          3.6560  103.2320  -41.6340 C.2   234  LEU234      0.2260
    159  O          4.4660  104.0480  -42.0610 O.2   234  LEU234     -0.2867
    160  CB         4.3090  102.9280  -39.1470 C.3   234  LEU234      0.0270
    161  CG         3.1380  103.6850  -38.4920 C.3   234  LEU234      0.0019
    162  CD1        3.3710  103.8850  -36.9870 C.3   234  LEU234      0.0001
    163  CD2        2.8460  105.0120  -39.1920 C.3   234  LEU234      0.0001
    164  N          1.1480  106.1070  -43.1820 N.3   236  ASP236     -0.1239
    165  CA         0.4940  107.1990  -42.4570 C.3   236  ASP236      0.1674
    166  C         -0.2290  108.1670  -43.4090 C.2   236  ASP236      0.2266
    167  O          0.4020  108.7290  -44.3080 O.2   236  ASP236     -0.2867
    168  CB         1.5600  107.9290  -41.6040 C.3   236  ASP236      0.1410
    169  CG         0.9780  109.0920  -40.7760 C.2   236  ASP236      0.3668
    170  OD1       -0.2490  109.2680  -40.8180 O.co2 236  ASP236     -0.2456
    171  OD2        1.7450  109.7740  -40.0660 O.co2 236  ASP236     -0.2456
    172  N         -1.3050  110.9790  -42.8050 N.3   238  TRP238     -0.1241
    173  CA        -0.7530  112.3500  -42.6340 C.3   238  TRP238      0.1605
    174  C          0.2030  112.7350  -43.7630 C.2   238  TRP238      0.2264
    175  O          0.5260  113.9160  -43.8850 O.2   238  TRP238     -0.2867
    176  CB        -0.0150  112.5150  -41.3010 C.3   238  TRP238      0.0550
    177  CG        -0.9100  112.6870  -40.0570 C.ar  238  TRP238      0.0003
    178  CD1       -1.2780  111.7230  -39.1650 C.ar  238  TRP238      0.0946
    179  CD2       -1.4740  113.9190  -39.5780 C.ar  238  TRP238      0.0152
    180  NE1       -2.0620  112.2800  -38.1530 N.ar  238  TRP238     -0.2442
    181  CE2       -2.2040  113.6240  -38.3940 C.ar  238  TRP238      0.0810
    182  CE3       -1.4290  115.2440  -40.0340 C.ar  238  TRP238      0.0012
    183  CZ2       -2.8770  114.6230  -37.6440 C.ar  238  TRP238      0.0191
    184  CZ3       -2.0980  116.2470  -39.2920 C.ar  238  TRP238      0.0001
    185  CH2       -2.8040  115.9280  -38.0980 C.ar  238  TRP238      0.0015
    186  N         -1.1310  115.6250  -45.7240 N.3   241  TYR241     -0.1227
    187  CA        -0.8800  116.9300  -45.0510 C.3   241  TYR241      0.1736
    188  C          0.5720  117.3630  -45.2720 C.2   241  TYR241      0.2595
    189  O          0.8440  118.5060  -45.6830 O.2   241  TYR241     -0.2718
    190  CB        -1.1550  116.7330  -43.5340 C.3   241  TYR241      0.0548
    191  CG        -0.5520  117.7680  -42.6040 C.ar  241  TYR241     -0.0200
    192  CD1       -1.1440  119.0380  -42.4810 C.ar  241  TYR241     -0.0009
    193  CD2        0.6040  117.4810  -41.8530 C.ar  241  TYR241     -0.0009
    194  CE1       -0.6360  119.9860  -41.6010 C.ar  241  TYR241      0.0417
    195  CE2        1.1350  118.4310  -40.9650 C.ar  241  TYR241      0.0417
    196  CZ         0.5020  119.6770  -40.8430 C.ar  241  TYR241      0.1957
    197  OH         1.0310  120.6070  -39.9520 O.3   241  TYR241     -0.2866
    198  N          1.5150  116.4490  -45.0570 N.am  242  GLU242     -0.1979
    199  CA         2.9470  116.7820  -45.1730 C.3   242  GLU242      0.1602
    200  C          3.3000  117.2930  -46.5750 C.2   242  GLU242      0.2287
    201  O          4.2010  118.1280  -46.7040 O.2   242  GLU242     -0.2864
    202  CB         3.8570  115.5860  -44.8130 C.3   242  GLU242      0.0415
    203  CG         3.8890  115.2570  -43.2840 C.3   242  GLU242      0.1163
    204  CD         4.5170  116.3740  -42.4280 C.2   242  GLU242      0.3649
    205  OE1        5.5430  116.9310  -42.8490 O.co2 242  GLU242     -0.2457
    206  OE2        4.0080  116.6570  -41.3100 O.co2 242  GLU242     -0.2457
    207  N         -6.4620  118.2280  -40.3510 N.3   260  ASP260     -0.1239
    208  CA        -7.4680  117.2100  -40.0390 C.3   260  ASP260      0.1674
    209  C         -8.3850  116.8790  -41.2090 C.2   260  ASP260      0.2266
    210  O         -8.9210  115.7720  -41.3070 O.2   260  ASP260     -0.2867
    211  CB        -8.2300  117.6270  -38.7780 C.3   260  ASP260      0.1410
    212  CG        -7.2930  117.7690  -37.5870 C.2   260  ASP260      0.3668
    213  OD1       -6.7530  116.7330  -37.1190 O.co2 260  ASP260     -0.2456
    214  OD2       -7.0160  118.9090  -37.1640 O.co2 260  ASP260     -0.2456
    215  N         -1.2520  105.1750  -39.2490 N.3   289  GLU289     -0.1231
    216  CA        -1.8630  106.4040  -38.7180 C.3   289  GLU289      0.1699
    217  C         -2.6150  107.0690  -39.8990 C.2   289  GLU289      0.2592
    218  O         -2.3740  106.6920  -41.0380 O.2   289  GLU289     -0.2718
    219  CB        -0.7980  107.3470  -38.1940 C.3   289  GLU289      0.0402
    220  CG        -0.1490  106.9170  -36.8690 C.3   289  GLU289      0.1161
    221  CD         0.8470  107.9790  -36.4050 C.2   289  GLU289      0.3649
    222  OE1        0.3870  109.1070  -36.0930 O.co2 289  GLU289     -0.2457
    223  OE2        2.0770  107.6720  -36.3640 O.co2 289  GLU289     -0.2457
    224  N         -3.5330  108.0130  -39.6730 N.am  290  HIS290     -0.1962
    225  CA        -4.1290  108.3970  -38.3700 C.3   290  HIS290      0.1772
    226  C         -5.0810  107.2730  -37.9360 C.2   290  HIS290      0.2462
    227  O         -5.8600  106.7930  -38.7700 O.2   290  HIS290     -0.2730
    228  CB        -4.9690  109.6560  -38.6190 C.3   290  HIS290      0.0785
    229  CG        -5.5050  110.2920  -37.3660 C.ar  290  HIS290      0.0821
    230  ND1       -6.4060  109.6560  -36.5270 N.ar  290  HIS290     -0.2267
    231  CD2       -5.2690  111.5060  -36.8170 C.ar  290  HIS290      0.1154
    232  CE1       -6.6960  110.4550  -35.5080 C.ar  290  HIS290      0.1986
    233  NE2       -6.0300  111.5860  -35.6650 N.ar  290  HIS290     -0.2212
    234  N         -5.0160  106.8240  -36.6600 N.am  291  PRO291     -0.2727
    235  CA        -5.8020  105.6510  -36.2450 C.3   291  PRO291      0.1402
    236  C         -7.3120  105.7850  -36.4370 C.2   291  PRO291      0.2269
    237  O         -7.9470  104.8030  -36.6580 O.2   291  PRO291     -0.2865
    238  CB        -5.4370  105.4620  -34.7330 C.3   291  PRO291      0.0296
    239  CG        -4.0640  106.1070  -34.5780 C.3   291  PRO291      0.0237
    240  CD        -4.1240  107.3090  -35.5730 C.3   291  PRO291      0.0939
    241  N         -9.0010  118.3240  -34.4370 N.3   496  LYS496     -0.1245
    242  CA        -8.9120  116.8930  -34.0390 C.3   496  LYS496      0.1561
    243  C        -10.2710  116.3690  -33.5800 C.2   496  LYS496      0.2260
    244  O        -10.7320  115.3660  -34.0740 O.2   496  LYS496     -0.2867
    245  CB        -7.8790  116.7290  -32.9230 C.3   496  LYS496      0.0271
    246  CG        -7.7120  115.2830  -32.4360 C.3   496  LYS496      0.0035
    247  CD        -6.4840  115.1670  -31.4800 C.3   496  LYS496      0.0206
    248  CE        -6.2300  113.7130  -31.1050 C.3   496  LYS496      0.1093
    249  NZ        -5.0710  113.5990  -30.1720 N.3   496  LYS496     -0.1314
@<TRIPOS>BOND
     1   201   200    2
     2   200   199    1
     3   186   187    1
     4   189   188    2
     5   152   151    2
     6   188   198   am
     7   188   187    1
     8   199   198    1
     9   199   202    1
    10   187   190    1
    11   151   150    1
    12   202   203    1
    13   167   166    2
    14   175   174    2
    15   174   173    1
    16   145   144    2
    17   190   191    1
    18   150   149    1
    19   150   153    1
    20   166   165    1
    21   203   204    1
    22   164   165    1
    23   144   149   am
    24   144   143    1
    25   149   155    1
    26   205   204   ar
    27   172   173    1
    28   153   154    1
    29   154   155    1
    30   142   143    1
    31   173   176    1
    32   191   192   ar
    33   191   193   ar
    34   192   194   ar
    35   165   168    1
    36   204   206   ar
    37   143   146    1
    38   159   158    2
    39   193   195   ar
    40   136   135    2
    41   135   134    1
    42   158   157    1
    43   168   169    1
    44   194   196   ar
    45   133   134    1
    46   210   209    2
    47   176   177    1
    48   209   208    1
    49   218   217    2
    50   156   157    1
    51   195   196   ar
    52   196   197    1
    53   146   148    1
    54   146   147    1
    55   170   169   ar
    56   134   137    1
    57   169   171   ar
    58   157   160    1
    59   207   208    1
    60   177   179   ar
    61   177   178   ar
    62   208   211    1
    63   182   179   ar
    64   182   184   ar
    65   217   224   am
    66   217   216    1
    67   224   225    1
    68   179   181   ar
    69   137   138    1
    70   115   113   ar
    71   115   117   ar
    72   184   185   ar
    73   215   216    1
    74   118   117    1
    75   113   112   ar
    76   163   161    1
    77   178   180   ar
    78   160   161    1
    79   117   116   ar
    80   138   139    1
    81   112   111    1
    82   112   114   ar
    83   211   212    1
    84   227   226    2
    85   216   219    1
    86   116   114   ar
    87   139   140    1
    88   228   225    1
    89   228   229    1
    90   111   108    1
    91   161   162    1
    92   181   180   ar
    93   181   183   ar
    94   225   226    1
    95   219   220    1
    96   185   183   ar
    97   226   234   am
    98   212   214   ar
    99   212   213   ar
   100   141   140    1
   101   110   109    2
   102   229   231   ar
   103   229   230   ar
   104   108   109    1
   105   108   107    1
   106   109   119   am
   107   123   120    1
   108   123   124    1
   109   220   221    1
   110   231   233   ar
   111   120   119    1
   112   120   121    1
   113   234   235    1
   114   234   240    1
   115   237   236    2
   116   230   232   ar
   117   236   235    1
   118   221   223   ar
   119   221   222   ar
   120   235   238    1
   121   124   125   ar
   122   124   126   ar
   123   125   127   ar
   124   233   232   ar
   125   240   239    1
   126   121   122    2
   127   103   106    1
   128   103   102    1
   129   103   104    1
   130   127   128   ar
   131   126   129   ar
   132   126   128   ar
   133   238   239    1
   134   102    97   am
   135   100    99    1
   136   241   242    1
   137   104   105    2
   138   129   131   ar
   139   128   130   ar
   140   244   243    2
   141   242   243    1
   142   242   245    1
   143    94    92   ar
   144    94    93   ar
   145    92    90   ar
   146    97    96    1
   147    97    98    2
   148    99    96    1
   149    99   101    1
   150    96    95    1
   151   131   132   ar
   152    12    11    1
   153   130   132   ar
   154   245   246    1
   155    93    91   ar
   156   246   247    1
   157    90    89   ar
   158    11     9   ar
   159    11    10   ar
   160     9     7   ar
   161    10     8   ar
   162   247   248    1
   163    91    89   ar
   164    89    88    1
   165   248   249    1
   166    76    75    1
   167     7     6   ar
   168    58    57    1
   169     8     6   ar
   170    60    61    1
   171    60    55   am
   172    61    64    1
   173    61    62    1
   174     6     5    1
   175    36    34   ar
   176    36    35   ar
   177    34    32   ar
   178    75    74   ar
   179    75    73   ar
   180    74    72   ar
   181    16    15    2
   182    88    85    1
   183    73    71   ar
   184    57    54    1
   185    57    59    1
   186    62    63    2
   187    15    14    1
   188    35    33   ar
   189    85    86    1
   190    85    84    1
   191    54    55    1
   192    54    53    1
   193     5     2    1
   194    86    87    2
   195    55    56    2
   196    32    33   ar
   197    32    31    1
   198    43    42   ar
   199    17    14    1
   200    17    18    1
   201    72    70   ar
   202    44    42   ar
   203    71    70   ar
   204    42    41    1
   205    31    28    1
   206    23    25   ar
   207    23    20   ar
   208     1     2    1
   209    70    69    1
   210    14    13    1
   211    18    20   ar
   212    18    19   ar
   213    25    26   ar
   214    20    22   ar
   215     2     3    1
   216    19    21   ar
   217    69    66    1
   218    41    38    1
   219    26    24   ar
   220    22    21   ar
   221    22    24   ar
   222    28    27    1
   223    28    29    1
   224    38    37    1
   225    38    39    1
   226     4     3    2
   227    68    67    2
   228    66    67    1
   229    66    65    1
   230    39    40    2
   231    39    45   am
   232    29    30    2
   233    67    77   am
   234    45    46    1
   235    49    50    1
   236    49    46    1
   237    52    50   ar
   238    50    51   ar
   239    81    83    1
   240    81    82    1
   241    81    78    1
   242    46    47    1
   243    77    78    1
   244    78    79    1
   245    47    48    2
   246    79    80    2
