@<TRIPOS>MOLECULE
tmp/2wmqA00.pdb
 101 93 0 0 0
SMALL
GASTEIGER

@<TRIPOS>ATOM
      1  N         14.6660   -6.6790    3.4700 N.3     9  LEU9       -0.1231
      2  CA        15.2960   -5.7210    4.3720 C.3     9  LEU9        0.1693
      3  C         15.4260   -6.3130    5.7660 C.2     9  LEU9        0.2592
      4  O         16.4480   -6.1530    6.4290 O.2     9  LEU9       -0.2718
      5  CB        14.4770   -4.4320    4.4360 C.3     9  LEU9        0.0284
      6  CG        14.3910   -3.5940    3.1630 C.3     9  LEU9        0.0019
      7  CD1       13.3220   -2.5210    3.3120 C.3     9  LEU9        0.0001
      8  CD2       15.7460   -2.9790    2.8330 C.3     9  LEU9        0.0001
      9  N         14.3570   -6.9690    6.1970 N.am   10  GLY10      -0.1957
     10  CA        14.2690   -7.5620    7.5130 C.3    10  GLY10       0.1869
     11  C         13.5710   -8.9040    7.4770 C.2    10  GLY10       0.2309
     12  O         12.8580   -9.2210    6.5310 O.2    10  GLY10      -0.2863
     13  N         10.1300   -8.4750    5.9600 N.3    17  VAL17      -0.1245
     14  CA        10.0230   -7.1720    5.3010 C.3    17  VAL17       0.1561
     15  C         10.8700   -7.0760    4.0360 C.2    17  VAL17       0.2260
     16  O         12.0050   -7.5540    4.0010 O.2    17  VAL17      -0.2867
     17  CB        10.4320   -6.0330    6.2570 C.3    17  VAL17       0.0252
     18  CG1       10.3180   -4.6760    5.5670 C.3    17  VAL17       0.0019
     19  CG2        9.5880   -6.0750    7.5200 C.3    17  VAL17       0.0019
     20  N          8.8950    0.2700    1.9470 N.3    30  ALA30      -0.1245
     21  CA         9.1570   -1.0130    2.5850 C.3    30  ALA30       0.1562
     22  C          7.8540   -1.7700    2.7960 C.2    30  ALA30       0.2260
     23  O          6.8320   -1.1750    3.1300 O.2    30  ALA30      -0.2867
     24  CB         9.8830   -0.8130    3.9080 C.3    30  ALA30       0.0290
     25  N          7.7540    6.1080   11.6920 N.3    53  VAL53      -0.1245
     26  CA         7.6940    5.4900   10.3710 C.3    53  VAL53       0.1561
     27  C          6.3210    5.6880    9.7310 C.2    53  VAL53       0.2260
     28  O          5.3030    5.2450   10.2680 O.2    53  VAL53      -0.2867
     29  CB         8.0150    3.9930   10.4430 C.3    53  VAL53       0.0252
     30  CG1        7.8360    3.3460    9.0780 C.3    53  VAL53       0.0019
     31  CG2        9.4340    3.7900   10.9680 C.3    53  VAL53       0.0019
     32  N          5.1290    0.8390    4.3180 N.3    61  LEU61      -0.1231
     33  CA         5.6880    1.7120    5.3370 C.3    61  LEU61       0.1693
     34  C          6.8610    2.5110    4.7940 C.2    61  LEU61       0.2592
     35  O          7.5730    2.0490    3.9030 O.2    61  LEU61      -0.2718
     36  CB         6.1440    0.8720    6.5290 C.3    61  LEU61       0.0284
     37  CG         5.0750   -0.0410    7.1280 C.3    61  LEU61       0.0019
     38  CD1        5.7070   -1.1390    7.9610 C.3    61  LEU61       0.0001
     39  CD2        4.0880    0.7750    7.9470 C.3    61  LEU61       0.0001
     40  N          7.0580    3.7080    5.3340 N.am   62  GLU62      -0.1966
     41  CA         8.1820    4.5490    4.9370 C.3    62  GLU62       0.1733
     42  C          9.4930    3.7610    4.9030 C.2    62  GLU62       0.2616
     43  O          9.7660    2.9420    5.7820 O.2    62  GLU62      -0.2715
     44  CB         8.3090    5.7530    5.8750 C.3    62  GLU62       0.0429
     45  CG         9.6140    6.5250    5.7320 C.3    62  GLU62       0.1163
     46  CD         9.7120    7.6930    6.6990 C.2    62  GLU62       0.3649
     47  OE1       10.7300    8.4180    6.6530 O.co2  62  GLU62      -0.2457
     48  OE2        8.7750    7.8860    7.5040 O.co2  62  GLU62      -0.2457
     49  N         10.2990    4.0080    3.8780 N.am   63  TYR63      -0.1960
     50  CA        11.5690    3.3130    3.7300 C.3    63  TYR63       0.1771
     51  C         12.7270    4.0600    4.4000 C.2    63  TYR63       0.2619
     52  O         12.9550    5.2460    4.1400 O.2    63  TYR63      -0.2715
     53  CB        11.8740    3.0810    2.2530 C.3    63  TYR63       0.0574
     54  CG        13.2550    2.5280    2.0110 C.ar   63  TYR63      -0.0198
     55  CD1       13.6960    1.3970    2.6870 C.ar   63  TYR63      -0.0009
     56  CD2       14.1200    3.1340    1.1100 C.ar   63  TYR63      -0.0009
     57  CE1       14.9560    0.8850    2.4710 C.ar   63  TYR63       0.0417
     58  CE2       15.3830    2.6270    0.8870 C.ar   63  TYR63       0.0417
     59  CZ        15.7930    1.5010    1.5700 C.ar   63  TYR63       0.1957
     60  OH        17.0480    0.9890    1.3530 O.3    63  TYR63      -0.2866
     61  N         13.4600    3.3510    5.2570 N.am   64  CYS64      -0.1968
     62  CA        14.5660    3.9470    6.0040 C.3    64  CYS64       0.1712
     63  C         15.9090    3.3770    5.5420 C.2    64  CYS64       0.2296
     64  O         16.3750    2.3580    6.0460 O.2    64  CYS64      -0.2864
     65  CB        14.3590    3.7420    7.5080 C.3    64  CYS64       0.0983
     66  SG        12.6900    4.1830    8.0780 S.3    64  CYS64      -0.0798
     67  N         18.8560    2.1960    8.0590 N.3    67  GLY67      -0.1210
     68  CA        18.9630    0.9520    8.8000 C.3    67  GLY67       0.1956
     69  C         18.5250    1.1030   10.2450 C.2    67  GLY67       0.2611
     70  O         17.8000    2.0410   10.5880 O.2    67  GLY67      -0.2717
     71  N         18.9630    0.1770   11.0940 N.am   68  GLU68      -0.1979
     72  CA        18.5980    0.1990   12.5060 C.3    68  GLU68       0.1602
     73  C         19.6170    0.9870   13.3100 C.2    68  GLU68       0.2287
     74  O         20.8190    0.8890   13.0570 O.2    68  GLU68      -0.2864
     75  CB        18.5290   -1.2210   13.0690 C.3    68  GLU68       0.0415
     76  CG        17.6390   -2.1750   12.3170 C.3    68  GLU68       0.1163
     77  CD        17.6070   -3.5440   12.9640 C.2    68  GLU68       0.3649
     78  OE1       16.7950   -4.3940   12.5370 O.co2  68  GLU68      -0.2457
     79  OE2       18.3970   -3.7680   13.9050 O.co2  68  GLU68      -0.2457
     80  N         22.5900   -0.7500   14.6380 N.3    71  ASP71      -0.1239
     81  CA        23.7900   -0.9790   13.8450 C.3    71  ASP71       0.1674
     82  C         24.7070    0.2380   13.7960 C.2    71  ASP71       0.2266
     83  O         25.6920    0.2520   13.0630 O.2    71  ASP71      -0.2867
     84  CB        23.4180   -1.4400   12.4320 C.3    71  ASP71       0.1410
     85  CG        22.9510   -2.8780   12.3980 C.2    71  ASP71       0.3668
     86  OD1       22.0620   -3.2030   11.5780 O.co2  71  ASP71      -0.2456
     87  OD2       23.4670   -3.6740   13.2100 O.co2  71  ASP71      -0.2456
     88  N         14.6390    3.2460   13.4480 N.3   114  LEU114     -0.1245
     89  CA        15.2320    3.2580   12.1180 C.3   114  LEU114      0.1561
     90  C         15.7750    4.6320   11.7560 C.2   114  LEU114      0.2260
     91  O         15.4220    5.6300   12.3740 O.2   114  LEU114     -0.2867
     92  CB        14.2170    2.7920   11.0780 C.3   114  LEU114      0.0270
     93  CG        13.6310    1.4000   11.3360 C.3   114  LEU114      0.0019
     94  CD1       12.6070    1.0310   10.2650 C.3   114  LEU114      0.0001
     95  CD2       14.7390    0.3420   11.4360 C.3   114  LEU114      0.0001
     96  N          9.6030    2.5930   14.7720 N.3   124  SER124     -0.1217
     97  CA         9.0400    1.5860   13.8820 C.3   124  SER124      0.1889
     98  C          8.4870    0.3500   14.5910 C.2   124  SER124      0.2288
     99  O          9.0060   -0.0650   15.6190 O.2   124  SER124     -0.2866
    100  CB        10.1080    1.1700   12.8660 C.3   124  SER124      0.2089
    101  OG         9.9120   -0.1490   12.4060 O.3   124  SER124     -0.2183
@<TRIPOS>BOND
     1    58    56   ar
     2    58    59   ar
     3    56    54   ar
     4    60    59    1
     5    59    57   ar
     6    20    21    1
     7    54    53    1
     8    54    55   ar
     9    53    50    1
    10    57    55   ar
    11    21    22    1
    12    21    24    1
    13    22    23    2
    14     8     6    1
    15     6     7    1
    16     6     5    1
    17     1     2    1
    18    50    49    1
    19    50    51    1
    20    49    42   am
    21    35    34    2
    22    16    15    2
    23    15    14    1
    24    52    51    2
    25    32    33    1
    26     2     5    1
    27     2     3    1
    28    51    61   am
    29    34    40   am
    30    34    33    1
    31    42    41    1
    32    42    43    2
    33    41    40    1
    34    41    44    1
    35    61    62    1
    36    14    13    1
    37    14    17    1
    38    33    36    1
    39    63    62    1
    40    63    64    2
    41    18    17    1
    42    45    44    1
    43    45    46    1
    44     3     9   am
    45     3     4    2
    46    62    65    1
    47     9    10    1
    48    17    19    1
    49    36    37    1
    50    12    11    2
    51    47    46   ar
    52    46    48   ar
    53    37    39    1
    54    37    38    1
    55    11    10    1
    56    65    66    1
    57    67    68    1
    58    68    69    1
    59    30    29    1
    60    27    28    2
    61    27    26    1
    62    69    70    2
    63    69    71   am
    64    94    93    1
    65    26    29    1
    66    26    25    1
    67    29    31    1
    68    92    93    1
    69    92    89    1
    70    71    72    1
    71    93    95    1
    72    86    85   ar
    73    90    89    1
    74    90    91    2
    75    89    88    1
    76    76    77    1
    77    76    75    1
    78    85    84    1
    79    85    87   ar
    80   101   100    1
    81    84    81    1
    82    72    75    1
    83    72    73    1
    84    78    77   ar
    85   100    97    1
    86    77    79   ar
    87    74    73    2
    88    83    82    2
    89    82    81    1
    90    81    80    1
    91    97    98    1
    92    97    96    1
    93    98    99    2
