@<TRIPOS>MOLECULE
tmp/2wmrA00.pdb
 102 94 0 0 0
SMALL
GASTEIGER

@<TRIPOS>ATOM
      1  N         14.3300   -7.4630    3.6910 N.3     9  LEU9       -0.1231
      2  CA        14.9180   -6.4990    4.6100 C.3     9  LEU9        0.1693
      3  C         14.9140   -7.0220    6.0390 C.2     9  LEU9        0.2592
      4  O         15.8840   -6.8670    6.7760 O.2     9  LEU9       -0.2718
      5  CB        14.1460   -5.1810    4.5590 C.3     9  LEU9        0.0284
      6  CG        14.4440   -4.2200    3.4150 C.3     9  LEU9        0.0019
      7  CD1       13.4730   -3.0630    3.4480 C.3     9  LEU9        0.0001
      8  CD2       15.8670   -3.7260    3.5070 C.3     9  LEU9        0.0001
      9  N         13.7970   -7.6320    6.4170 N.am   10  GLY10      -0.1957
     10  CA        13.6030   -8.1670    7.7480 C.3    10  GLY10       0.1869
     11  C         12.8210   -9.4580    7.6800 C.2    10  GLY10       0.2309
     12  O         12.0970   -9.7000    6.7190 O.2    10  GLY10      -0.2863
     13  N          9.9780   -8.8960    6.0060 N.3    17  VAL17      -0.1245
     14  CA         9.7400   -7.5740    5.4620 C.3    17  VAL17       0.1561
     15  C         10.6480   -7.4450    4.2610 C.2    17  VAL17       0.2260
     16  O         11.8280   -7.7750    4.3340 O.2    17  VAL17      -0.2867
     17  CB        10.0670   -6.4640    6.4650 C.3    17  VAL17       0.0252
     18  CG1       10.3190   -5.1580    5.7400 C.3    17  VAL17       0.0019
     19  CG2        8.9460   -6.3110    7.4720 C.3    17  VAL17       0.0019
     20  N          8.7870   -0.2200    1.9700 N.3    30  ALA30      -0.1245
     21  CA         8.9190   -1.4970    2.6530 C.3    30  ALA30       0.1562
     22  C          7.5760   -2.2040    2.6690 C.2    30  ALA30       0.2260
     23  O          6.5270   -1.5770    2.8180 O.2    30  ALA30      -0.2867
     24  CB         9.4370   -1.2960    4.0690 C.3    30  ALA30       0.0290
     25  N          7.7260    5.4080   11.7210 N.3    54  VAL54      -0.1245
     26  CA         7.7130    4.8220   10.3800 C.3    54  VAL54       0.1561
     27  C          6.3660    5.0620    9.6850 C.2    54  VAL54       0.2260
     28  O          5.3310    4.6170   10.1790 O.2    54  VAL54      -0.2867
     29  CB         7.9620    3.2990   10.4420 C.3    54  VAL54       0.0252
     30  CG1        7.7430    2.6550    9.0740 C.3    54  VAL54       0.0019
     31  CG2        9.3650    3.0020   10.9620 C.3    54  VAL54       0.0019
     32  N          5.0350    0.2800    4.2670 N.3    68  LEU68      -0.1231
     33  CA         5.6550    1.1550    5.2540 C.3    68  LEU68       0.1693
     34  C          6.8050    1.9700    4.6790 C.2    68  LEU68       0.2592
     35  O          7.4360    1.5740    3.7010 O.2    68  LEU68      -0.2718
     36  CB         6.1450    0.3200    6.4300 C.3    68  LEU68       0.0284
     37  CG         5.0740   -0.5840    7.0350 C.3    68  LEU68       0.0019
     38  CD1        5.6980   -1.7260    7.8280 C.3    68  LEU68       0.0001
     39  CD2        4.1320    0.2440    7.8940 C.3    68  LEU68       0.0001
     40  N          7.0580    3.1230    5.2890 N.am   69  GLU69      -0.1966
     41  CA         8.1740    3.9760    4.9050 C.3    69  GLU69       0.1733
     42  C          9.4550    3.1450    4.8500 C.2    69  GLU69       0.2616
     43  O          9.6740    2.2740    5.6880 O.2    69  GLU69      -0.2715
     44  CB         8.3160    5.1250    5.9100 C.3    69  GLU69       0.0429
     45  CG         9.5340    6.0160    5.7090 C.3    69  GLU69       0.1163
     46  CD         9.6490    7.0980    6.7770 C.2    69  GLU69       0.3649
     47  OE1       10.5760    7.9320    6.6940 O.co2  69  GLU69      -0.2457
     48  OE2        8.8140    7.1120    7.7060 O.co2  69  GLU69      -0.2457
     49  N         10.2940    3.3910    3.8540 N.am   70  TYR70      -0.1960
     50  CA        11.5510    2.6580    3.7590 C.3    70  TYR70       0.1771
     51  C         12.7120    3.4280    4.3890 C.2    70  TYR70       0.2619
     52  O         13.0120    4.5560    3.9960 O.2    70  TYR70      -0.2715
     53  CB        11.8780    2.3080    2.3100 C.3    70  TYR70       0.0574
     54  CG        13.2740    1.7730    2.1510 C.ar   70  TYR70      -0.0198
     55  CD1       13.6150    0.5190    2.6440 C.ar   70  TYR70      -0.0009
     56  CD2       14.2590    2.5240    1.5260 C.ar   70  TYR70      -0.0009
     57  CE1       14.8970    0.0240    2.5090 C.ar   70  TYR70       0.0417
     58  CE2       15.5440    2.0370    1.3830 C.ar   70  TYR70       0.0417
     59  CZ        15.8590    0.7880    1.8770 C.ar   70  TYR70       0.1957
     60  OH        17.1390    0.3030    1.7370 O.3    70  TYR70      -0.2866
     61  N         13.3590    2.8060    5.3690 N.am   71  CYS71      -0.1968
     62  CA        14.4880    3.4210    6.0580 C.3    71  CYS71       0.1712
     63  C         15.7930    2.7860    5.5880 C.2    71  CYS71       0.2296
     64  O         16.1360    1.6740    5.9920 O.2    71  CYS71      -0.2864
     65  CB        14.3250    3.2660    7.5680 C.3    71  CYS71       0.0983
     66  SG        12.6480    3.6300    8.1620 S.3    71  CYS71      -0.0798
     67  N         18.8230    1.4000    7.8940 N.3    74  GLY74      -0.1210
     68  CA        18.7640    0.1850    8.6870 C.3    74  GLY74       0.1956
     69  C         18.4060    0.4680   10.1330 C.2    74  GLY74       0.2611
     70  O         17.8990    1.5420   10.4520 O.2    74  GLY74      -0.2717
     71  N         18.6810   -0.4870   11.0170 N.am   75  GLU75      -0.1979
     72  CA        18.3010   -0.3340   12.4170 C.3    75  GLU75       0.1602
     73  C         19.4130    0.1830   13.3260 C.2    75  GLU75       0.2287
     74  O         20.5870   -0.1230   13.1370 O.2    75  GLU75      -0.2864
     75  CB        17.6990   -1.6250   12.9770 C.3    75  GLU75       0.0415
     76  CG        18.3760   -2.8900   12.5210 C.3    75  GLU75       0.1163
     77  CD        17.7060   -4.1290   13.0800 C.2    75  GLU75       0.3649
     78  OE1       16.9500   -4.7750   12.3300 O.co2  75  GLU75      -0.2457
     79  OE2       17.9210   -4.4520   14.2670 O.co2  75  GLU75      -0.2457
     80  N         16.4010   -2.8130   17.7430 N.3   118  GLU118     -0.1245
     81  CA        15.9200   -3.5050   16.5480 C.3   118  GLU118      0.1567
     82  C         14.6790   -2.8350   15.9500 C.2   118  GLU118      0.2260
     83  O         14.3670   -3.0300   14.7720 O.2   118  GLU118     -0.2867
     84  CB        15.6080   -4.9680   16.8550 C.3   118  GLU118      0.0388
     85  CG        16.7860   -5.7620   17.3810 C.3   118  GLU118      0.1160
     86  CD        16.9700   -5.6320   18.8900 C.2   118  GLU118      0.3649
     87  OE1       16.7130   -4.5450   19.4490 O.co2 118  GLU118     -0.2457
     88  OE2       17.3770   -6.6280   19.5200 O.co2 118  GLU118     -0.2457
     89  N         14.4170    2.5000   13.5190 N.3   121  LEU121     -0.1245
     90  CA        15.0140    2.5170   12.1940 C.3   121  LEU121      0.1561
     91  C         15.6070    3.8910   11.8570 C.2   121  LEU121      0.2260
     92  O         15.2430    4.9020   12.4510 O.2   121  LEU121     -0.2867
     93  CB        13.9850    2.0740   11.1580 C.3   121  LEU121      0.0270
     94  CG        13.3560    0.7090   11.4640 C.3   121  LEU121      0.0019
     95  CD1       12.3830    0.3000   10.3740 C.3   121  LEU121      0.0001
     96  CD2       14.4310   -0.3580   11.6350 C.3   121  LEU121      0.0001
     97  N          9.3950    1.8560   14.8300 N.3   131  SER131     -0.1217
     98  CA         8.8810    0.8240   13.9450 C.3   131  SER131      0.1889
     99  C          8.2070   -0.3550   14.6430 C.2   131  SER131      0.2288
    100  O          8.4870   -0.6550   15.7990 O.2   131  SER131     -0.2866
    101  CB        10.0230    0.3110   13.0640 C.3   131  SER131      0.2089
    102  OG         9.6570   -0.8570   12.3600 O.3   131  SER131     -0.2183
@<TRIPOS>BOND
     1    58    56   ar
     2    58    59   ar
     3    56    54   ar
     4    60    59    1
     5    59    57   ar
     6    20    21    1
     7    54    53    1
     8    54    55   ar
     9    53    50    1
    10    57    55   ar
    11    21    22    1
    12    21    24    1
    13    22    23    2
    14     6     7    1
    15     6     8    1
    16     6     5    1
    17     1     2    1
    18    35    34    2
    19    50    49    1
    20    50    51    1
    21    49    42   am
    22    52    51    2
    23    15    16    2
    24    15    14    1
    25    32    33    1
    26    51    61   am
    27     5     2    1
    28     2     3    1
    29    34    33    1
    30    34    40   am
    31    42    41    1
    32    42    43    2
    33    41    40    1
    34    41    44    1
    35    33    36    1
    36    61    62    1
    37    14    13    1
    38    14    17    1
    39    63    64    2
    40    63    62    1
    41    45    44    1
    42    45    46    1
    43    18    17    1
    44     3     9   am
    45     3     4    2
    46    62    65    1
    47     9    10    1
    48    36    37    1
    49    17    19    1
    50    47    46   ar
    51    12    11    2
    52    46    48   ar
    53    37    38    1
    54    37    39    1
    55    65    66    1
    56    11    10    1
    57    67    68    1
    58    68    69    1
    59    30    29    1
    60    27    28    2
    61    27    26    1
    62    69    70    2
    63    69    71   am
    64    95    94    1
    65    26    29    1
    66    26    25    1
    67    29    31    1
    68    71    72    1
    69    93    94    1
    70    93    90    1
    71    94    96    1
    72    91    90    1
    73    91    92    2
    74    90    89    1
    75    78    77   ar
    76   102   101    1
    77    72    75    1
    78    72    73    1
    79    76    75    1
    80    76    77    1
    81   101    98    1
    82    77    79   ar
    83    74    73    2
    84    98    99    1
    85    98    97    1
    86    99   100    2
    87    83    82    2
    88    82    81    1
    89    81    84    1
    90    81    80    1
    91    84    85    1
    92    85    86    1
    93    86    87   ar
    94    86    88   ar
