@<TRIPOS>MOLECULE
tmp/2wmsA00.pdb
 150 140 0 0 0
SMALL
GASTEIGER

@<TRIPOS>ATOM
      1  N         14.0970   -8.2320    4.0020 N.3     9  LEU9       -0.1231
      2  CA        14.7930   -7.3880    4.9680 C.3     9  LEU9        0.1693
      3  C         14.6930   -7.9410    6.3900 C.2     9  LEU9        0.2592
      4  O         15.4780   -7.5690    7.2600 O.2     9  LEU9       -0.2718
      5  CB        14.2400   -5.9570    4.9330 C.3     9  LEU9        0.0284
      6  CG        14.1980   -5.2040    3.5980 C.3     9  LEU9        0.0019
      7  CD1       13.2670   -3.9990    3.6810 C.3     9  LEU9        0.0001
      8  CD2       15.5890   -4.7760    3.1590 C.3     9  LEU9        0.0001
      9  N         13.7270   -8.8240    6.6240 N.am   10  GLY10      -0.1957
     10  CA        13.5130   -9.3650    7.9540 C.3    10  GLY10       0.1869
     11  C         12.5570  -10.5410    7.9920 C.2    10  GLY10       0.2309
     12  O         11.9780  -10.9160    6.9740 O.2    10  GLY10      -0.2863
     13  N          7.5230  -10.5680    8.2820 N.3    11  GLU11      -0.1231
     14  CA         8.2950  -10.9280    7.0930 C.3    11  GLU11       0.1699
     15  C          8.2680   -9.8010    6.0410 C.2    11  GLU11       0.2592
     16  O          7.3630   -9.7260    5.2100 O.2    11  GLU11      -0.2718
     17  CB         7.8090  -12.2820    6.5460 C.3    11  GLU11       0.0402
     18  CG         7.8520  -12.4620    5.0310 C.3    11  GLU11       0.1161
     19  CD         9.2380  -12.2950    4.4240 C.2    11  GLU11       0.3649
     20  OE1        9.3220  -11.7110    3.3190 O.co2  11  GLU11      -0.2457
     21  OE2       10.2320  -12.7470    5.0370 O.co2  11  GLU11      -0.2457
     22  N          9.2650   -8.9170    6.0990 N.am   12  VAL12      -0.1980
     23  CA         9.2810   -7.7030    5.2810 C.3    12  VAL12       0.1595
     24  C         10.2140   -7.7920    4.0820 C.2    12  VAL12       0.2287
     25  O         11.3060   -8.3600    4.1690 O.2    12  VAL12      -0.2864
     26  CB         9.6850   -6.4670    6.1110 C.3    12  VAL12       0.0276
     27  CG1       10.2480   -5.3700    5.2150 C.3    12  VAL12       0.0022
     28  CG2        8.5060   -5.9520    6.9000 C.3    12  VAL12       0.0022
     29  N          8.9190   -0.2880    2.0910 N.3    25  ALA25      -0.1245
     30  CA         9.0650   -1.5530    2.7930 C.3    25  ALA25       0.1562
     31  C          7.7000   -2.2050    2.9060 C.2    25  ALA25       0.2260
     32  O          6.7210   -1.5530    3.2680 O.2    25  ALA25      -0.2867
     33  CB         9.6660   -1.3350    4.1610 C.3    25  ALA25       0.0290
     34  N          5.5000   -5.2220    4.6430 N.3    27  LYS27      -0.1245
     35  CA         5.3970   -6.2230    5.6980 C.3    27  LYS27       0.1561
     36  C          4.3350   -7.2310    5.3010 C.2    27  LYS27       0.2260
     37  O          3.1680   -6.8710    5.1380 O.2    27  LYS27      -0.2867
     38  CB         5.0200   -5.5640    7.0250 C.3    27  LYS27       0.0271
     39  CG         5.4510   -6.3400    8.2650 C.3    27  LYS27       0.0035
     40  CD         4.5140   -6.0800    9.4340 C.3    27  LYS27       0.0206
     41  CE         5.1850   -6.3490   10.7600 C.3    27  LYS27       0.1093
     42  NZ         5.9440   -5.1440   11.1890 N.3    27  LYS27      -0.1314
     43  N          8.0150    5.6070   11.6800 N.3    46  VAL46      -0.1245
     44  CA         7.8760    4.9580   10.3720 C.3    46  VAL46       0.1561
     45  C          6.4890    5.1800    9.7590 C.2    46  VAL46       0.2260
     46  O          5.4720    4.8260   10.3690 O.2    46  VAL46      -0.2867
     47  CB         8.1190    3.4370   10.4730 C.3    46  VAL46       0.0252
     48  CG1        7.8870    2.7740    9.1290 C.3    46  VAL46       0.0019
     49  CG2        9.5220    3.1550   10.9720 C.3    46  VAL46       0.0019
     50  N          4.9550    0.3580    4.2060 N.3    57  LEU57      -0.1231
     51  CA         5.6230    1.1670    5.2210 C.3    57  LEU57       0.1693
     52  C          6.7870    1.9690    4.6510 C.2    57  LEU57       0.2592
     53  O          7.4120    1.5570    3.6780 O.2    57  LEU57      -0.2718
     54  CB         6.1370    0.2640    6.3420 C.3    57  LEU57       0.0284
     55  CG         5.1140   -0.6110    7.0610 C.3    57  LEU57       0.0019
     56  CD1        5.8080   -1.6650    7.8880 C.3    57  LEU57       0.0001
     57  CD2        4.2100    0.2450    7.9290 C.3    57  LEU57       0.0001
     58  N          7.0670    3.1190    5.2600 N.am   58  GLU58      -0.1966
     59  CA         8.2470    3.9110    4.9150 C.3    58  GLU58       0.1733
     60  C          9.5110    3.0490    4.9990 C.2    58  GLU58       0.2616
     61  O          9.7860    2.4070    6.0180 O.2    58  GLU58      -0.2715
     62  CB         8.3770    5.1330    5.8410 C.3    58  GLU58       0.0429
     63  CG         9.5970    6.0100    5.5630 C.3    58  GLU58       0.1163
     64  CD         9.7510    7.1860    6.5400 C.2    58  GLU58       0.3649
     65  OE1       10.7140    7.9660    6.3660 O.co2  58  GLU58      -0.2457
     66  OE2        8.9310    7.3380    7.4770 O.co2  58  GLU58      -0.2457
     67  N         10.2740    3.0240    3.9150 N.am   59  TYR59      -0.1960
     68  CA        11.5220    2.2760    3.9010 C.3    59  TYR59       0.1771
     69  C         12.6790    3.1430    4.3840 C.2    59  TYR59       0.2620
     70  O         12.9430    4.2160    3.8380 O.2    59  TYR59      -0.2715
     71  CB        11.8130    1.7250    2.5070 C.3    59  TYR59       0.0574
     72  CG        13.2160    1.2000    2.3730 C.ar   59  TYR59      -0.0198
     73  CD1       13.6330    0.0990    3.1080 C.ar   59  TYR59      -0.0009
     74  CD2       14.1280    1.8080    1.5250 C.ar   59  TYR59      -0.0009
     75  CE1       14.9150   -0.3870    3.0000 C.ar   59  TYR59       0.0417
     76  CE2       15.4130    1.3280    1.4070 C.ar   59  TYR59       0.0417
     77  CZ        15.8020    0.2290    2.1510 C.ar   59  TYR59       0.1957
     78  OH        17.0820   -0.2620    2.0440 O.3    59  TYR59      -0.2866
     79  N         13.3680    2.6690    5.4150 N.am   60  CYS60      -0.1954
     80  CA        14.4760    3.4130    5.9980 C.3    60  CYS60       0.1843
     81  C         15.8310    2.8530    5.5460 C.2    60  CYS60       0.2626
     82  O         16.2950    1.8260    6.0450 O.2    60  CYS60      -0.2714
     83  CB        14.3500    3.4120    7.5220 C.3    60  CYS60       0.0997
     84  SG        12.6820    3.7730    8.1170 S.3    60  CYS60      -0.0797
     85  N         16.4590    3.5330    4.5940 N.am   61  SER61      -0.1950
     86  CA        17.7000    3.0430    4.0060 C.3    61  SER61       0.1924
     87  C         18.9090    3.2480    4.9160 C.2    61  SER61       0.2314
     88  O         20.0220    2.8710    4.5670 O.2    61  SER61      -0.2863
     89  CB        17.9580    3.7220    2.6650 C.3    61  SER61       0.2116
     90  OG        18.4210    5.0450    2.8640 O.3    61  SER61      -0.2180
     91  N         19.1720    1.9220    7.9740 N.3    63  GLY63      -0.1210
     92  CA        19.3920    0.7030    8.7220 C.3    63  GLY63       0.1956
     93  C         18.6790    0.7680   10.0530 C.2    63  GLY63       0.2611
     94  O         17.7610    1.5630   10.2250 O.2    63  GLY63      -0.2717
     95  N         19.1870    0.0450   11.0370 N.am   64  GLU64      -0.1979
     96  CA        18.6310    0.1130   12.3750 C.3    64  GLU64       0.1602
     97  C         19.6630    0.6530   13.3650 C.2    64  GLU64       0.2287
     98  O         20.8500    0.6790   13.0790 O.2    64  GLU64      -0.2864
     99  CB        18.0530   -1.2300   12.8150 C.3    64  GLU64       0.0415
    100  CG        18.9210   -2.4340   12.5320 C.3    64  GLU64       0.1163
    101  CD        18.3170   -3.7050   13.0870 C.2    64  GLU64       0.3649
    102  OE1       17.2510   -4.1230   12.5960 O.co2  64  GLU64      -0.2457
    103  OE2       18.9050   -4.2840   14.0170 O.co2  64  GLU64      -0.2457
    104  N         22.9130   -1.2270   14.4150 N.3    67  ASP67      -0.1239
    105  CA        24.0280   -1.1960   13.4800 C.3    67  ASP67       0.1674
    106  C         24.9760   -0.0460   13.8160 C.2    67  ASP67       0.2266
    107  O         26.1830   -0.1630   13.6620 O.2    67  ASP67      -0.2867
    108  CB        23.5410   -1.1250   12.0320 C.3    67  ASP67       0.1410
    109  CG        22.6960   -2.3270   11.6420 C.2    67  ASP67       0.3668
    110  OD1       21.8710   -2.2020   10.7150 O.co2  67  ASP67      -0.2456
    111  OD2       22.8680   -3.4050   12.2470 O.co2  67  ASP67      -0.2456
    112  N         16.4380   -2.5200   17.7890 N.3   107  GLU107     -0.1231
    113  CA        15.9080   -3.2550   16.6370 C.3   107  GLU107      0.1699
    114  C         14.7110   -2.5380   16.0050 C.2   107  GLU107      0.2592
    115  O         14.4700   -2.6580   14.8030 O.2   107  GLU107     -0.2718
    116  CB        15.4980   -4.6780   17.0190 C.3   107  GLU107      0.0402
    117  CG        16.6330   -5.5770   17.4170 C.3   107  GLU107      0.1161
    118  CD        17.0200   -5.4090   18.8720 C.2   107  GLU107      0.3649
    119  OE1       16.5620   -4.4390   19.4990 O.co2 107  GLU107     -0.2457
    120  OE2       17.7880   -6.2420   19.3980 O.co2 107  GLU107     -0.2457
    121  N         13.9760   -1.7830   16.8180 N.am  108  ASN108     -0.1974
    122  CA        12.7690   -1.0920   16.3620 C.3   108  ASN108      0.1688
    123  C         12.9580    0.3950   16.1640 C.2   108  ASN108      0.2292
    124  O         11.9850    1.1300   15.9710 O.2   108  ASN108     -0.2864
    125  CB        11.6150   -1.3120   17.3370 C.3   108  ASN108      0.1181
    126  CG        11.0780   -2.7040   17.2760 C.2   108  ASN108      0.2629
    127  OD1       11.1490   -3.3550   16.2350 O.2   108  ASN108     -0.2716
    128  ND2       10.5310   -3.1780   18.3860 N.am  108  ASN108     -0.0877
    129  N         14.6270    2.6410   13.5250 N.3   110  LEU110     -0.1245
    130  CA        15.1920    2.5980   12.1870 C.3   110  LEU110      0.1561
    131  C         15.7090    3.9520   11.7370 C.2   110  LEU110      0.2260
    132  O         15.1840    4.9860   12.1210 O.2   110  LEU110     -0.2867
    133  CB        14.1610    2.0740   11.1850 C.3   110  LEU110      0.0270
    134  CG        13.5720    0.6910   11.4620 C.3   110  LEU110      0.0019
    135  CD1       12.7000    0.2390   10.3120 C.3   110  LEU110      0.0001
    136  CD2       14.6630   -0.3180   11.7330 C.3   110  LEU110      0.0001
    137  N          9.5640    1.9800   14.7310 N.3   120  SER120     -0.1202
    138  CA         9.0280    0.9660   13.8250 C.3   120  SER120      0.2020
    139  C          8.3010   -0.1800   14.5520 C.2   120  SER120      0.2618
    140  O          8.6670   -0.5510   15.6750 O.2   120  SER120     -0.2717
    141  CB        10.1610    0.4330   12.9280 C.3   120  SER120      0.2103
    142  OG         9.7300   -0.5930   12.0460 O.3   120  SER120     -0.2182
    143  N          7.2590   -0.7140   13.9060 N.am  121  ASP121     -0.1973
    144  CA         6.5630   -1.9220   14.3660 C.3   121  ASP121      0.1709
    145  C          5.5760   -1.6630   15.5090 C.2   121  ASP121      0.2293
    146  O          5.9190   -1.7250   16.6890 O.2   121  ASP121     -0.2864
    147  CB         7.5800   -3.0140   14.7420 C.3   121  ASP121      0.1436
    148  CG         6.9380   -4.3750   14.9810 C.2   121  ASP121      0.3671
    149  OD1        7.6980   -5.3500   15.1970 O.co2 121  ASP121     -0.2456
    150  OD2        5.6940   -4.4660   14.9690 O.co2 121  ASP121     -0.2456
@<TRIPOS>BOND
     1    76    74   ar
     2    76    77   ar
     3    74    72   ar
     4    78    77    1
     5    29    30    1
     6    77    75   ar
     7    72    71    1
     8    72    73   ar
     9    71    68    1
    10    89    90    1
    11    89    86    1
    12    30    31    1
    13    30    33    1
    14    31    32    2
    15    75    73   ar
    16     8     6    1
    17    20    19   ar
    18     6     7    1
    19     6     5    1
    20    53    52    2
    21    70    69    2
    22    68    67    1
    23    68    69    1
    24    67    60   am
    25     1     2    1
    26    86    85    1
    27    86    87    1
    28    24    25    2
    29    24    23    1
    30    50    51    1
    31    69    79   am
    32    19    18    1
    33    19    21   ar
    34    88    87    2
    35    85    81   am
    36    34    35    1
    37    52    51    1
    38    52    58   am
    39    59    60    1
    40    59    58    1
    41    59    62    1
    42     5     2    1
    43     2     3    1
    44    60    61    2
    45    18    17    1
    46    37    36    2
    47    16    15    2
    48    27    26    1
    49    51    54    1
    50    23    22    1
    51    23    26    1
    52    36    35    1
    53    79    80    1
    54    81    80    1
    55    81    82    2
    56    63    62    1
    57    63    64    1
    58    35    38    1
    59    80    83    1
    60    15    22   am
    61    15    14    1
    62    26    28    1
    63    54    55    1
    64    65    64   ar
    65     3     9   am
    66     3     4    2
    67    64    66   ar
    68    17    14    1
    69     9    10    1
    70    12    11    2
    71    38    39    1
    72    55    56    1
    73    55    57    1
    74    14    13    1
    75    83    84    1
    76    10    11    1
    77    91    92    1
    78    39    40    1
    79    92    93    1
    80    48    47    1
    81    40    41    1
    82    45    46    2
    83    45    44    1
    84    93    94    2
    85    93    95   am
    86   135   134    1
    87    44    47    1
    88    44    43    1
    89    47    49    1
    90   110   109   ar
    91    41    42    1
    92    95    96    1
    93   133   134    1
    94   133   130    1
    95   134   136    1
    96   109   108    1
    97   109   111   ar
    98   131   132    2
    99   131   130    1
   100   108   105    1
   101   142   141    1
   102   130   129    1
   103    96    99    1
   104    96    97    1
   105   100    99    1
   106   100   101    1
   107   102   101   ar
   108   141   138    1
   109    98    97    2
   110   101   103   ar
   111   105   106    1
   112   105   104    1
   113   107   106    2
   114   138   139    1
   115   138   137    1
   116   143   144    1
   117   143   139   am
   118   144   147    1
   119   144   145    1
   120   139   140    2
   121   147   148    1
   122   115   114    2
   123   150   148   ar
   124   148   149   ar
   125   145   146    2
   126   124   123    2
   127   114   113    1
   128   114   121   am
   129   123   122    1
   130   127   126    2
   131   122   121    1
   132   122   125    1
   133   113   116    1
   134   113   112    1
   135   116   117    1
   136   126   125    1
   137   126   128   am
   138   117   118    1
   139   118   120   ar
   140   118   119   ar
