@<TRIPOS>MOLECULE
tmp/2wmtA00.pdb
 112 104 0 0 0
SMALL
GASTEIGER

@<TRIPOS>ATOM
      1  N         14.0650   -7.4090    3.9950 N.3     8  LEU8       -0.1245
      2  CA        14.6000   -6.4830    4.9810 C.3     8  LEU8        0.1561
      3  C         14.6190   -7.0840    6.3800 C.2     8  LEU8        0.2260
      4  O         15.2350   -6.5390    7.2900 O.2     8  LEU8       -0.2867
      5  CB        13.7910   -5.1880    4.9810 C.3     8  LEU8        0.0270
      6  CG        13.9510   -4.2960    3.7530 C.3     8  LEU8        0.0019
      7  CD1       12.9730   -3.1460    3.8070 C.3     8  LEU8        0.0001
      8  CD2       15.3760   -3.7890    3.6410 C.3     8  LEU8        0.0001
      9  N          9.6370   -8.7000    5.9780 N.3    11  VAL11      -0.1245
     10  CA         9.5370   -7.4160    5.3200 C.3    11  VAL11       0.1561
     11  C         10.5220   -7.3990    4.1710 C.2    11  VAL11       0.2260
     12  O         11.6710   -7.7870    4.3320 O.2    11  VAL11      -0.2867
     13  CB         9.8780   -6.2820    6.2790 C.3    11  VAL11       0.0252
     14  CG1        9.8220   -4.9580    5.5700 C.3    11  VAL11       0.0019
     15  CG2        8.9430   -6.2980    7.4570 C.3    11  VAL11       0.0019
     16  N          8.5780   -0.1450    2.0780 N.3    24  ALA24      -0.1245
     17  CA         8.7940   -1.3920    2.7850 C.3    24  ALA24       0.1562
     18  C          7.4890   -2.1570    2.8310 C.2    24  ALA24       0.2260
     19  O          6.4430   -1.5950    3.1410 O.2    24  ALA24      -0.2867
     20  CB         9.3020   -1.1250    4.1860 C.3    24  ALA24       0.0290
     21  N          5.3910   -5.4040    4.3980 N.3    26  LYS26      -0.1245
     22  CA         5.3200   -6.3550    5.4880 C.3    26  LYS26       0.1561
     23  C          4.3030   -7.3990    5.0700 C.2    26  LYS26       0.2260
     24  O          3.1650   -7.0620    4.7550 O.2    26  LYS26      -0.2867
     25  CB         4.8300   -5.6370    6.7460 C.3    26  LYS26       0.0271
     26  CG         5.3150   -6.2030    8.0670 C.3    26  LYS26       0.0035
     27  CD         4.3900   -5.7690    9.1920 C.3    26  LYS26       0.0206
     28  CE         5.1090   -5.6640   10.5240 C.3    26  LYS26       0.1093
     29  NZ         5.7710   -4.3410   10.6920 N.3    26  LYS26      -0.1314
     30  N          7.7060    5.7490   11.6210 N.3    48  VAL48      -0.1245
     31  CA         7.6580    5.1630   10.2740 C.3    48  VAL48       0.1561
     32  C          6.2830    5.3680    9.6260 C.2    48  VAL48       0.2260
     33  O          5.2640    4.9820   10.2100 O.2    48  VAL48      -0.2867
     34  CB         7.9340    3.6460   10.3340 C.3    48  VAL48       0.0252
     35  CG1        7.7230    2.9900    8.9670 C.3    48  VAL48       0.0019
     36  CG2        9.3350    3.3810   10.8680 C.3    48  VAL48       0.0019
     37  N          4.8410    0.5030    4.2570 N.3    62  LEU62      -0.1231
     38  CA         5.4910    1.3140    5.2770 C.3    62  LEU62       0.1693
     39  C          6.6640    2.0970    4.7180 C.2    62  LEU62       0.2592
     40  O          7.3240    1.6520    3.7880 O.2    62  LEU62      -0.2718
     41  CB         5.9600    0.4080    6.4070 C.3    62  LEU62       0.0284
     42  CG         4.8050   -0.3190    7.0920 C.3    62  LEU62       0.0019
     43  CD1        5.2980   -1.5220    7.8740 C.3    62  LEU62       0.0001
     44  CD2        4.0330    0.6500    7.9800 C.3    62  LEU62       0.0001
     45  N          6.9030    3.2750    5.2790 N.am   63  GLU63      -0.1966
     46  CA         8.0520    4.0910    4.9120 C.3    63  GLU63       0.1733
     47  C          9.3060    3.2260    4.8770 C.2    63  GLU63       0.2616
     48  O          9.5290    2.4170    5.7700 O.2    63  GLU63      -0.2715
     49  CB         8.2180    5.2350    5.9240 C.3    63  GLU63       0.0429
     50  CG         9.4620    6.0970    5.7480 C.3    63  GLU63       0.1163
     51  CD         9.4890    7.3030    6.6970 C.2    63  GLU63       0.3649
     52  OE1       10.4970    8.0460    6.6850 O.co2  63  GLU63      -0.2457
     53  OE2        8.5140    7.5130    7.4560 O.co2  63  GLU63      -0.2457
     54  N         10.1180    3.3740    3.8390 N.am   64  TYR64      -0.1960
     55  CA        11.3850    2.6540    3.7940 C.3    64  TYR64       0.1771
     56  C         12.5220    3.5000    4.3740 C.2    64  TYR64       0.2620
     57  O         12.7570    4.6310    3.9490 O.2    64  TYR64      -0.2715
     58  CB        11.7200    2.2000    2.3700 C.3    64  TYR64       0.0574
     59  CG        13.1500    1.7280    2.2000 C.ar   64  TYR64      -0.0198
     60  CD1       13.5530    0.4860    2.6720 C.ar   64  TYR64      -0.0009
     61  CD2       14.0960    2.5300    1.5720 C.ar   64  TYR64      -0.0009
     62  CE1       14.8580    0.0550    2.5190 C.ar   64  TYR64       0.0417
     63  CE2       15.3970    2.1100    1.4130 C.ar   64  TYR64       0.0417
     64  CZ        15.7770    0.8730    1.8870 C.ar   64  TYR64       0.1957
     65  OH        17.0790    0.4530    1.7270 O.3    64  TYR64      -0.2866
     66  N         13.2240    2.9430    5.3550 N.am   65  CYS65      -0.1954
     67  CA        14.3250    3.6570    5.9910 C.3    65  CYS65       0.1843
     68  C         15.6490    3.0550    5.5480 C.2    65  CYS65       0.2626
     69  O         16.0060    1.9420    5.9420 O.2    65  CYS65      -0.2714
     70  CB        14.1700    3.6200    7.5090 C.3    65  CYS65       0.0997
     71  SG        12.5140    4.0610    8.0390 S.3    65  CYS65      -0.0797
     72  N         16.3570    3.7940    4.7040 N.am   66  SER66      -0.1950
     73  CA        17.5160    3.2600    4.0120 C.3    66  SER66       0.1924
     74  C         18.7200    3.3380    4.9120 C.2    66  SER66       0.2314
     75  O         19.8190    2.9970    4.5040 O.2    66  SER66      -0.2863
     76  CB        17.7920    4.0540    2.7410 C.3    66  SER66       0.2116
     77  OG        18.3610    5.3060    3.0720 O.3    66  SER66      -0.2180
     78  N         18.6560    1.7810    7.9080 N.3    68  GLY68      -0.1210
     79  CA        18.6550    0.5430    8.6640 C.3    68  GLY68       0.1956
     80  C         18.2790    0.7780   10.1100 C.2    68  GLY68       0.2611
     81  O         17.8630    1.8800   10.4720 O.2    68  GLY68      -0.2717
     82  N         18.4320   -0.2450   10.9440 N.am   69  GLU69      -0.1979
     83  CA        18.0810   -0.1180   12.3510 C.3    69  GLU69       0.1602
     84  C         19.2010    0.5040   13.1950 C.2    69  GLU69       0.2287
     85  O         20.3820    0.4080   12.8680 O.2    69  GLU69      -0.2864
     86  CB        17.5990   -1.4530   12.9310 C.3    69  GLU69       0.0415
     87  CG        18.3570   -2.6560   12.4380 C.3    69  GLU69       0.1163
     88  CD        17.8440   -3.9630   13.0200 C.2    69  GLU69       0.3649
     89  OE1       16.6780   -4.3000   12.7720 O.co2  69  GLU69      -0.2457
     90  OE2       18.6180   -4.6690   13.7090 O.co2  69  GLU69      -0.2457
     91  N         14.3860    2.7660   13.3570 N.3   115  LEU115     -0.1245
     92  CA        14.9730    2.7590   12.0350 C.3   115  LEU115      0.1561
     93  C         15.5380    4.1350   11.6930 C.2   115  LEU115      0.2260
     94  O         15.1600    5.1410   12.2870 O.2   115  LEU115     -0.2867
     95  CB        13.9190    2.3300   11.0250 C.3   115  LEU115      0.0270
     96  CG        13.3710    0.9310   11.3320 C.3   115  LEU115      0.0019
     97  CD1       12.4040    0.4630   10.2420 C.3   115  LEU115      0.0001
     98  CD2       14.5120   -0.0580   11.4950 C.3   115  LEU115      0.0001
     99  N          9.2620    2.1300   14.6680 N.3   125  SER125     -0.1202
    100  CA         8.7880    1.1440   13.7070 C.3   125  SER125      0.2020
    101  C          8.1370   -0.0450   14.4070 C.2   125  SER125      0.2618
    102  O          8.5470   -0.4130   15.5160 O.2   125  SER125     -0.2717
    103  CB         9.9580    0.6820   12.8260 C.3   125  SER125      0.2103
    104  OG         9.7720   -0.6370   12.3400 O.3   125  SER125     -0.2182
    105  N          7.1110   -0.6110   13.7560 N.am  126  ASP126     -0.1973
    106  CA         6.3840   -1.8140   14.2060 C.3   126  ASP126      0.1709
    107  C          5.4210   -1.5710   15.3620 C.2   126  ASP126      0.2293
    108  O          5.8200   -1.5440   16.5250 O.2   126  ASP126     -0.2864
    109  CB         7.3330   -2.9740   14.5370 C.3   126  ASP126      0.1436
    110  CG         6.5980   -4.3080   14.7240 C.2   126  ASP126      0.3671
    111  OD1        7.2740   -5.3580   14.8170 O.co2 126  ASP126     -0.2456
    112  OD2        5.3500   -4.3100   14.7910 O.co2 126  ASP126     -0.2456
@<TRIPOS>BOND
     1    63    61   ar
     2    63    64   ar
     3    61    59   ar
     4    65    64    1
     5    64    62   ar
     6    16    17    1
     7    59    58    1
     8    59    60   ar
     9    58    55    1
    10    62    60   ar
    11    76    77    1
    12    76    73    1
    13    17    18    1
    14    17    20    1
    15    18    19    2
    16     8     6    1
    17     6     7    1
    18     6     5    1
    19    40    39    2
    20    55    54    1
    21    55    56    1
    22    54    47   am
    23    57    56    2
    24     1     2    1
    25    73    72    1
    26    73    74    1
    27    11    12    2
    28    11    10    1
    29    37    38    1
    30    56    66   am
    31    21    22    1
    32    75    74    2
    33    72    68   am
    34    39    38    1
    35    39    45   am
    36    24    23    2
    37    47    46    1
    38    47    48    2
    39    46    45    1
    40    46    49    1
    41     5     2    1
    42     2     3    1
    43    23    22    1
    44    38    41    1
    45    10     9    1
    46    10    13    1
    47    66    67    1
    48    22    25    1
    49    68    69    2
    50    68    67    1
    51    14    13    1
    52    50    49    1
    53    50    51    1
    54    67    70    1
    55    13    15    1
    56     3     4    2
    57    41    42    1
    58    52    51   ar
    59    51    53   ar
    60    25    26    1
    61    42    43    1
    62    42    44    1
    63    70    71    1
    64    78    79    1
    65    26    27    1
    66    79    80    1
    67    35    34    1
    68    27    28    1
    69    32    33    2
    70    32    31    1
    71    80    81    2
    72    80    82   am
    73    97    96    1
    74    31    34    1
    75    31    30    1
    76    34    36    1
    77    28    29    1
    78    82    83    1
    79    95    96    1
    80    95    92    1
    81    96    98    1
    82    93    92    1
    83    93    94    2
    84    92    91    1
    85   104   103    1
    86    83    86    1
    87    83    84    1
    88    87    86    1
    89    87    88    1
    90    89    88   ar
    91   103   100    1
    92    85    84    2
    93    88    90   ar
    94   100   101    1
    95   100    99    1
    96   105   106    1
    97   105   101   am
    98   106   109    1
    99   106   107    1
   100   101   102    2
   101   109   110    1
   102   110   112   ar
   103   110   111   ar
   104   107   108    2
