@<TRIPOS>MOLECULE
tmp/2wmuA00.pdb
 102 94 0 0 0
SMALL
GASTEIGER

@<TRIPOS>ATOM
      1  N         14.1640   -6.7300    3.6740 N.3     7  LEU7       -0.1231
      2  CA        14.6670   -5.8090    4.6830 C.3     7  LEU7        0.1693
      3  C         15.2070   -6.5110    5.9280 C.2     7  LEU7        0.2592
      4  O         16.1770   -6.0640    6.5350 O.2     7  LEU7       -0.2718
      5  CB        13.5970   -4.7780    5.0320 C.3     7  LEU7        0.0284
      6  CG        13.2540   -3.8660    3.8530 C.3     7  LEU7        0.0019
      7  CD1       12.0920   -2.9500    4.1720 C.3     7  LEU7        0.0001
      8  CD2       14.4710   -3.0710    3.4230 C.3     7  LEU7        0.0001
      9  N         14.5610   -7.6050    6.3110 N.am    8  GLY8       -0.1957
     10  CA        14.9490   -8.3340    7.5000 C.3     8  GLY8        0.1869
     11  C         13.7920   -8.5810    8.4450 C.2     8  GLY8        0.2309
     12  O         12.6470   -8.6930    8.0100 O.2     8  GLY8       -0.2863
     13  N          9.3840   -7.9830    5.9970 N.3    10  VAL10      -0.1245
     14  CA         9.5390   -6.7060    5.3230 C.3    10  VAL10       0.1561
     15  C         10.6070   -6.7700    4.2430 C.2    10  VAL10       0.2260
     16  O         11.7470   -7.1480    4.4980 O.2    10  VAL10      -0.2867
     17  CB         9.8950   -5.5910    6.3260 C.3    10  VAL10       0.0252
     18  CG1       10.1760   -4.2850    5.6080 C.3    10  VAL10       0.0019
     19  CG2        8.7850   -5.4230    7.3470 C.3    10  VAL10       0.0019
     20  N          8.9910    0.2290    1.9920 N.3    23  ALA23      -0.1245
     21  CA         9.0550   -1.0150    2.7260 C.3    23  ALA23       0.1562
     22  C          7.6690   -1.6290    2.7190 C.2    23  ALA23       0.2260
     23  O          6.6820   -0.9590    2.9900 O.2    23  ALA23      -0.2867
     24  CB         9.5270   -0.7720    4.1360 C.3    23  ALA23       0.0290
     25  N          7.8360    5.9180   11.6260 N.3    46  VAL46      -0.1245
     26  CA         7.8350    5.3560   10.2640 C.3    46  VAL46       0.1561
     27  C          6.4890    5.6440    9.6000 C.2    46  VAL46       0.2260
     28  O          5.4490    5.3090   10.1640 O.2    46  VAL46      -0.2867
     29  CB         8.0640    3.8180   10.2700 C.3    46  VAL46       0.0252
     30  CG1        7.7990    3.2050    8.8890 C.3    46  VAL46       0.0019
     31  CG2        9.4520    3.4830   10.7460 C.3    46  VAL46       0.0019
     32  N          5.1160    1.0510    4.0450 N.3    60  LEU60      -0.1231
     33  CA         5.7590    1.8930    5.0380 C.3    60  LEU60       0.1693
     34  C          6.9560    2.6550    4.5150 C.2    60  LEU60       0.2592
     35  O          7.6240    2.2310    3.5810 O.2    60  LEU60      -0.2718
     36  CB         6.1840    1.0430    6.2380 C.3    60  LEU60       0.0284
     37  CG         5.1430    0.0830    6.8170 C.3    60  LEU60       0.0019
     38  CD1        5.7820   -0.8630    7.8130 C.3    60  LEU60       0.0001
     39  CD2        3.9960    0.8430    7.4490 C.3    60  LEU60       0.0001
     40  N          7.2320    3.7850    5.1450 N.am   61  GLU61      -0.1966
     41  CA         8.3380    4.6090    4.7250 C.3    61  GLU61       0.1733
     42  C          9.5730    3.7390    4.8080 C.2    61  GLU61       0.2616
     43  O          9.7630    3.0050    5.7700 O.2    61  GLU61      -0.2715
     44  CB         8.4610    5.8090    5.6640 C.3    61  GLU61       0.0429
     45  CG         9.7960    6.5310    5.6320 C.3    61  GLU61       0.1163
     46  CD         9.8150    7.7370    6.5500 C.2    61  GLU61       0.3649
     47  OE1        8.7280    8.2110    6.9310 O.co2  61  GLU61      -0.2457
     48  OE2       10.9120    8.2150    6.8930 O.co2  61  GLU61      -0.2457
     49  N         10.4110    3.8150    3.7850 N.am   62  TYR62      -0.1960
     50  CA        11.6190    3.0190    3.7600 C.3    62  TYR62       0.1771
     51  C         12.7320    3.8510    4.3470 C.2    62  TYR62       0.2619
     52  O         12.9510    4.9860    3.9400 O.2    62  TYR62      -0.2715
     53  CB        11.9690    2.5950    2.3350 C.3    62  TYR62       0.0574
     54  CG        13.3860    2.0950    2.1950 C.ar   62  TYR62      -0.0198
     55  CD1       13.7500    0.8440    2.6640 C.ar   62  TYR62      -0.0009
     56  CD2       14.3640    2.8790    1.6020 C.ar   62  TYR62      -0.0009
     57  CE1       15.0420    0.3880    2.5460 C.ar   62  TYR62       0.0417
     58  CE2       15.6600    2.4290    1.4790 C.ar   62  TYR62       0.0417
     59  CZ        15.9910    1.1830    1.9530 C.ar   62  TYR62       0.1957
     60  OH        17.2770    0.7250    1.8330 O.3    62  TYR62      -0.2866
     61  N         13.4300    3.2870    5.3210 N.am   63  CYS63      -0.1968
     62  CA        14.5240    4.0110    5.9630 C.3    63  CYS63       0.1712
     63  C         15.8650    3.4030    5.5540 C.2    63  CYS63       0.2296
     64  O         16.2780    2.3570    6.0560 O.2    63  CYS63      -0.2864
     65  CB        14.3450    4.0580    7.4870 C.3    63  CYS63       0.0983
     66  SG        12.6450    4.4330    7.9960 S.3    63  CYS63      -0.0798
     67  N         18.6610    2.2310    8.0080 N.3    66  GLY66      -0.1210
     68  CA        18.6630    0.9490    8.6750 C.3    66  GLY66       0.1956
     69  C         18.4210    1.0970   10.1590 C.2    66  GLY66       0.2611
     70  O         18.0220    2.1530   10.6300 O.2    66  GLY66      -0.2717
     71  N         18.6310    0.0150   10.8910 N.am   67  GLU67      -0.1979
     72  CA        18.4210    0.0100   12.3270 C.3    67  GLU67       0.1602
     73  C         19.4480    0.8060   13.1240 C.2    67  GLU67       0.2287
     74  O         20.6260    0.8390   12.7910 O.2    67  GLU67      -0.2864
     75  CB        18.3600   -1.4260   12.8330 C.3    67  GLU67       0.0415
     76  CG        17.2490   -2.2320   12.2080 C.3    67  GLU67       0.1163
     77  CD        17.2960   -3.6840   12.6070 C.2    67  GLU67       0.3649
     78  OE1       18.2150   -4.0640   13.3610 O.co2  67  GLU67      -0.2457
     79  OE2       16.4140   -4.4440   12.1660 O.co2  67  GLU67      -0.2457
     80  N         16.4480   -2.3310   17.5600 N.3   110  GLU110     -0.1245
     81  CA        15.9530   -3.0230   16.3750 C.3   110  GLU110      0.1567
     82  C         14.7350   -2.3210   15.7940 C.2   110  GLU110      0.2260
     83  O         14.4030   -2.5330   14.6370 O.2   110  GLU110     -0.2867
     84  CB        15.5790   -4.4850   16.6930 C.3   110  GLU110      0.0388
     85  CG        16.7130   -5.3290   17.2180 C.3   110  GLU110      0.1160
     86  CD        16.9320   -5.1710   18.7180 C.2   110  GLU110      0.3649
     87  OE1       16.7100   -4.0640   19.2490 O.co2 110  GLU110     -0.2457
     88  OE2       17.3400   -6.1530   19.3760 O.co2 110  GLU110     -0.2457
     89  N         14.5080    3.0330   13.4220 N.3   113  LEU113     -0.1245
     90  CA        15.0720    3.0830   12.0820 C.3   113  LEU113      0.1561
     91  C         15.5670    4.4680   11.6910 C.2   113  LEU113      0.2260
     92  O         14.9540    5.4730   12.0280 O.2   113  LEU113     -0.2867
     93  CB        14.0500    2.5710   11.0720 C.3   113  LEU113      0.0270
     94  CG        13.4990    1.1780   11.3730 C.3   113  LEU113      0.0019
     95  CD1       12.5740    0.7220   10.2720 C.3   113  LEU113      0.0001
     96  CD2       14.6270    0.1890   11.5590 C.3   113  LEU113      0.0001
     97  N          9.4380    2.3890   14.7210 N.3   123  SER123     -0.1217
     98  CA         8.9740    1.3570   13.8020 C.3   123  SER123      0.1889
     99  C          8.2740    0.1870   14.5140 C.2   123  SER123      0.2288
    100  O          8.5900   -0.1340   15.6710 O.2   123  SER123     -0.2866
    101  CB        10.1650    0.8430   12.9860 C.3   123  SER123      0.2089
    102  OG         9.9200   -0.4350   12.4230 O.3   123  SER123     -0.2183
@<TRIPOS>BOND
     1    58    56   ar
     2    58    59   ar
     3    56    54   ar
     4    60    59    1
     5    59    57   ar
     6    20    21    1
     7    54    53    1
     8    54    55   ar
     9    53    50    1
    10    57    55   ar
    11    22    21    1
    12    22    23    2
    13    21    24    1
    14     8     6    1
    15    35    34    2
    16     1     2    1
    17    50    49    1
    18    50    51    1
    19    49    42   am
    20     6     7    1
    21     6     5    1
    22    52    51    2
    23    32    33    1
    24    15    16    2
    25    15    14    1
    26    51    61   am
    27    34    33    1
    28    34    40   am
    29     2     5    1
    30     2     3    1
    31    41    42    1
    32    41    40    1
    33    41    44    1
    34    42    43    2
    35    33    36    1
    36    61    62    1
    37    14    13    1
    38    14    17    1
    39    63    62    1
    40    63    64    2
    41    18    17    1
    42    45    44    1
    43    45    46    1
    44     3     9   am
    45     3     4    2
    46    62    65    1
    47    36    37    1
    48     9    10    1
    49    17    19    1
    50    46    48   ar
    51    46    47   ar
    52    37    39    1
    53    37    38    1
    54    65    66    1
    55    10    11    1
    56    67    68    1
    57    12    11    2
    58    68    69    1
    59    30    29    1
    60    27    28    2
    61    27    26    1
    62    69    70    2
    63    69    71   am
    64    26    29    1
    65    26    25    1
    66    29    31    1
    67    95    94    1
    68    71    72    1
    69    93    94    1
    70    93    90    1
    71    94    96    1
    72    91    92    2
    73    91    90    1
    74    90    89    1
    75    79    77   ar
    76    76    77    1
    77    76    75    1
    78    72    75    1
    79    72    73    1
    80   102   101    1
    81    77    78   ar
    82    74    73    2
    83   101    98    1
    84    98    99    1
    85    98    97    1
    86    99   100    2
    87    83    82    2
    88    82    81    1
    89    81    84    1
    90    81    80    1
    91    84    85    1
    92    85    86    1
    93    86    87   ar
    94    86    88   ar
