@<TRIPOS>MOLECULE
tmp/2wmvA00.pdb
 118 110 0 0 0
SMALL
GASTEIGER

@<TRIPOS>ATOM
      1  N         14.5130   -7.2000    3.3600 N.3     9  LEU9       -0.1231
      2  CA        15.1410   -6.3710    4.3830 C.3     9  LEU9        0.1693
      3  C         15.3030   -7.0730    5.7230 C.2     9  LEU9        0.2592
      4  O         16.3470   -6.9740    6.3580 O.2     9  LEU9       -0.2718
      5  CB        14.3520   -5.0800    4.5750 C.3     9  LEU9        0.0284
      6  CG        14.3000   -4.1540    3.3660 C.3     9  LEU9        0.0019
      7  CD1       13.3820   -2.9880    3.6490 C.3     9  LEU9        0.0001
      8  CD2       15.6940   -3.6760    3.0090 C.3     9  LEU9        0.0001
      9  N         14.2630   -7.7790    6.1530 N.am   10  GLY10      -0.1957
     10  CA        14.3140   -8.4820    7.4190 C.3    10  GLY10       0.1869
     11  C         13.6980   -9.8640    7.4130 C.2    10  GLY10       0.2309
     12  O         12.5000  -10.0110    7.6390 O.2    10  GLY10      -0.2863
     13  N          9.7350   -8.6160    5.7310 N.3    12  VAL12      -0.1245
     14  CA         9.7240   -7.2930    5.1350 C.3    12  VAL12       0.1561
     15  C         10.6530   -7.3000    3.9310 C.2    12  VAL12       0.2260
     16  O         11.7780   -7.7810    4.0120 O.2    12  VAL12      -0.2867
     17  CB        10.1730   -6.2200    6.1400 C.3    12  VAL12       0.0252
     18  CG1       10.2370   -4.8620    5.4770 C.3    12  VAL12       0.0019
     19  CG2        9.2350   -6.1890    7.3270 C.3    12  VAL12       0.0019
     20  N          9.2030   -0.0890    1.8460 N.3    25  ALA25      -0.1245
     21  CA         9.3240   -1.4090    2.4480 C.3    25  ALA25       0.1562
     22  C          7.9470   -2.0490    2.5530 C.2    25  ALA25       0.2260
     23  O          6.9710   -1.3890    2.9010 O.2    25  ALA25      -0.2867
     24  CB         9.9810   -1.3180    3.8210 C.3    25  ALA25       0.0290
     25  N          8.2380    5.5670   11.4120 N.3    49  VAL49      -0.1245
     26  CA         8.1300    4.9820   10.0790 C.3    49  VAL49       0.1561
     27  C          6.7520    5.2690    9.4750 C.2    49  VAL49       0.2260
     28  O          5.7300    4.8540   10.0170 O.2    49  VAL49      -0.2867
     29  CB         8.3730    3.4600   10.1030 C.3    49  VAL49       0.0252
     30  CG1        8.0310    2.8440    8.7550 C.3    49  VAL49       0.0019
     31  CG2        9.8200    3.1530   10.4860 C.3    49  VAL49       0.0019
     32  N          5.3060    0.7410    3.8440 N.3    65  LEU65      -0.1231
     33  CA         5.9590    1.5240    4.8740 C.3    65  LEU65       0.1693
     34  C          7.1830    2.2620    4.3560 C.2    65  LEU65       0.2592
     35  O          7.8540    1.8280    3.4300 O.2    65  LEU65      -0.2718
     36  CB         6.3770    0.6120    6.0130 C.3    65  LEU65       0.0284
     37  CG         5.3100   -0.2840    6.6320 C.3    65  LEU65       0.0019
     38  CD1        5.9570   -1.4160    7.3870 C.3    65  LEU65       0.0001
     39  CD2        4.4060    0.5160    7.5370 C.3    65  LEU65       0.0001
     40  N          7.4730    3.3870    4.9770 N.am   66  GLU66      -0.1966
     41  CA         8.6570    4.1670    4.6360 C.3    66  GLU66       0.1733
     42  C          9.9210    3.3150    4.6980 C.2    66  GLU66       0.2616
     43  O         10.1600    2.6120    5.6830 O.2    66  GLU66      -0.2715
     44  CB         8.7870    5.3640    5.5820 C.3    66  GLU66       0.0429
     45  CG        10.0480    6.1870    5.3800 C.3    66  GLU66       0.1163
     46  CD        10.2250    7.2520    6.4460 C.2    66  GLU66       0.3649
     47  OE1       11.2530    7.9630    6.4100 O.co2  66  GLU66      -0.2457
     48  OE2        9.3420    7.3750    7.3230 O.co2  66  GLU66      -0.2457
     49  N         10.7270    3.3780    3.6410 N.am   67  TYR67      -0.1960
     50  CA        11.9830    2.6410    3.5940 C.3    67  TYR67       0.1771
     51  C         13.1310    3.4570    4.1780 C.2    67  TYR67       0.2619
     52  O         13.3940    4.5840    3.7490 O.2    67  TYR67      -0.2715
     53  CB        12.3140    2.2280    2.1600 C.3    67  TYR67       0.0574
     54  CG        13.6840    1.6120    2.0020 C.ar   67  TYR67      -0.0198
     55  CD1       13.9910    0.3940    2.5930 C.ar   67  TYR67      -0.0009
     56  CD2       14.6670    2.2440    1.2540 C.ar   67  TYR67      -0.0009
     57  CE1       15.2370   -0.1750    2.4460 C.ar   67  TYR67       0.0417
     58  CE2       15.9180    1.6820    1.1010 C.ar   67  TYR67       0.0417
     59  CZ        16.1990    0.4720    1.7000 C.ar   67  TYR67       0.1957
     60  OH        17.4460   -0.0930    1.5500 O.3    67  TYR67      -0.2866
     61  N         13.8040    2.8910    5.1760 N.am   68  CYS68      -0.1968
     62  CA        14.9330    3.5670    5.7970 C.3    68  CYS68       0.1712
     63  C         16.2400    2.9140    5.3600 C.2    68  CYS68       0.2296
     64  O         16.6100    1.8550    5.8540 O.2    68  CYS68      -0.2864
     65  CB        14.7800    3.5270    7.3130 C.3    68  CYS68       0.0983
     66  SG        13.1420    3.9980    7.8800 S.3    68  CYS68      -0.0798
     67  N         19.1200    1.7600    7.8020 N.3    71  GLY71      -0.1210
     68  CA        19.0550    0.5010    8.5130 C.3    71  GLY71       0.1956
     69  C         18.8180    0.7650    9.9790 C.2    71  GLY71       0.2611
     70  O         18.4830    1.8750   10.3540 O.2    71  GLY71      -0.2717
     71  N         18.9470   -0.2620   10.8050 N.am   72  GLU72      -0.1979
     72  CA        18.7270   -0.1060   12.2360 C.3    72  GLU72       0.1602
     73  C         19.8580    0.5460   13.0360 C.2    72  GLU72       0.2287
     74  O         21.0300    0.4340   12.7030 O.2    72  GLU72      -0.2864
     75  CB        18.2770   -1.4170   12.8810 C.3    72  GLU72       0.0415
     76  CG        18.9810   -2.6410   12.3930 C.3    72  GLU72       0.1163
     77  CD        18.3220   -3.9110   12.8780 C.2    72  GLU72       0.3649
     78  OE1       17.3710   -4.3730   12.2280 O.co2  72  GLU72      -0.2457
     79  OE2       18.7660   -4.4540   13.9010 O.co2  72  GLU72      -0.2457
     80  N         16.8850   -2.4910   17.4870 N.3   115  GLU115     -0.1231
     81  CA        16.4110   -3.2400   16.3290 C.3   115  GLU115      0.1699
     82  C         15.1790   -2.5710   15.7240 C.2   115  GLU115      0.2592
     83  O         14.9110   -2.7140   14.5300 O.2   115  GLU115     -0.2718
     84  CB        16.0670   -4.6870   16.7050 C.3   115  GLU115      0.0402
     85  CG        17.2460   -5.5330   17.1620 C.3   115  GLU115      0.1161
     86  CD        17.5060   -5.4450   18.6590 C.2   115  GLU115      0.3649
     87  OE1       17.1990   -4.4000   19.2750 O.co2 115  GLU115     -0.2457
     88  OE2       18.0300   -6.4270   19.2230 O.co2 115  GLU115     -0.2457
     89  N         14.4270   -1.8470   16.5510 N.am  116  ASN116     -0.1974
     90  CA        13.1830   -1.2050   16.1000 C.3   116  ASN116      0.1688
     91  C         13.3200    0.3000   15.8790 C.2   116  ASN116      0.2292
     92  O         12.3230    1.0210   15.7680 O.2   116  ASN116     -0.2864
     93  CB        12.0340   -1.4880   17.0740 C.3   116  ASN116      0.1181
     94  CG        11.5110   -2.9070   16.9560 C.2   116  ASN116      0.2629
     95  OD1       11.6050   -3.5240   15.8950 O.2   116  ASN116     -0.2716
     96  ND2       10.9520   -3.4290   18.0420 N.am  116  ASN116     -0.0877
     97  N         14.9560    2.7230   13.1900 N.3   118  LEU118     -0.1245
     98  CA        15.5570    2.7140   11.8670 C.3   118  LEU118      0.1561
     99  C         16.1330    4.0750   11.4840 C.2   118  LEU118      0.2260
    100  O         15.7900    5.1030   12.0710 O.2   118  LEU118     -0.2867
    101  CB        14.5450    2.2200   10.8260 C.3   118  LEU118      0.0270
    102  CG        13.9890    0.8110   11.0760 C.3   118  LEU118      0.0019
    103  CD1       12.9680    0.4150   10.0040 C.3   118  LEU118      0.0001
    104  CD2       15.1220   -0.2150   11.1540 C.3   118  LEU118      0.0001
    105  N          9.9780    2.0010   14.5400 N.3   128  SER128     -0.1202
    106  CA         9.4650    1.0090   13.5960 C.3   128  SER128      0.2020
    107  C          8.7530   -0.1630   14.2780 C.2   128  SER128      0.2618
    108  O          9.0760   -0.5230   15.4130 O.2   128  SER128     -0.2717
    109  CB        10.6150    0.4850   12.7220 C.3   128  SER128      0.2103
    110  OG        10.2890   -0.7570   12.1190 O.3   128  SER128     -0.2182
    111  N          7.7820   -0.7440   13.5720 N.am  129  ASP129     -0.1973
    112  CA         7.0630   -1.9460   14.0120 C.3   129  ASP129      0.1709
    113  C          6.0730   -1.6970   15.1500 C.2   129  ASP129      0.2293
    114  O          6.4480   -1.6820   16.3200 O.2   129  ASP129     -0.2864
    115  CB         8.0350   -3.0790   14.3820 C.3   129  ASP129      0.1436
    116  CG         7.3370   -4.4280   14.5370 C.2   129  ASP129      0.3671
    117  OD1        8.0330   -5.4670   14.5660 O.co2 129  ASP129     -0.2456
    118  OD2        6.0920   -4.4500   14.6360 O.co2 129  ASP129     -0.2456
@<TRIPOS>BOND
     1    58    56   ar
     2    58    59   ar
     3    56    54   ar
     4    60    59    1
     5    59    57   ar
     6    20    21    1
     7    54    53    1
     8    54    55   ar
     9    53    50    1
    10    57    55   ar
    11    21    22    1
    12    21    24    1
    13    22    23    2
    14     8     6    1
    15     1     2    1
    16     6     7    1
    17     6     5    1
    18    35    34    2
    19    50    49    1
    20    50    51    1
    21    49    42   am
    22    52    51    2
    23    32    33    1
    24    15    16    2
    25    15    14    1
    26    51    61   am
    27    34    33    1
    28    34    40   am
    29     2     5    1
    30     2     3    1
    31    41    42    1
    32    41    40    1
    33    41    44    1
    34    42    43    2
    35    33    36    1
    36    14    13    1
    37    14    17    1
    38    61    62    1
    39    63    62    1
    40    63    64    2
    41    45    44    1
    42    45    46    1
    43    18    17    1
    44     3     9   am
    45     3     4    2
    46    62    65    1
    47    36    37    1
    48    17    19    1
    49     9    10    1
    50    47    46   ar
    51    46    48   ar
    52    37    38    1
    53    37    39    1
    54    65    66    1
    55    11    10    1
    56    11    12    2
    57    67    68    1
    58    68    69    1
    59    30    29    1
    60    27    28    2
    61    27    26    1
    62    69    70    2
    63    69    71   am
    64   103   102    1
    65    26    29    1
    66    26    25    1
    67    29    31    1
    68    71    72    1
    69   101   102    1
    70   101    98    1
    71   102   104    1
    72    99    98    1
    73    99   100    2
    74    98    97    1
    75   110   109    1
    76    78    77   ar
    77    72    75    1
    78    72    73    1
    79    76    77    1
    80    76    75    1
    81    74    73    2
    82   109   106    1
    83    77    79   ar
    84   111   112    1
    85   111   107   am
    86   106   107    1
    87   106   105    1
    88   112   115    1
    89   112   113    1
    90   107   108    2
    91   115   116    1
    92    83    82    2
    93   116   117   ar
    94   116   118   ar
    95   113   114    2
    96    82    81    1
    97    82    89   am
    98    92    91    2
    99    91    90    1
   100    95    94    2
   101    90    89    1
   102    90    93    1
   103    81    84    1
   104    81    80    1
   105    84    85    1
   106    94    93    1
   107    94    96   am
   108    85    86    1
   109    86    88   ar
   110    86    87   ar
