@<TRIPOS>MOLECULE
tmp/2wmwA00.pdb
 110 102 0 0 0
SMALL
GASTEIGER

@<TRIPOS>ATOM
      1  N         17.9930   -7.4670    5.9310 N.3     9  LEU9       -0.1231
      2  CA        18.6620   -6.6010    6.9000 C.3     9  LEU9        0.1693
      3  C         18.7140   -7.2440    8.2900 C.2     9  LEU9        0.2592
      4  O         19.7000   -7.0910    9.0140 O.2     9  LEU9       -0.2718
      5  CB        17.9620   -5.2370    6.9780 C.3     9  LEU9        0.0284
      6  CG        17.8170   -4.3940    5.7020 C.3     9  LEU9        0.0019
      7  CD1       16.7500   -3.3150    5.8740 C.3     9  LEU9        0.0001
      8  CD2       19.1480   -3.7820    5.2750 C.3     9  LEU9        0.0001
      9  N         17.6520   -7.9580    8.6560 N.am   10  GLY10      -0.1957
     10  CA        17.5830   -8.6130    9.9510 C.3    10  GLY10       0.1869
     11  C         16.9900  -10.0090    9.8940 C.2    10  GLY10       0.2309
     12  O         16.0210  -10.2500    9.1760 O.2    10  GLY10      -0.2863
     13  N         13.3110   -8.7730    8.0790 N.3    11  VAL11      -0.1245
     14  CA        13.2380   -7.4300    7.5180 C.3    11  VAL11       0.1561
     15  C         14.1380   -7.3100    6.2930 C.2    11  VAL11       0.2260
     16  O         15.2960   -7.7310    6.3260 O.2    11  VAL11      -0.2867
     17  CB        13.6470   -6.3620    8.5560 C.3    11  VAL11       0.0252
     18  CG1       13.6300   -4.9750    7.9290 C.3    11  VAL11       0.0019
     19  CG2       12.7200   -6.4180    9.7590 C.3    11  VAL11       0.0019
     20  N         12.3360   -0.1570    4.5350 N.3    24  ALA24      -0.1245
     21  CA        12.4910   -1.4520    5.1770 C.3    24  ALA24       0.1562
     22  C         11.1330   -2.1380    5.2990 C.2    24  ALA24       0.2260
     23  O         10.1180   -1.5090    5.6180 O.2    24  ALA24      -0.2867
     24  CB        13.1430   -1.2910    6.5420 C.3    24  ALA24       0.0290
     25  N         11.3190    5.6590   14.1880 N.3    48  VAL48      -0.1245
     26  CA        11.2160    5.0590   12.8630 C.3    48  VAL48       0.1561
     27  C          9.8400    5.2970   12.2300 C.2    48  VAL48       0.2260
     28  O          8.8020    4.9370   12.8080 O.2    48  VAL48      -0.2867
     29  CB        11.5040    3.5440   12.9110 C.3    48  VAL48       0.0252
     30  CG1       11.2180    2.9010   11.5590 C.3    48  VAL48       0.0019
     31  CG2       12.9360    3.2980   13.3320 C.3    48  VAL48       0.0019
     32  N          8.5150    0.4680    6.7030 N.3    62  LEU62      -0.1231
     33  CA         9.1200    1.2620    7.7700 C.3    62  LEU62       0.1693
     34  C         10.3350    2.0240    7.2760 C.2    62  LEU62       0.2592
     35  O         11.0210    1.5800    6.3630 O.2    62  LEU62      -0.2718
     36  CB         9.5430    0.3410    8.9120 C.3    62  LEU62       0.0284
     37  CG         8.3980   -0.4420    9.5500 C.3    62  LEU62       0.0019
     38  CD1        8.9110   -1.7010   10.2490 C.3    62  LEU62       0.0001
     39  CD2        7.6150    0.4620   10.4910 C.3    62  LEU62       0.0001
     40  N         10.6050    3.1780    7.8610 N.am   63  GLU63      -0.1966
     41  CA        11.7450    3.9660    7.4190 C.3    63  GLU63       0.1733
     42  C         13.0180    3.1350    7.4250 C.2    63  GLU63       0.2616
     43  O         13.2470    2.3520    8.3340 O.2    63  GLU63      -0.2715
     44  CB        11.9220    5.1940    8.3020 C.3    63  GLU63       0.0429
     45  CG        13.3160    5.7540    8.2730 C.3    63  GLU63       0.1163
     46  CD        13.4390    7.0430    9.0410 C.2    63  GLU63       0.3649
     47  OE1       14.3270    7.8410    8.6930 O.co2  63  GLU63      -0.2457
     48  OE2       12.6590    7.2620    9.9890 O.co2  63  GLU63      -0.2457
     49  N         13.8470    3.3050    6.4050 N.am   64  TYR64      -0.1960
     50  CA        15.1110    2.5910    6.3460 C.3    64  TYR64       0.1771
     51  C         16.2230    3.4390    6.9280 C.2    64  TYR64       0.2619
     52  O         16.3490    4.6160    6.6190 O.2    64  TYR64      -0.2715
     53  CB        15.4540    2.1970    4.9170 C.3    64  TYR64       0.0574
     54  CG        16.8240    1.5770    4.7580 C.ar   64  TYR64      -0.0198
     55  CD1       17.0920    0.3080    5.2350 C.ar   64  TYR64      -0.0009
     56  CD2       17.8460    2.2570    4.1140 C.ar   64  TYR64      -0.0009
     57  CE1       18.3360   -0.2620    5.0830 C.ar   64  TYR64       0.0417
     58  CE2       19.0890    1.6940    3.9600 C.ar   64  TYR64       0.0417
     59  CZ        19.3280    0.4360    4.4440 C.ar   64  TYR64       0.1957
     60  OH        20.5670   -0.1270    4.2940 O.3    64  TYR64      -0.2866
     61  N         17.0280    2.8200    7.7780 N.am   65  CYS65      -0.1968
     62  CA        18.1080    3.5100    8.4530 C.3    65  CYS65       0.1712
     63  C         19.4450    2.9300    8.0170 C.2    65  CYS65       0.2296
     64  O         19.8510    1.8720    8.4740 O.2    65  CYS65      -0.2864
     65  CB        17.9290    3.3860    9.9660 C.3    65  CYS65       0.0983
     66  SG        16.2650    3.7260   10.5290 S.3    65  CYS65      -0.0798
     67  N         22.5480    1.8010   10.5310 N.3    68  GLY68      -0.1210
     68  CA        22.6500    0.5610   11.2630 C.3    68  GLY68       0.1956
     69  C         22.1560    0.7400   12.6730 C.2    68  GLY68       0.2611
     70  O         21.4610    1.6870   12.9710 O.2    68  GLY68      -0.2717
     71  N         22.5200   -0.1760   13.5480 N.am   69  GLU69      -0.1979
     72  CA        22.0600   -0.1070   14.9150 C.3    69  GLU69       0.1602
     73  C         23.1240    0.4700   15.8130 C.2    69  GLU69       0.2287
     74  O         24.2910    0.4780   15.4780 O.2    69  GLU69      -0.2864
     75  CB        21.5940   -1.4780   15.3830 C.3    69  GLU69       0.0415
     76  CG        21.9220   -1.8700   16.8170 C.3    69  GLU69       0.1163
     77  CD        22.1630   -3.3650   16.8580 C.2    69  GLU69       0.3649
     78  OE1       21.5870   -4.0620   15.9940 O.co2  69  GLU69      -0.2457
     79  OE2       22.9270   -3.8310   17.7220 O.co2  69  GLU69      -0.2457
     80  N         19.9970   -2.6060   20.1690 N.3   112  GLU112     -0.1231
     81  CA        19.4740   -3.3350   19.0150 C.3   112  GLU112      0.1699
     82  C         18.2230   -2.6900   18.3890 C.2   112  GLU112      0.2592
     83  O         17.9150   -2.9400   17.2260 O.2   112  GLU112     -0.2718
     84  CB        19.1630   -4.7860   19.3870 C.3   112  GLU112      0.0402
     85  CG        20.3530   -5.5630   19.8650 C.3   112  GLU112      0.1161
     86  CD        20.5530   -5.4800   21.3680 C.2   112  GLU112      0.3649
     87  OE1       20.2840   -4.4080   21.9700 O.co2 112  GLU112     -0.2457
     88  OE2       20.9850   -6.5030   21.9490 O.co2 112  GLU112     -0.2457
     89  N         17.5090   -1.8680   19.1530 N.am  113  ASN113     -0.1974
     90  CA        16.2930   -1.2030   18.6590 C.3   113  ASN113      0.1688
     91  C         16.4730    0.2970   18.5290 C.2   113  ASN113      0.2292
     92  O         15.4830    1.0450   18.4430 O.2   113  ASN113     -0.2864
     93  CB        15.1000   -1.4460   19.5880 C.3   113  ASN113      0.1181
     94  CG        14.6800   -2.8910   19.6210 C.2   113  ASN113      0.2629
     95  OD1       14.7990   -3.6100   18.6190 O.2   113  ASN113     -0.2716
     96  ND2       14.1790   -3.3330   20.7700 N.am  113  ASN113     -0.0877
     97  N         18.2310    2.7290   15.9770 N.3   115  LEU115     -0.1245
     98  CA        18.8730    2.7670   14.6740 C.3   115  LEU115      0.1561
     99  C         19.3900    4.1650   14.3190 C.2   115  LEU115      0.2260
    100  O         19.0290    5.1620   14.9420 O.2   115  LEU115     -0.2867
    101  CB        17.9200    2.2440   13.5980 C.3   115  LEU115      0.0270
    102  CG        17.3280    0.8560   13.8910 C.3   115  LEU115      0.0019
    103  CD1       16.2340    0.4950   12.8770 C.3   115  LEU115      0.0001
    104  CD2       18.4070   -0.2300   13.9580 C.3   115  LEU115      0.0001
    105  N         12.8990    2.0940   17.3440 N.3   125  SER125     -0.1217
    106  CA        12.3910    1.1130   16.3970 C.3   125  SER125      0.1889
    107  C         11.7720   -0.1200   17.0580 C.2   125  SER125      0.2288
    108  O         12.1790   -0.5140   18.1550 O.2   125  SER125     -0.2866
    109  CB        13.5300    0.6720   15.4690 C.3   125  SER125      0.2089
    110  OG        13.5330   -0.7350   15.2980 O.3   125  SER125     -0.2183
@<TRIPOS>BOND
     1    58    56   ar
     2    58    59   ar
     3    56    54   ar
     4    60    59    1
     5    59    57   ar
     6    20    21    1
     7    54    53    1
     8    54    55   ar
     9    53    50    1
    10    57    55   ar
    11    21    22    1
    12    21    24    1
    13     8     6    1
    14    22    23    2
    15     6     7    1
    16     6     5    1
    17     1     2    1
    18    15    16    2
    19    15    14    1
    20    50    49    1
    21    50    51    1
    22    35    34    2
    23    49    42   am
    24    52    51    2
    25    32    33    1
    26     2     5    1
    27     2     3    1
    28    51    61   am
    29    34    33    1
    30    34    40   am
    31    41    42    1
    32    41    40    1
    33    41    44    1
    34    42    43    2
    35    14    13    1
    36    14    17    1
    37    33    36    1
    38    61    62    1
    39    18    17    1
    40    63    62    1
    41    63    64    2
    42    45    44    1
    43    45    46    1
    44     3     9   am
    45     3     4    2
    46    62    65    1
    47    17    19    1
    48     9    10    1
    49    47    46   ar
    50    36    37    1
    51    46    48   ar
    52    12    11    2
    53    37    38    1
    54    37    39    1
    55    11    10    1
    56    65    66    1
    57    67    68    1
    58    68    69    1
    59    30    29    1
    60    27    28    2
    61    27    26    1
    62    69    70    2
    63    69    71   am
    64    26    29    1
    65    26    25    1
    66   103   102    1
    67    29    31    1
    68    71    72    1
    69   101   102    1
    70   101    98    1
    71   102   104    1
    72    99    98    1
    73    99   100    2
    74    98    97    1
    75    72    75    1
    76    72    73    1
    77   110   109    1
    78    75    76    1
    79   109   106    1
    80    74    73    2
    81    78    77   ar
    82   106   107    1
    83   106   105    1
    84    76    77    1
    85    77    79   ar
    86   107   108    2
    87    83    82    2
    88    82    81    1
    89    82    89   am
    90    92    91    2
    91    91    90    1
    92    95    94    2
    93    90    89    1
    94    90    93    1
    95    81    84    1
    96    81    80    1
    97    84    85    1
    98    93    94    1
    99    94    96   am
   100    85    86    1
   101    86    88   ar
   102    86    87   ar
