@<TRIPOS>MOLECULE
tmp/2wmxA00.pdb
 116 107 0 0 0
SMALL
GASTEIGER

@<TRIPOS>ATOM
      1  N         18.0760   -7.2040    5.9030 N.3     9  LEU9       -0.1231
      2  CA        18.7520   -6.3390    6.8660 C.3     9  LEU9        0.1693
      3  C         18.8050   -6.9750    8.2580 C.2     9  LEU9        0.2592
      4  O         19.7940   -6.8260    8.9790 O.2     9  LEU9       -0.2718
      5  CB        18.0600   -4.9710    6.9400 C.3     9  LEU9        0.0284
      6  CG        17.9160   -4.1320    5.6620 C.3     9  LEU9        0.0019
      7  CD1       16.8550   -3.0460    5.8320 C.3     9  LEU9        0.0001
      8  CD2       19.2490   -3.5290    5.2290 C.3     9  LEU9        0.0001
      9  N         17.7400   -7.6820    8.6300 N.am   10  GLY10      -0.1957
     10  CA        17.6710   -8.3310    9.9280 C.3    10  GLY10       0.1869
     11  C         17.0710   -9.7240    9.8780 C.2    10  GLY10       0.2309
     12  O         16.0980   -9.9630    9.1640 O.2    10  GLY10      -0.2863
     13  N         13.3930   -8.4760    8.0680 N.3    12  VAL12      -0.1245
     14  CA        13.3260   -7.1350    7.5020 C.3    12  VAL12       0.1561
     15  C         14.2230   -7.0250    6.2750 C.2    12  VAL12       0.2260
     16  O         15.3790   -7.4520    6.3060 O.2    12  VAL12      -0.2867
     17  CB        13.7430   -6.0660    8.5340 C.3    12  VAL12       0.0252
     18  CG1       13.7320   -4.6810    7.9020 C.3    12  VAL12       0.0019
     19  CG2       12.8210   -6.1120    9.7400 C.3    12  VAL12       0.0019
     20  N         12.4550    0.1290    4.4930 N.3    25  ALA25      -0.1245
     21  CA        12.6040   -1.1640    5.1400 C.3    25  ALA25       0.1562
     22  C         11.2430   -1.8420    5.2680 C.2    25  ALA25       0.2260
     23  O         10.2320   -1.2070    5.5870 O.2    25  ALA25      -0.2867
     24  CB        13.2610   -1.0010    6.5020 C.3    25  ALA25       0.0290
     25  N         11.4970    5.9890   14.1230 N.3    49  VAL49      -0.1245
     26  CA        11.3870    5.3840   12.8000 C.3    49  VAL49       0.1561
     27  C         10.0110    5.6270   12.1700 C.2    49  VAL49       0.2260
     28  O          8.9730    5.2750   12.7530 O.2    49  VAL49      -0.2867
     29  CB        11.6670    3.8670   12.8540 C.3    49  VAL49       0.0252
     30  CG1       11.3740    3.2200   11.5050 C.3    49  VAL49       0.0019
     31  CG2       13.0990    3.6150   13.2720 C.3    49  VAL49       0.0019
     32  N          8.6440    0.7830    6.6690 N.3    63  LEU63      -0.1231
     33  CA         9.2570    1.5780    7.7300 C.3    63  LEU63       0.1693
     34  C         10.4740    2.3320    7.2290 C.2    63  LEU63       0.2592
     35  O         11.1540    1.8800    6.3170 O.2    63  LEU63      -0.2718
     36  CB         9.6780    0.6600    8.8740 C.3    63  LEU63       0.0284
     37  CG         8.5300   -0.1140    9.5190 C.3    63  LEU63       0.0019
     38  CD1        9.0390   -1.3730   10.2220 C.3    63  LEU63       0.0001
     39  CD2        7.7550    0.7980   10.4580 C.3    63  LEU63       0.0001
     40  N         10.7520    3.4860    7.8090 N.am   64  GLU64      -0.1966
     41  CA        11.8940    4.2660    7.3610 C.3    64  GLU64       0.1733
     42  C         13.1630    3.4280    7.3660 C.2    64  GLU64       0.2616
     43  O         13.3900    2.6480    8.2780 O.2    64  GLU64      -0.2715
     44  CB        12.0810    5.4960    8.2380 C.3    64  GLU64       0.0429
     45  CG        13.4770    6.0490    8.2030 C.3    64  GLU64       0.1163
     46  CD        13.6090    7.3400    8.9650 C.2    64  GLU64       0.3649
     47  OE1       14.5010    8.1310    8.6110 O.co2  64  GLU64      -0.2457
     48  OE2       12.8340    7.5660    9.9140 O.co2  64  GLU64      -0.2457
     49  N         13.9900    3.5890    6.3440 N.am   65  TYR65      -0.1960
     50  CA        15.2500    2.8680    6.2850 C.3    65  TYR65       0.1771
     51  C         16.3680    3.7120    6.8590 C.2    65  TYR65       0.2620
     52  O         16.4990    4.8880    6.5460 O.2    65  TYR65      -0.2715
     53  CB        15.5860    2.4670    4.8560 C.3    65  TYR65       0.0574
     54  CG        16.9530    1.8390    4.6960 C.ar   65  TYR65      -0.0198
     55  CD1       17.2150    0.5710    5.1780 C.ar   65  TYR65      -0.0009
     56  CD2       17.9760    2.5110    4.0470 C.ar   65  TYR65      -0.0009
     57  CE1       18.4560   -0.0060    5.0240 C.ar   65  TYR65       0.0417
     58  CE2       19.2150    1.9410    3.8910 C.ar   65  TYR65       0.0417
     59  CZ        19.4490    0.6840    4.3800 C.ar   65  TYR65       0.1957
     60  OH        20.6840    0.1130    4.2290 O.3    65  TYR65      -0.2866
     61  N         17.1720    3.0930    7.7090 N.am   66  CYS66      -0.1954
     62  CA        18.2570    3.7800    8.3790 C.3    66  CYS66       0.1843
     63  C         19.5900    3.1910    7.9410 C.2    66  CYS66       0.2626
     64  O         19.9920    2.1330    8.4010 O.2    66  CYS66      -0.2714
     65  CB        18.0820    3.6630    9.8930 C.3    66  CYS66       0.0997
     66  SG        16.4210    4.0140   10.4590 S.3    66  CYS66      -0.0797
     67  N         20.2660    3.8810    7.0340 N.am   67  SER67      -0.1950
     68  CA        21.5030    3.3760    6.4620 C.3    67  SER67       0.1924
     69  C         22.6280    3.4040    7.4750 C.2    67  SER67       0.2314
     70  O         23.6940    2.8520    7.2410 O.2    67  SER67      -0.2863
     71  CB        21.8930    4.1910    5.2340 C.3    67  SER67       0.2116
     72  OG        22.8050    5.2150    5.5770 O.3    67  SER67      -0.2180
     73  N         22.5380    2.0080   10.3900 N.3    69  GLY69      -0.1210
     74  CA        22.6170    0.7380   11.0740 C.3    69  GLY69       0.1956
     75  C         22.2030    0.9160   12.5100 C.2    69  GLY69       0.2611
     76  O         21.5450    1.8840   12.8490 O.2    69  GLY69      -0.2717
     77  N         22.5800   -0.0180   13.3620 N.am   70  GLU70      -0.1979
     78  CA        22.1720    0.0570   14.7480 C.3    70  GLU70       0.1602
     79  C         23.2610    0.6810   15.5960 C.2    70  GLU70       0.2287
     80  O         24.4190    0.7420   15.2000 O.2    70  GLU70      -0.2864
     81  CB        21.7430   -1.3180   15.2520 C.3    70  GLU70       0.0415
     82  CG        22.7970   -2.4080   15.2750 C.3    70  GLU70       0.1163
     83  CD        22.1510   -3.7170   15.6850 C.2    70  GLU70       0.3649
     84  OE1       21.0370   -3.6600   16.2530 O.co2  70  GLU70      -0.2457
     85  OE2       22.7360   -4.7870   15.4260 O.co2  70  GLU70      -0.2457
     86  N         26.6010   -1.0670   16.9330 N.3    73  ASP73      -0.1239
     87  CA        27.7790   -1.1560   16.0920 C.3    73  ASP73       0.1674
     88  C         28.5760    0.1360   16.1220 C.2    73  ASP73       0.2266
     89  O         29.5380    0.2990   15.3840 O.2    73  ASP73      -0.2867
     90  CB        27.3910   -1.5490   14.6660 C.3    73  ASP73       0.1410
     91  CG        26.8080   -2.9490   14.5920 C.2    73  ASP73       0.3668
     92  OD1       25.7810   -3.1370   13.9140 O.co2  73  ASP73      -0.2456
     93  OD2       27.3690   -3.8610   15.2260 O.co2  73  ASP73      -0.2456
     94  N         20.1470   -2.2970   20.1120 N.3   113  GLU113     -0.1245
     95  CA        19.6170   -3.0280   18.9630 C.3   113  GLU113      0.1567
     96  C         18.3680   -2.3780   18.3380 C.2   113  GLU113      0.2260
     97  O         18.0550   -2.6320   17.1760 O.2   113  GLU113     -0.2867
     98  CB        19.2990   -4.4750   19.3410 C.3   113  GLU113      0.0388
     99  CG        20.4870   -5.2570   19.8190 C.3   113  GLU113      0.1160
    100  CD        20.6910   -5.1690   21.3200 C.2   113  GLU113      0.3649
    101  OE1       20.4300   -4.0930   21.9190 O.co2 113  GLU113     -0.2457
    102  OE2       21.1190   -6.1920   21.9040 O.co2 113  GLU113     -0.2457
    103  N         18.3980    3.0290   15.9040 N.3   116  LEU116     -0.1245
    104  CA        19.0360    3.0580   14.5990 C.3   116  LEU116      0.1561
    105  C         19.5590    4.4510   14.2370 C.2   116  LEU116      0.2260
    106  O         19.2060    5.4530   14.8570 O.2   116  LEU116     -0.2867
    107  CB        18.0770    2.5370   13.5280 C.3   116  LEU116      0.0270
    108  CG        17.4780    1.1530   13.8290 C.3   116  LEU116      0.0019
    109  CD1       16.3800    0.7940   12.8190 C.3   116  LEU116      0.0001
    110  CD2       18.5520    0.0610   13.8970 C.3   116  LEU116      0.0001
    111  N         13.0670    2.4290   17.2880 N.3   126  SER126     -0.1217
    112  CA        12.5510    1.4470   16.3460 C.3   126  SER126      0.1889
    113  C         11.9270    0.2200   17.0140 C.2   126  SER126      0.2288
    114  O         12.3350   -0.1720   18.1120 O.2   126  SER126     -0.2866
    115  CB        13.6850    0.9960   15.4180 C.3   126  SER126      0.2089
    116  OG        13.6800   -0.4120   15.2530 O.3   126  SER126     -0.2183
@<TRIPOS>BOND
     1    58    56   ar
     2    58    59   ar
     3    56    54   ar
     4    60    59    1
     5    59    57   ar
     6    20    21    1
     7    54    53    1
     8    54    55   ar
     9    53    50    1
    10    57    55   ar
    11    21    22    1
    12    21    24    1
    13     8     6    1
    14    71    72    1
    15    71    68    1
    16    22    23    2
    17     6     7    1
    18     6     5    1
    19     1     2    1
    20    15    16    2
    21    15    14    1
    22    50    49    1
    23    50    51    1
    24    35    34    2
    25    49    42   am
    26    68    67    1
    27    68    69    1
    28    52    51    2
    29    32    33    1
    30    51    61   am
    31     2     5    1
    32     2     3    1
    33    67    63   am
    34    34    33    1
    35    34    40   am
    36    70    69    2
    37    41    42    1
    38    41    40    1
    39    41    44    1
    40    42    43    2
    41    14    13    1
    42    14    17    1
    43    61    62    1
    44    33    36    1
    45    18    17    1
    46    63    62    1
    47    63    64    2
    48    45    44    1
    49    45    46    1
    50     3     9   am
    51     3     4    2
    52    62    65    1
    53    17    19    1
    54    47    46   ar
    55     9    10    1
    56    36    37    1
    57    46    48   ar
    58    12    11    2
    59    37    38    1
    60    37    39    1
    61    11    10    1
    62    65    66    1
    63    73    74    1
    64    74    75    1
    65    30    29    1
    66    27    28    2
    67    27    26    1
    68    75    76    2
    69    75    77   am
    70    26    29    1
    71    26    25    1
    72   109   108    1
    73    29    31    1
    74    77    78    1
    75   107   108    1
    76   107   104    1
    77   108   110    1
    78    92    91   ar
    79   105   104    1
    80   105   106    2
    81    91    90    1
    82    91    93   ar
    83   104   103    1
    84    90    87    1
    85    78    81    1
    86    78    79    1
    87    80    79    2
    88    81    82    1
    89   116   115    1
    90    82    83    1
    91    89    88    2
    92   115   112    1
    93    85    83   ar
    94    83    84   ar
    95    87    88    1
    96    87    86    1
    97   112   113    1
    98   112   111    1
    99   113   114    2
   100    97    96    2
   101    96    95    1
   102    95    98    1
   103    95    94    1
   104    98    99    1
   105    99   100    1
   106   100   102   ar
   107   100   101   ar
