@<TRIPOS>MOLECULE
tmp/2wn2A00.pdb
 126 118 0 0 0
SMALL
GASTEIGER

@<TRIPOS>ATOM
      1  N        -12.9780  -19.6110   -8.6040 N.3    19  ARG19      -0.1245
      2  CA       -11.8900  -18.8170   -8.0910 C.3    19  ARG19       0.1563
      3  C        -11.4870  -17.8430   -9.1810 C.2    19  ARG19       0.2260
      4  O        -11.3540  -18.2160  -10.3400 O.2    19  ARG19      -0.2867
      5  CB       -10.7010  -19.6740   -7.7260 C.3    19  ARG19       0.0307
      6  CG        -9.5540  -18.8870   -7.1250 C.3    19  ARG19       0.0489
      7  CD        -8.3780  -19.7430   -6.6310 C.3    19  ARG19       0.2205
      8  NE        -7.5850  -20.4320   -7.6590 N.pl3  19  ARG19      -0.0865
      9  CZ        -6.6030  -19.8770   -8.3640 C.cat  19  ARG19       0.5346
     10  NH1       -6.2800  -18.6080   -8.2030 N.pl3  19  ARG19       0.1354
     11  NH2       -5.9140  -20.6160   -9.2130 N.pl3  19  ARG19       0.1354
     12  N         -2.8890   -9.5820  -19.0490 N.3    58  THR58      -0.1203
     13  CA        -3.1450  -10.8620  -19.6900 C.3    58  THR58       0.1994
     14  C         -2.9410  -12.0300  -18.7210 C.2    58  THR58       0.2617
     15  O         -2.9090  -13.1780  -19.1570 O.2    58  THR58      -0.2717
     16  CB        -2.1800  -11.0610  -20.9240 C.3    58  THR58       0.1784
     17  OG1       -0.8430  -10.9000  -20.4670 O.3    58  THR58      -0.2211
     18  CG2       -2.4680  -10.0200  -22.0460 C.3    58  THR58       0.0376
     19  N         -2.8480  -11.7280  -17.4300 N.am   59  ASN59      -0.1974
     20  CA        -2.6730  -12.7210  -16.3780 C.3    59  ASN59       0.1688
     21  C         -3.9090  -13.0080  -15.5320 C.2    59  ASN59       0.2292
     22  O         -3.7990  -13.7010  -14.5210 O.2    59  ASN59      -0.2864
     23  CB        -1.5700  -12.2770  -15.4730 C.3    59  ASN59       0.1181
     24  CG        -0.2260  -12.2030  -16.2040 C.2    59  ASN59       0.2629
     25  OD1        0.2130  -13.1910  -16.7880 O.2    59  ASN59      -0.2716
     26  ND2        0.3880  -11.0020  -16.2320 N.am   59  ASN59      -0.0877
     27  N         -7.9020  -14.5160  -14.8190 N.3    61  TYR61      -0.1241
     28  CA        -8.5860  -15.7610  -15.1170 C.3    61  TYR61       0.1605
     29  C         -9.7400  -16.0020  -14.1260 C.2    61  TYR61       0.2264
     30  O         -9.7610  -15.4670  -12.9920 O.2    61  TYR61      -0.2867
     31  CB        -7.6050  -16.9800  -15.0340 C.3    61  TYR61       0.0534
     32  CG        -6.8350  -17.0380  -13.7440 C.ar   61  TYR61      -0.0201
     33  CD1       -7.4010  -17.5490  -12.5820 C.ar   61  TYR61      -0.0009
     34  CD2       -5.5610  -16.5360  -13.6630 C.ar   61  TYR61      -0.0009
     35  CE1       -6.6930  -17.5560  -11.3840 C.ar   61  TYR61       0.0417
     36  CE2       -4.8400  -16.5410  -12.4770 C.ar   61  TYR61       0.0417
     37  CZ        -5.4300  -17.0660  -11.3300 C.ar   61  TYR61       0.1957
     38  OH        -4.7690  -17.0350  -10.1460 O.3    61  TYR61      -0.2866
     39  N        -11.4940  -19.6330  -12.7220 N.3    63  VAL63      -0.1245
     40  CA       -11.3810  -21.0690  -12.6770 C.3    63  VAL63       0.1561
     41  C        -12.6710  -21.6660  -12.1380 C.2    63  VAL63       0.2260
     42  O        -13.1790  -21.1970  -11.1200 O.2    63  VAL63      -0.2867
     43  CB       -10.2260  -21.5190  -11.7370 C.3    63  VAL63       0.0252
     44  CG1      -10.0600  -23.1010  -11.8090 C.3    63  VAL63       0.0019
     45  CG2       -8.9280  -20.8160  -12.0800 C.3    63  VAL63       0.0019
     46  N         -7.9840  -17.6880  -23.8020 N.3    91  LYS91      -0.1245
     47  CA        -7.3970  -19.0090  -23.8100 C.3    91  LYS91       0.1561
     48  C         -8.1810  -19.8940  -22.8330 C.2    91  LYS91       0.2260
     49  O         -8.7080  -19.4040  -21.8450 O.2    91  LYS91      -0.2867
     50  CB        -5.9250  -18.7960  -23.4430 C.3    91  LYS91       0.0271
     51  CG        -5.1620  -19.8660  -22.8210 C.3    91  LYS91       0.0035
     52  CD        -3.6520  -19.5990  -23.0390 C.3    91  LYS91       0.0206
     53  CE        -3.0620  -18.5920  -22.0490 C.3    91  LYS91       0.1093
     54  NZ        -1.5830  -18.7100  -22.0350 N.3    91  LYS91      -0.1314
     55  N         -7.7830  -23.4420  -20.4860 N.3    93  ARG93      -0.1245
     56  CA        -6.8170  -24.3450  -19.8870 C.3    93  ARG93       0.1563
     57  C         -7.6090  -25.2340  -18.9610 C.2    93  ARG93       0.2260
     58  O         -8.6880  -24.8470  -18.5030 O.2    93  ARG93      -0.2867
     59  CB        -5.7380  -23.5890  -19.1120 C.3    93  ARG93       0.0307
     60  CG        -4.7530  -22.8250  -20.0680 C.3    93  ARG93       0.0489
     61  CD        -3.7310  -21.9740  -19.3520 C.3    93  ARG93       0.2205
     62  NE        -2.8130  -22.7170  -18.5390 N.pl3  93  ARG93      -0.0865
     63  CZ        -2.8930  -22.9000  -17.2310 C.cat  93  ARG93       0.5346
     64  NH1       -3.8530  -22.3500  -16.4840 N.pl3  93  ARG93       0.1354
     65  NH2       -1.9480  -23.5730  -16.6360 N.pl3  93  ARG93       0.1354
     66  N         -5.8080  -32.4640  -11.5570 N.3    98  ASN98      -0.1225
     67  CA        -5.5150  -31.2830  -10.7230 C.3    98  ASN98       0.1785
     68  C         -4.0610  -31.2170  -10.2960 C.2    98  ASN98       0.2597
     69  O         -3.7390  -30.5750   -9.3060 O.2    98  ASN98      -0.2718
     70  CB        -6.4320  -31.2110   -9.5170 C.3    98  ASN98       0.1169
     71  CG        -7.8670  -30.9640   -9.8910 C.2    98  ASN98       0.2627
     72  OD1       -8.7660  -31.7060   -9.4450 O.2    98  ASN98      -0.2716
     73  ND2       -8.1010  -29.9460  -10.7380 N.am   98  ASN98      -0.0877
     74  N         -3.1760  -31.8350  -11.0830 N.am   99  VAL99      -0.1980
     75  CA        -1.7300  -31.7300  -10.8840 C.3    99  VAL99       0.1595
     76  C         -1.1250  -31.1130  -12.1390 C.2    99  VAL99       0.2287
     77  O         -0.4530  -30.0840  -12.0530 O.2    99  VAL99      -0.2864
     78  CB        -1.0670  -33.0990  -10.4910 C.3    99  VAL99       0.0276
     79  CG1        0.4540  -32.9030  -10.2510 C.3    99  VAL99       0.0022
     80  CG2       -1.7310  -33.6820   -9.1950 C.3    99  VAL99       0.0022
     81  N         -1.8160  -29.3320  -15.7940 N.3   101  TRP101     -0.1241
     82  CA        -2.7050  -28.5420  -16.6160 C.3   101  TRP101      0.1605
     83  C         -2.2550  -28.5160  -18.0750 C.2   101  TRP101      0.2264
     84  O         -1.0490  -28.6620  -18.3800 O.2   101  TRP101     -0.2867
     85  CB        -2.7410  -27.1110  -16.0460 C.3   101  TRP101      0.0550
     86  CG        -3.6380  -27.0170  -14.8390 C.ar  101  TRP101      0.0003
     87  CD1       -3.3950  -27.5370  -13.6100 C.ar  101  TRP101      0.0946
     88  CD2       -4.9080  -26.3740  -14.7700 C.ar  101  TRP101      0.0152
     89  NE1       -4.4580  -27.2990  -12.7730 N.ar  101  TRP101     -0.2442
     90  CE2       -5.4140  -26.5980  -13.4740 C.ar  101  TRP101      0.0810
     91  CE3       -5.7090  -25.6760  -15.7030 C.ar  101  TRP101      0.0012
     92  CZ2       -6.6390  -26.0940  -13.0550 C.ar  101  TRP101      0.0191
     93  CZ3       -6.9630  -25.1930  -15.2850 C.ar  101  TRP101      0.0001
     94  CH2       -7.4200  -25.4300  -13.9740 C.ar  101  TRP101      0.0015
     95  N         -3.2690  -26.6830  -22.0970 N.3   103  GLU103     -0.1245
     96  CA        -3.9120  -25.6010  -22.8400 C.3   103  GLU103      0.1567
     97  C         -4.6870  -26.1470  -24.0100 C.2   103  GLU103      0.2260
     98  O         -4.1130  -26.8360  -24.8780 O.2   103  GLU103     -0.2867
     99  CB        -2.8750  -24.6330  -23.4010 C.3   103  GLU103      0.0388
    100  CG        -1.7430  -24.1450  -22.4770 C.3   103  GLU103      0.1160
    101  CD        -0.4780  -23.7400  -23.2940 C.2   103  GLU103      0.3649
    102  OE1        0.2170  -24.6170  -23.9840 O.co2 103  GLU103     -0.2457
    103  OE2       -0.2060  -22.5240  -23.2710 O.co2 103  GLU103     -0.2457
    104  N        -10.3750  -23.2670  -16.9160 N.3   134  ALA134     -0.1245
    105  CA       -10.1460  -21.8320  -16.7050 C.3   134  ALA134      0.1562
    106  C        -10.2440  -21.0590  -17.9930 C.2   134  ALA134      0.2260
    107  O         -9.7830  -21.5120  -19.0570 O.2   134  ALA134     -0.2867
    108  CB        -8.7740  -21.5900  -16.0690 C.3   134  ALA134      0.0290
    109  N         -8.8820  -17.6380  -19.5730 N.3   136  HIS136     -0.1241
    110  CA        -7.8250  -16.6710  -19.4300 C.3   136  HIS136      0.1621
    111  C         -8.0130  -15.6020  -20.5230 C.2   136  HIS136      0.2264
    112  O         -7.6200  -15.8320  -21.6880 O.2   136  HIS136     -0.2867
    113  CB        -6.4760  -17.3480  -19.7000 C.3   136  HIS136      0.0745
    114  CG        -6.0320  -18.3020  -18.6390 C.ar  136  HIS136      0.0817
    115  ND1       -5.0590  -17.9730  -17.7260 N.ar  136  HIS136     -0.2268
    116  CD2       -6.3520  -19.6000  -18.3970 C.ar  136  HIS136      0.1154
    117  CE1       -4.8290  -19.0110  -16.9300 C.ar  136  HIS136      0.1986
    118  NE2       -5.6060  -20.0080  -17.3080 N.ar  136  HIS136     -0.2212
    119  N         -7.4450  -12.8340  -23.0860 N.3   138  LEU138     -0.1245
    120  CA        -6.2740  -12.4120  -23.8560 C.3   138  LEU138      0.1561
    121  C         -6.4310  -10.9880  -24.4230 C.2   138  LEU138      0.2260
    122  O         -5.4700  -10.2310  -24.4020 O.2   138  LEU138     -0.2867
    123  CB        -6.0660  -13.3540  -25.0340 C.3   138  LEU138      0.0270
    124  CG        -5.6040  -14.7610  -24.6540 C.3   138  LEU138      0.0019
    125  CD1       -5.6980  -15.6680  -25.8850 C.3   138  LEU138      0.0001
    126  CD2       -4.2120  -14.7420  -23.9860 C.3   138  LEU138      0.0001
@<TRIPOS>BOND
     1   125   124    1
     2   123   124    1
     3   123   120    1
     4    98    97    2
     5   124   126    1
     6   121   122    2
     7   121   120    1
     8    97    96    1
     9   102   101   ar
    10   120   119    1
    11    47    46    1
    12    47    50    1
    13    47    48    1
    14    50    51    1
    15    99    96    1
    16    99   100    1
    17   101   103   ar
    18   101   100    1
    19    52    51    1
    20    52    53    1
    21    96    95    1
    22    48    49    2
    23    53    54    1
    24    18    16    1
    25   112   111    2
    26    16    17    1
    27    16    13    1
    28   111   110    1
    29    55    56    1
    30    60    61    1
    31    60    59    1
    32    56    59    1
    33    56    57    1
    34   113   110    1
    35   113   114    1
    36    13    12    1
    37    13    14    1
    38   109   110    1
    39    61    62    1
    40    15    14    2
    41   107   106    2
    42    57    58    2
    43    14    19   am
    44   114   116   ar
    45   114   115   ar
    46    62    63    2
    47   116   118   ar
    48    84    83    2
    49    83    82    1
    50   106   105    1
    51   115   117   ar
    52    19    20    1
    53   118   117   ar
    54    63    65    1
    55    63    64    1
    56   104   105    1
    57    25    24    2
    58   105   108    1
    59    82    85    1
    60    82    81    1
    61    20    21    1
    62    20    23    1
    63    26    24   am
    64    24    23    1
    65    85    86    1
    66    91    93   ar
    67    91    88   ar
    68    21    22    2
    69    93    94   ar
    70    28    31    1
    71    28    27    1
    72    28    29    1
    73    31    32    1
    74    86    88   ar
    75    86    87   ar
    76    88    90   ar
    77    29    30    2
    78    94    92   ar
    79    32    34   ar
    80    32    33   ar
    81    34    36   ar
    82    87    89   ar
    83    90    92   ar
    84    90    89   ar
    85    39    40    1
    86    40    41    1
    87    40    43    1
    88    33    35   ar
    89    36    37   ar
    90    76    77    2
    91    76    75    1
    92    41    42    2
    93    45    43    1
    94    44    43    1
    95    66    67    1
    96    35    37   ar
    97    37    38    1
    98    74    75    1
    99    74    68   am
   100    75    78    1
   101    73    71   am
   102    67    68    1
   103    67    70    1
   104    78    79    1
   105    78    80    1
   106     4     3    2
   107    68    69    2
   108    71    70    1
   109    71    72    2
   110    11     9    1
   111     3     2    1
   112     1     2    1
   113     9    10    1
   114     9     8    2
   115     2     5    1
   116     5     6    1
   117     8     7    1
   118     6     7    1
