@<TRIPOS>MOLECULE
tmp/2wn9E00.pdb
 79 71 0 0 0
SMALL
GASTEIGER

@<TRIPOS>ATOM
      1  N         27.2190  -12.2260   68.9000 N.3    43  THR43      -0.1218
      2  CA        28.1720  -11.2490   69.4440 C.3    43  THR43       0.1862
      3  C         27.3970  -10.4830   70.5040 C.2    43  THR43       0.2287
      4  O         26.5170   -9.6740   70.1840 O.2    43  THR43      -0.2866
      5  CB        28.7080  -10.3450   68.3550 C.3    43  THR43       0.1770
      6  OG1       29.4300  -11.1590   67.4250 O.3    43  THR43      -0.2211
      7  CG2       29.6710   -9.2890   68.9270 C.3    43  THR43       0.0375
      8  N         24.5980   -8.7720   68.2160 N.3    62  TYR62      -0.1241
      9  CA        24.5800   -8.9570   66.7770 C.3    62  TYR62       0.1605
     10  C         24.3830  -10.4390   66.5390 C.2    62  TYR62       0.2264
     11  O         25.1050  -11.2960   67.1150 O.2    62  TYR62      -0.2867
     12  CB        25.8930   -8.5310   66.1280 C.3    62  TYR62       0.0534
     13  CG        26.4310   -7.1430   66.4020 C.ar   62  TYR62      -0.0201
     14  CD1       27.7720   -6.8790   66.1840 C.ar   62  TYR62      -0.0009
     15  CD2       25.6360   -6.1170   66.8930 C.ar   62  TYR62      -0.0009
     16  CE1       28.3090   -5.6100   66.3920 C.ar   62  TYR62       0.0417
     17  CE2       26.1740   -4.8230   67.1170 C.ar   62  TYR62       0.0417
     18  CZ        27.5120   -4.5860   66.8510 C.ar   62  TYR62       0.1957
     19  OH        28.0730   -3.3210   67.0420 O.3    62  TYR62      -0.2866
     20  N         24.7590  -13.1430   63.7660 N.3    64  GLN64      -0.1245
     21  CA        25.3530  -13.4670   62.4860 C.3    64  GLN64       0.1566
     22  C         24.6970  -14.7080   61.9060 C.2    64  GLN64       0.2260
     23  O         24.6970  -15.7640   62.5380 O.2    64  GLN64      -0.2867
     24  CB        26.8520  -13.6570   62.6260 C.3    64  GLN64       0.0367
     25  CG        27.5510  -13.8490   61.2900 C.3    64  GLN64       0.0905
     26  CD        29.0480  -14.0660   61.4180 C.2    64  GLN64       0.2608
     27  OE1       29.6980  -14.3710   60.4340 O.2    64  GLN64      -0.2717
     28  NE2       29.5910  -13.9330   62.6320 N.am   64  GLN64      -0.0878
     29  N         20.6410   -5.3870   55.6850 N.3   113  ILE113     -0.1245
     30  CA        21.2830   -5.4660   54.3980 C.3   113  ILE113      0.1561
     31  C         22.1710   -6.6940   54.4560 C.2   113  ILE113      0.2260
     32  O         22.8990   -6.9010   55.4250 O.2   113  ILE113     -0.2867
     33  CB        22.1290   -4.1940   54.1030 C.3   113  ILE113      0.0252
     34  CG1       21.2630   -2.9310   54.1540 C.3   113  ILE113      0.0019
     35  CG2       22.7890   -4.2970   52.7020 C.3   113  ILE113      0.0019
     36  CD1       22.0590   -1.6360   54.2180 C.3   113  ILE113      0.0001
     37  N         25.0700   -9.4160   52.5540 N.3   115  VAL115     -0.1245
     38  CA        26.1910   -9.4890   51.6130 C.3   115  VAL115      0.1561
     39  C         26.1510  -10.8270   50.9250 C.2   115  VAL115      0.2260
     40  O         26.1610  -11.8690   51.5900 O.2   115  VAL115     -0.2867
     41  CB        27.5290   -9.3680   52.2850 C.3   115  VAL115      0.0252
     42  CG1       28.6400   -9.4100   51.2260 C.3   115  VAL115      0.0019
     43  CG2       27.5760   -8.0600   53.0860 C.3   115  VAL115      0.0019
     44  N         25.6660  -13.5460   53.9430 N.3   123  MET123     -0.1245
     45  CA        25.9950  -13.1540   55.3020 C.3   123  MET123      0.1570
     46  C         25.0710  -12.0260   55.7020 C.2   123  MET123      0.2261
     47  O         25.0390  -11.0100   55.0240 O.2   123  MET123     -0.2867
     48  CB        27.4140  -12.6160   55.3420 C.3   123  MET123      0.0387
     49  CG        27.7360  -11.9230   56.6220 C.3   123  MET123      0.0595
     50  SD        28.0810  -13.1870   57.8230 S.3   123  MET123     -0.1393
     51  CE        29.8460  -13.2840   57.5410 C.3   123  MET123      0.0692
     52  N         23.7970   -9.8580   59.2450 N.3   125  ILE125     -0.1245
     53  CA        24.1140   -9.6080   60.6480 C.3   125  ILE125      0.1561
     54  C         23.2940   -8.5040   61.2880 C.2   125  ILE125      0.2260
     55  O         23.7740   -7.4020   61.4630 O.2   125  ILE125     -0.2867
     56  CB        25.5930   -9.3070   60.8680 C.3   125  ILE125      0.0252
     57  CG1       26.4400  -10.3060   60.0800 C.3   125  ILE125      0.0019
     58  CG2       25.9150   -9.4000   62.3570 C.3   125  ILE125      0.0019
     59  CD1       27.9190  -10.1300   60.2360 C.3   125  ILE125      0.0001
     60  N         30.9220  -14.5760   70.9010 N.3   171  ASP171     -0.1239
     61  CA        31.8990  -13.5110   70.6650 C.3   171  ASP171      0.1674
     62  C         31.6710  -12.4050   71.6880 C.2   171  ASP171      0.2266
     63  O         30.6220  -11.7310   71.6500 O.2   171  ASP171     -0.2867
     64  CB        31.7640  -12.9990   69.2430 C.3   171  ASP171      0.1410
     65  CG        32.5450  -11.7410   68.9700 C.2   171  ASP171      0.3668
     66  OD1       33.5610  -11.4440   69.6560 O.co2 171  ASP171     -0.2456
     67  OD2       32.1200  -11.0520   67.9950 O.co2 171  ASP171     -0.2456
     68  N         34.1020  -10.0250   72.2380 N.3   173  SER173     -0.1202
     69  CA        35.1450   -9.0150   71.9210 C.3   173  SER173      0.2020
     70  C         34.5890   -7.5850   71.8700 C.2   173  SER173      0.2619
     71  O         35.3610   -6.6000   71.9670 O.2   173  SER173     -0.2717
     72  CB        35.8340   -9.3440   70.5800 C.3   173  SER173      0.2103
     73  OG        34.9270   -9.2120   69.4810 O.3   173  SER173     -0.2182
     74  N         33.2690   -7.4730   71.6660 N.am  174  SER174     -0.1951
     75  CA        32.5660   -6.1900   71.5890 C.3   174  SER174      0.1924
     76  C         31.6700   -5.9370   72.8040 C.2   174  SER174      0.2314
     77  O         30.8550   -5.0320   72.7830 O.2   174  SER174     -0.2863
     78  CB        31.6890   -6.1470   70.3350 C.3   174  SER174      0.2116
     79  OG        32.4780   -6.1390   69.1600 O.3   174  SER174     -0.2180
@<TRIPOS>BOND
     1    39    40    2
     2    39    38    1
     3    42    41    1
     4    38    41    1
     5    38    37    1
     6    41    43    1
     7    35    33    1
     8    44    45    1
     9    33    34    1
    10    33    30    1
    11    34    36    1
    12    30    31    1
    13    30    29    1
    14    31    32    2
    15    47    46    2
    16    45    48    1
    17    45    46    1
    18    48    49    1
    19    49    50    1
    20    51    50    1
    21    52    53    1
    22    57    59    1
    23    57    56    1
    24    27    26    2
    25    53    56    1
    26    53    54    1
    27    56    58    1
    28    54    55    2
    29    25    26    1
    30    25    24    1
    31    26    28   am
    32    22    21    1
    33    22    23    2
    34    21    24    1
    35    21    20    1
    36    12    13    1
    37    12     9    1
    38    14    16   ar
    39    14    13   ar
    40    16    18   ar
    41    13    15   ar
    42    10     9    1
    43    10    11    2
    44     9     8    1
    45    18    19    1
    46    18    17   ar
    47    15    17   ar
    48     6     5    1
    49    67    65   ar
    50     5     7    1
    51     5     2    1
    52     1     2    1
    53    65    64    1
    54    65    66   ar
    55    79    78    1
    56    64    61    1
    57     2     3    1
    58    73    72    1
    59     4     3    2
    60    78    75    1
    61    72    69    1
    62    61    60    1
    63    61    62    1
    64    75    74    1
    65    75    76    1
    66    63    62    2
    67    74    70   am
    68    70    69    1
    69    70    71    2
    70    69    68    1
    71    77    76    2
