@<TRIPOS>MOLECULE
tmp/2wnbA01.pdb
 131 127 0 0 0
SMALL
GASTEIGER

@<TRIPOS>ATOM
      1  N         32.3850   13.2710   37.3880 N.3    47  LEU47      -0.1231
      2  CA        32.2430   14.7140   37.2540 C.3    47  LEU47       0.1693
      3  C         33.1510   15.4910   38.1900 C.2    47  LEU47       0.2591
      4  O         33.7360   16.5020   37.7870 O.2    47  LEU47      -0.2718
      5  CB        30.7640   15.1550   37.4390 C.3    47  LEU47       0.0284
      6  CG        29.7280   14.4890   36.5410 C.3    47  LEU47       0.0019
      7  CD1       28.3720   15.1830   36.7970 C.3    47  LEU47       0.0001
      8  CD2       30.1950   14.5140   35.0460 C.3    47  LEU47       0.0001
      9  N         33.1290   15.1060   39.4580 N.am   48  GLN48      -0.1979
     10  CA        33.8980   15.8180   40.4900 C.3    48  GLN48       0.1601
     11  C         34.9140   14.9170   41.2070 C.2    48  GLN48       0.2287
     12  O         35.6860   15.4580   41.9860 O.2    48  GLN48      -0.2864
     13  CB        32.9510   16.5890   41.4780 C.3    48  GLN48       0.0394
     14  CG        32.0470   17.5850   40.6420 C.3    48  GLN48       0.0908
     15  CD        31.3590   18.5860   41.5230 C.2    48  GLN48       0.2608
     16  OE1       31.2440   18.4370   42.7420 O.2    48  GLN48      -0.2717
     17  NE2       30.9040   19.6830   40.8880 N.am   48  GLN48      -0.0878
     18  N         23.1010   23.9300   44.4550 N.3   133  TYR133     -0.1241
     19  CA        23.9910   22.8630   44.9230 C.3   133  TYR133      0.1605
     20  C         24.6720   23.3990   46.1930 C.2   133  TYR133      0.2264
     21  O         24.5260   24.6150   46.5370 O.2   133  TYR133     -0.2867
     22  CB        24.9560   22.3660   43.8320 C.3   133  TYR133      0.0534
     23  CG        25.5460   23.5330   43.0290 C.ar  133  TYR133     -0.0201
     24  CD1       24.9040   24.0550   41.8810 C.ar  133  TYR133     -0.0009
     25  CD2       26.8360   24.0320   43.3030 C.ar  133  TYR133     -0.0009
     26  CE1       25.4630   25.1030   41.1500 C.ar  133  TYR133      0.0417
     27  CE2       27.3710   25.1080   42.5570 C.ar  133  TYR133      0.0417
     28  CZ        26.7120   25.5800   41.4400 C.ar  133  TYR133      0.1957
     29  OH        27.2400   26.6330   40.7470 O.3   133  TYR133     -0.2866
     30  N         27.5390   24.4800   47.0350 N.3   135  GLU135     -0.1245
     31  CA        28.4300   25.6090   46.8220 C.3   135  GLU135      0.1567
     32  C         27.7010   26.8190   46.2370 C.2   135  GLU135      0.2260
     33  O         28.3490   27.8460   45.9830 O.2   135  GLU135     -0.2867
     34  CB        29.6250   25.1810   45.9310 C.3   135  GLU135      0.0388
     35  CG        30.2890   23.8960   46.4950 C.3   135  GLU135      0.1160
     36  CD        29.6950   22.5260   46.1740 C.2   135  GLU135      0.3649
     37  OE1       28.6290   22.4680   45.5110 O.co2 135  GLU135     -0.2457
     38  OE2       30.3430   21.5310   46.5580 O.co2 135  GLU135     -0.2457
     39  N         26.0720   16.8300   42.1090 N.3   150  PHE150     -0.1227
     40  CA        27.2010   16.5460   41.2230 C.3   150  PHE150      0.1736
     41  C         28.2030   15.5400   41.7740 C.2   150  PHE150      0.2595
     42  O         29.2430   15.2620   41.1160 O.2   150  PHE150     -0.2718
     43  CB        27.9100   17.8620   40.8530 C.3   150  PHE150      0.0547
     44  CG        26.9930   18.8220   40.0930 C.ar  150  PHE150     -0.0202
     45  CD1       26.7940   18.6460   38.7010 C.ar  150  PHE150     -0.0042
     46  CD2       26.3370   19.8870   40.8180 C.ar  150  PHE150     -0.0042
     47  CE1       25.8860   19.5630   38.0300 C.ar  150  PHE150     -0.0003
     48  CE2       25.4690   20.7640   40.1020 C.ar  150  PHE150     -0.0003
     49  CZ        25.2550   20.6100   38.7430 C.ar  150  PHE150     -0.0000
     50  N         27.9240   15.1400   43.0190 N.am  151  LYS151     -0.1980
     51  CA        28.7820   14.1500   43.6870 C.3   151  LYS151      0.1596
     52  C         28.0330   13.6220   44.9250 C.2   151  LYS151      0.2287
     53  O         27.0240   14.1750   45.3460 O.2   151  LYS151     -0.2864
     54  CB        30.1510   14.7390   44.0890 C.3   151  LYS151      0.0298
     55  CG        29.9530   16.0490   44.9800 C.3   151  LYS151      0.0038
     56  CD        31.3190   16.6840   45.2820 C.3   151  LYS151      0.0206
     57  CE        31.2050   17.9740   46.0620 C.3   151  LYS151      0.1093
     58  NZ        30.3170   18.9560   45.3450 N.3   151  LYS151     -0.1314
     59  N         27.0680   15.8000   47.8090 N.3   154  ASP154     -0.1239
     60  CA        25.9950   16.7830   47.7000 C.3   154  ASP154      0.1674
     61  C         24.6960   16.2360   48.3070 C.2   154  ASP154      0.2266
     62  O         23.9090   16.9890   48.8680 O.2   154  ASP154     -0.2867
     63  CB        25.7480   17.1630   46.2450 C.3   154  ASP154      0.1410
     64  CG        26.8880   17.9460   45.6670 C.2   154  ASP154      0.3668
     65  OD1       27.8270   18.3410   46.3900 O.co2 154  ASP154     -0.2456
     66  OD2       26.8400   18.2140   44.4170 O.co2 154  ASP154     -0.2456
     67  N         34.6990   21.2890   47.9760 N.3   171  TYR171     -0.1241
     68  CA        35.9000   21.9080   47.3770 C.3   171  TYR171      0.1605
     69  C         36.0840   23.3740   47.7600 C.2   171  TYR171      0.2264
     70  O         37.1630   23.9760   47.5550 O.2   171  TYR171     -0.2867
     71  CB        35.8890   21.7320   45.8540 C.3   171  TYR171      0.0534
     72  CG        34.6700   22.2150   45.1300 C.ar  171  TYR171     -0.0201
     73  CD1       34.5900   23.5290   44.7090 C.ar  171  TYR171     -0.0009
     74  CD2       33.6830   21.3070   44.7640 C.ar  171  TYR171     -0.0009
     75  CE1       33.4320   23.9960   43.9960 C.ar  171  TYR171      0.0417
     76  CE2       32.5300   21.7760   44.1080 C.ar  171  TYR171      0.0417
     77  CZ        32.4650   23.1180   43.6930 C.ar  171  TYR171      0.1957
     78  OH        31.3610   23.6260   43.0120 O.3   171  TYR171     -0.2866
     79  N         32.4270   19.5030   30.1790 N.3   206  ARG206     -0.1231
     80  CA        32.6020   18.3550   31.1130 C.3   206  ARG206      0.1694
     81  C         31.2970   17.8070   31.6570 C.2   206  ARG206      0.2592
     82  O         31.0560   16.5800   31.7580 O.2   206  ARG206     -0.2718
     83  CB        33.5840   18.6900   32.2540 C.3   206  ARG206      0.0321
     84  CG        33.8720   17.5320   33.1970 C.3   206  ARG206      0.0489
     85  CD        34.9020   17.9790   34.2700 C.3   206  ARG206      0.2205
     86  NE        35.9860   18.7500   33.6330 N.pl3 206  ARG206     -0.0865
     87  CZ        36.6940   19.6950   34.2550 C.cat 206  ARG206      0.5346
     88  NH1       36.4520   19.9590   35.5480 N.pl3 206  ARG206      0.1354
     89  NH2       37.6880   20.3400   33.6220 N.pl3 206  ARG206      0.1354
     90  N         30.3880   18.7530   31.8920 N.am  207  TYR207     -0.1976
     91  CA        29.0360   18.3350   32.2520 C.3   207  TYR207      0.1639
     92  C         28.1700   19.6110   32.1140 C.2   207  TYR207      0.2290
     93  O         28.6750   20.6950   31.8820 O.2   207  TYR207     -0.2864
     94  CB        28.9810   17.6930   33.6680 C.3   207  TYR207      0.0560
     95  CG        29.4690   18.5480   34.8150 C.ar  207  TYR207     -0.0198
     96  CD1       28.6360   19.4220   35.4830 C.ar  207  TYR207     -0.0009
     97  CD2       30.8370   18.5220   35.1970 C.ar  207  TYR207     -0.0009
     98  CE1       29.0910   20.2230   36.5150 C.ar  207  TYR207      0.0417
     99  CE2       31.2660   19.2560   36.2560 C.ar  207  TYR207      0.0417
    100  CZ        30.4500   20.0790   36.9240 C.ar  207  TYR207      0.1957
    101  OH        30.9300   20.8630   37.9360 O.3   207  TYR207     -0.2866
    102  N         25.7910   23.0130   32.5940 N.3   209  SER209     -0.1202
    103  CA        25.6860   24.1020   33.5410 C.3   209  SER209      0.2020
    104  C         24.2850   24.0160   34.1740 C.2   209  SER209      0.2619
    105  O         23.3590   23.3430   33.6620 O.2   209  SER209     -0.2717
    106  CB        25.7610   25.4390   32.8180 C.3   209  SER209      0.2103
    107  OG        24.5760   25.6900   32.0750 O.3   209  SER209     -0.2182
    108  N         24.1870   24.6970   35.3040 N.am  210  THR210     -0.1952
    109  CA        22.9320   24.6970   36.0610 C.3   210  THR210      0.1897
    110  C         21.8460   25.3350   35.1870 C.2   210  THR210      0.2313
    111  O         20.6550   24.8930   35.2070 O.2   210  THR210     -0.2863
    112  CB        23.1210   25.4910   37.3610 C.3   210  THR210      0.1794
    113  OG1       24.1720   24.7790   38.0790 O.3   210  THR210     -0.2208
    114  CG2       21.8470   25.3920   38.2800 C.3   210  THR210      0.0378
    115  N         34.5830   23.8620   32.2170 N.3   245  VAL245     -0.1231
    116  CA        33.7110   22.8390   32.7530 C.3   245  VAL245      0.1692
    117  C         32.4250   22.7630   31.8870 C.2   245  VAL245      0.2592
    118  O         31.8930   21.6700   31.6180 O.2   245  VAL245     -0.2718
    119  CB        33.4160   23.0660   34.2760 C.3   245  VAL245      0.0266
    120  CG1       32.9510   24.4280   34.6160 C.3   245  VAL245      0.0020
    121  CG2       32.4680   22.1800   34.8470 C.3   245  VAL245      0.0020
    122  N         31.9220   23.9340   31.5290 N.am  246  HIS246     -0.1976
    123  CA        30.7500   23.9390   30.6180 C.3   246  HIS246      0.1656
    124  C         31.1100   24.5120   29.2410 C.2   246  HIS246      0.2291
    125  O         31.9930   25.3540   29.1680 O.2   246  HIS246     -0.2864
    126  CB        29.5430   24.7040   31.2150 C.3   246  HIS246      0.0771
    127  CG        29.2870   24.4000   32.6690 C.ar  246  HIS246      0.0820
    128  ND1       29.1020   23.1250   33.1670 N.ar  246  HIS246     -0.2267
    129  CD2       29.3520   25.2160   33.7480 C.ar  246  HIS246      0.1154
    130  CE1       29.0140   23.1910   34.4850 C.ar  246  HIS246      0.1986
    131  NE2       29.1280   24.4480   34.8620 N.ar  246  HIS246     -0.2212
@<TRIPOS>BOND
     1   125   124    2
     2   124   123    1
     3    79    80    1
     4   123   126    1
     5   123   122    1
     6    80    81    1
     7    80    83    1
     8   126   127    1
     9   122   117   am
    10   118   117    2
    11    81    82    2
    12    81    90   am
    13    93    92    2
    14   117   116    1
    15    90    91    1
    16   107   106    1
    17    92    91    1
    18   115   116    1
    19    91    94    1
    20    83    84    1
    21   102   103    1
    22   127   128   ar
    23   127   129   ar
    24   116   119    1
    25   106   103    1
    26   128   130   ar
    27    84    85    1
    28   103   104    1
    29    89    87    1
    30    86    87    2
    31    86    85    1
    32   105   104    2
    33    94    95    1
    34   129   131   ar
    35   104   108   am
    36    87    88    1
    37   119   120    1
    38   119   121    1
    39   130   131   ar
    40    95    97   ar
    41    95    96   ar
    42     8     6    1
    43   110   111    2
    44   110   109    1
    45    97    99   ar
    46   108   109    1
    47    96    98   ar
    48   109   112    1
    49    99   100   ar
    50    98   100   ar
    51     6     7    1
    52     6     5    1
    53   100   101    1
    54     2     1    1
    55     2     5    1
    56     2     3    1
    57   112   113    1
    58   112   114    1
    59     4     3    2
    60    47    45   ar
    61    47    49   ar
    62     3     9   am
    63    45    44   ar
    64    49    48   ar
    65     9    10    1
    66    44    46   ar
    67    44    43    1
    68    48    46   ar
    69    10    11    1
    70    10    13    1
    71    14    13    1
    72    14    15    1
    73    29    28    1
    74    43    40    1
    75    17    15   am
    76    42    41    2
    77    26    28   ar
    78    26    24   ar
    79    11    12    2
    80    40    41    1
    81    40    39    1
    82    28    27   ar
    83    15    16    2
    84    41    50   am
    85    24    23   ar
    86    27    25   ar
    87    78    77    1
    88    50    51    1
    89    23    25   ar
    90    23    22    1
    91    51    54    1
    92    51    52    1
    93    77    75   ar
    94    77    76   ar
    95    22    19    1
    96    75    73   ar
    97    54    55    1
    98    76    74   ar
    99    66    64   ar
   100    18    19    1
   101    73    72   ar
   102    74    72   ar
   103    19    20    1
   104    52    53    2
   105    55    56    1
   106    72    71    1
   107    56    57    1
   108    58    57    1
   109    37    36   ar
   110    64    63    1
   111    64    65   ar
   112    71    68    1
   113    34    35    1
   114    34    31    1
   115    33    32    2
   116    36    35    1
   117    36    38   ar
   118    20    21    2
   119    32    31    1
   120    63    60    1
   121    31    30    1
   122    68    69    1
   123    68    67    1
   124    70    69    2
   125    60    59    1
   126    60    61    1
   127    61    62    2
