@<TRIPOS>MOLECULE
tmp/2wnbA00.pdb
 139 139 0 0 0
SMALL
GASTEIGER

@<TRIPOS>ATOM
      1  N         17.1640   32.8330   34.6780 N.3    89  GLY89      -0.1210
      2  CA        18.6390   32.8010   34.7840 C.3    89  GLY89       0.1956
      3  C         19.1300   34.0500   35.4600 C.2    89  GLY89       0.2612
      4  O         18.4140   34.9180   35.9000 O.2    89  GLY89      -0.2717
      5  N         20.4830   34.1460   35.5350 N.am   90  ASN90      -0.1960
      6  CA        21.0770   35.1430   36.3750 C.3    90  ASN90       0.1819
      7  C         21.6630   36.3850   35.6530 C.2    90  ASN90       0.2622
      8  O         22.3110   37.1960   36.2790 O.2    90  ASN90      -0.2715
      9  CB        22.0510   34.4420   37.3020 C.3    90  ASN90       0.1195
     10  CG        21.2410   33.5440   38.3090 C.2    90  ASN90       0.2630
     11  OD1       20.0650   33.8120   38.4980 O.2    90  ASN90      -0.2716
     12  ND2       21.8610   32.6890   38.9880 N.am   90  ASN90      -0.0877
     13  N         21.4490   36.4320   34.3390 N.am   91  SER91      -0.1950
     14  CA        22.0980   37.4860   33.5360 C.3    91  SER91       0.1924
     15  C         21.6940   38.9070   33.9230 C.2    91  SER91       0.2314
     16  O         20.5230   39.2410   34.1970 O.2    91  SER91      -0.2863
     17  CB        21.7290   37.2490   32.0850 C.3    91  SER91       0.2116
     18  OG        22.3510   38.3210   31.3060 O.3    91  SER91      -0.2180
     19  N         20.7570   29.1620   41.9710 N.3   112  ASN112     -0.1240
     20  CA        22.0010   29.6330   42.5930 C.3   112  ASN112      0.1653
     21  C         21.7300   30.7330   43.6090 C.2   112  ASN112      0.2266
     22  O         20.6890   30.6630   44.3130 O.2   112  ASN112     -0.2867
     23  CB        23.0330   29.9720   41.5210 C.3   112  ASN112      0.1155
     24  CG        23.3470   28.7100   40.6960 C.2   112  ASN112      0.2627
     25  OD1       23.6060   28.8260   39.5000 O.2   112  ASN112     -0.2716
     26  ND2       23.0200   27.5080   41.2930 N.am  112  ASN112     -0.0877
     27  N         23.1010   23.9300   44.4550 N.3   133  TYR133     -0.1241
     28  CA        23.9910   22.8630   44.9230 C.3   133  TYR133      0.1605
     29  C         24.6720   23.3990   46.1930 C.2   133  TYR133      0.2264
     30  O         24.5260   24.6150   46.5370 O.2   133  TYR133     -0.2867
     31  CB        24.9560   22.3660   43.8320 C.3   133  TYR133      0.0534
     32  CG        25.5460   23.5330   43.0290 C.ar  133  TYR133     -0.0201
     33  CD1       24.9040   24.0550   41.8810 C.ar  133  TYR133     -0.0009
     34  CD2       26.8360   24.0320   43.3030 C.ar  133  TYR133     -0.0009
     35  CE1       25.4630   25.1030   41.1500 C.ar  133  TYR133      0.0417
     36  CE2       27.3710   25.1080   42.5570 C.ar  133  TYR133      0.0417
     37  CZ        26.7120   25.5800   41.4400 C.ar  133  TYR133      0.1957
     38  OH        27.2400   26.6330   40.7470 O.3   133  TYR133     -0.2866
     39  N         25.7910   23.0130   32.5940 N.3   209  SER209     -0.1202
     40  CA        25.6860   24.1020   33.5410 C.3   209  SER209      0.2020
     41  C         24.2850   24.0160   34.1740 C.2   209  SER209      0.2619
     42  O         23.3590   23.3430   33.6620 O.2   209  SER209     -0.2717
     43  CB        25.7610   25.4390   32.8180 C.3   209  SER209      0.2103
     44  OG        24.5760   25.6900   32.0750 O.3   209  SER209     -0.2182
     45  N         24.1870   24.6970   35.3040 N.am  210  THR210     -0.1938
     46  CA        22.9320   24.6970   36.0610 C.3   210  THR210      0.2028
     47  C         21.8460   25.3350   35.1870 C.2   210  THR210      0.2643
     48  O         20.6550   24.8930   35.2070 O.2   210  THR210     -0.2714
     49  CB        23.1210   25.4910   37.3610 C.3   210  THR210      0.1808
     50  OG1       24.1720   24.7790   38.0790 O.3   210  THR210     -0.2208
     51  CG2       21.8470   25.3920   38.2800 C.3   210  THR210      0.0379
     52  N         22.2000   26.3640   34.3970 N.am  211  GLY211     -0.1939
     53  CA        21.1790   27.0070   33.5390 C.3   211  GLY211      0.2014
     54  C         20.5580   25.9950   32.5660 C.2   211  GLY211      0.2638
     55  O         19.3050   25.9320   32.4610 O.2   211  GLY211     -0.2714
     56  N         21.3730   25.2660   31.8260 N.am  212  ILE212     -0.1977
     57  CA        20.7950   24.3280   30.8270 C.3   212  ILE212      0.1596
     58  C         20.1390   23.1590   31.5390 C.2   212  ILE212      0.2287
     59  O         19.0840   22.6890   31.0260 O.2   212  ILE212     -0.2864
     60  CB        21.8550   23.8640   29.7610 C.3   212  ILE212      0.0276
     61  CG1       21.1630   23.3750   28.4720 C.3   212  ILE212      0.0022
     62  CG2       22.7920   22.8220   30.3340 C.3   212  ILE212      0.0022
     63  CD1       20.4000   24.4440   27.7170 C.3   212  ILE212      0.0001
     64  N         16.6850   36.1340   31.6500 N.3   229  GLY229     -0.1210
     65  CA        18.0230   36.1950   32.2940 C.3   229  GLY229      0.1956
     66  C         19.0230   35.1690   31.7280 C.2   229  GLY229      0.2612
     67  O         19.9420   34.7550   32.4580 O.2   229  GLY229     -0.2717
     68  N         18.8550   34.7550   30.4710 N.am  230  PHE230     -0.1962
     69  CA        19.8420   33.9280   29.8230 C.3   230  PHE230      0.1771
     70  C         20.6240   34.7100   28.7770 C.2   230  PHE230      0.2620
     71  O         20.0000   35.5300   28.0920 O.2   230  PHE230     -0.2715
     72  CB        19.1740   32.7260   29.1390 C.3   230  PHE230      0.0574
     73  CG        18.8370   31.5890   30.0980 C.ar  230  PHE230     -0.0200
     74  CD1       17.7380   31.6640   30.9430 C.ar  230  PHE230     -0.0042
     75  CD2       19.6270   30.4290   30.0560 C.ar  230  PHE230     -0.0042
     76  CE1       17.4520   30.6470   31.8470 C.ar  230  PHE230     -0.0003
     77  CE2       19.3950   29.3620   30.9680 C.ar  230  PHE230     -0.0003
     78  CZ        18.2980   29.4910   31.8280 C.ar  230  PHE230     -0.0000
     79  N         21.9210   34.4710   28.6950 N.am  231  GLY231     -0.1954
     80  CA        22.7520   35.1270   27.6690 C.3   231  GLY231      0.1869
     81  C         23.4060   36.4000   28.1450 C.2   231  GLY231      0.2309
     82  O         23.3090   36.8270   29.3060 O.2   231  GLY231     -0.2863
     83  N         28.6450   39.6530   30.2780 N.3   238  TRP238     -0.1227
     84  CA        28.1890   38.5120   31.0620 C.3   238  TRP238      0.1737
     85  C         28.4210   38.8770   32.5210 C.2   238  TRP238      0.2595
     86  O         29.5490   38.7380   33.0690 O.2   238  TRP238     -0.2718
     87  CB        28.9900   37.2170   30.7000 C.3   238  TRP238      0.0564
     88  CG        28.7330   36.7430   29.3110 C.ar  238  TRP238      0.0003
     89  CD1       29.3730   37.1640   28.1640 C.ar  238  TRP238      0.0946
     90  CD2       27.7780   35.7520   28.8910 C.ar  238  TRP238      0.0152
     91  NE1       28.8430   36.5110   27.0690 N.ar  238  TRP238     -0.2442
     92  CE2       27.8600   35.6470   27.4860 C.ar  238  TRP238      0.0810
     93  CE3       26.8610   34.9390   29.5690 C.ar  238  TRP238      0.0012
     94  CZ2       27.0660   34.7430   26.7530 C.ar  238  TRP238      0.0191
     95  CZ3       26.0600   34.0700   28.8300 C.ar  238  TRP238      0.0001
     96  CH2       26.1560   33.9710   27.4460 C.ar  238  TRP238      0.0015
     97  N         27.3880   39.3130   33.2220 N.am  239  HIS239     -0.1961
     98  CA        27.5390   39.7100   34.6220 C.3   239  HIS239      0.1787
     99  C         26.2240   39.2470   35.2640 C.2   239  HIS239      0.2620
    100  O         25.2880   38.8450   34.5800 O.2   239  HIS239     -0.2715
    101  CB        27.7780   41.2470   34.8250 C.3   239  HIS239      0.0785
    102  CG        26.6870   42.1370   34.2930 C.ar  239  HIS239      0.0821
    103  ND1       26.4670   42.3550   32.9450 N.ar  239  HIS239     -0.2267
    104  CD2       25.7670   42.8970   34.9410 C.ar  239  HIS239      0.1154
    105  CE1       25.4310   43.1680   32.7860 C.ar  239  HIS239      0.1986
    106  NE2       25.0080   43.5330   33.9870 N.ar  239  HIS239     -0.2212
    107  N         26.1490   39.2320   36.5690 N.am  240  HIS240     -0.1973
    108  CA        24.8480   38.9440   37.2220 C.3   240  HIS240      0.1656
    109  C         24.0010   40.1730   37.4480 C.2   240  HIS240      0.2291
    110  O         24.5030   41.3080   37.6240 O.2   240  HIS240     -0.2864
    111  CB        25.1340   38.3790   38.6200 C.3   240  HIS240      0.0771
    112  CG        25.6520   36.9860   38.5760 C.ar  240  HIS240      0.0820
    113  ND1       26.4160   36.4710   39.5960 N.ar  240  HIS240     -0.2267
    114  CD2       25.5950   36.0310   37.6100 C.ar  240  HIS240      0.1154
    115  CE1       26.6910   35.2060   39.3240 C.ar  240  HIS240      0.1986
    116  NE2       26.2160   34.9140   38.1230 N.ar  240  HIS240     -0.2212
    117  N         22.4440   41.1820   40.0540 N.3   242  TRP242     -0.1241
    118  CA        22.4120   41.8020   41.3860 C.3   242  TRP242      0.1605
    119  C         23.7720   42.2940   41.8340 C.2   242  TRP242      0.2264
    120  O         23.8490   42.8660   42.9110 O.2   242  TRP242     -0.2867
    121  CB        21.8410   40.8080   42.4070 C.3   242  TRP242      0.0550
    122  CG        22.6630   39.5090   42.5960 C.ar  242  TRP242      0.0003
    123  CD1       23.6300   39.2790   43.5650 C.ar  242  TRP242      0.0946
    124  CD2       22.6740   38.3380   41.7590 C.ar  242  TRP242      0.0152
    125  NE1       24.1660   37.9930   43.4230 N.ar  242  TRP242     -0.2442
    126  CE2       23.5830   37.4140   42.3220 C.ar  242  TRP242      0.0810
    127  CE3       21.9200   37.9470   40.6560 C.ar  242  TRP242      0.0012
    128  CZ2       23.7890   36.1550   41.7840 C.ar  242  TRP242      0.0191
    129  CZ3       22.0780   36.6590   40.1580 C.ar  242  TRP242      0.0001
    130  CH2       23.0420   35.7960   40.7120 C.ar  242  TRP242      0.0015
    131  N         25.7320   25.3150   24.6910 N.3   251  GLU251     -0.1245
    132  CA        24.4610   25.3420   25.4430 C.3   251  GLU251      0.1567
    133  C         23.5750   26.4980   24.9610 C.2   251  GLU251      0.2260
    134  O         22.3180   26.3510   24.8730 O.2   251  GLU251     -0.2867
    135  CB        24.7700   25.5200   26.9460 C.3   251  GLU251      0.0388
    136  CG        25.4300   24.3090   27.5660 C.3   251  GLU251      0.1160
    137  CD        25.6360   24.4860   29.0820 C.2   251  GLU251      0.3649
    138  OE1       25.2550   25.5870   29.5880 O.co2 251  GLU251     -0.2457
    139  OE2       26.1850   23.5520   29.6670 O.co2 251  GLU251     -0.2457
@<TRIPOS>BOND
     1   131   132    1
     2   134   133    2
     3   133   132    1
     4   132   135    1
     5    94    96   ar
     6    94    92   ar
     7   135   136    1
     8    91    92   ar
     9    91    89   ar
    10    96    95   ar
    11    92    90   ar
    12   136   137    1
    13    80    81    1
    14    80    79    1
    15    63    61    1
    16    71    70    2
    17    81    82    2
    18    89    88   ar
    19    61    60    1
    20    79    70   am
    21    70    69    1
    22    95    93   ar
    23    90    88   ar
    24    90    93   ar
    25   137   138   ar
    26   137   139   ar
    27    72    69    1
    28    72    73    1
    29    88    87    1
    30    60    62    1
    31    60    57    1
    32    69    68    1
    33    75    73   ar
    34    75    77   ar
    35    73    74   ar
    36    83    84    1
    37    68    66   am
    38    87    84    1
    39    57    58    1
    40    57    56    1
    41    74    76   ar
    42    77    78   ar
    43    59    58    2
    44    84    85    1
    45    18    17    1
    46    64    65    1
    47    66    65    1
    48    66    67    2
    49    56    54   am
    50    78    76   ar
    51    44    43    1
    52    17    14    1
    53    55    54    2
    54    85    86    2
    55    85    97   am
    56    54    53    1
    57    39    40    1
    58   105   103   ar
    59   105   106   ar
    60    43    40    1
    61   103   102   ar
    62    97    98    1
    63    14    15    1
    64    14    13    1
    65    53    52    1
    66    40    41    1
    67    42    41    2
    68    15    16    2
    69   106   104   ar
    70    41    45   am
    71   102   101    1
    72   102   104   ar
    73    13     7   am
    74    52    47   am
    75   100    99    2
    76    98   101    1
    77    98    99    1
    78     1     2    1
    79     2     3    1
    80    47    48    2
    81    47    46    1
    82    99   107   am
    83    45    46    1
    84     3     5   am
    85     3     4    2
    86     5     6    1
    87     7     8    2
    88     7     6    1
    89    46    49    1
    90     6     9    1
    91   107   108    1
    92   108   109    1
    93   108   111    1
    94     9    10    1
    95    49    50    1
    96    49    51    1
    97   109   110    2
    98   114   116   ar
    99   114   112   ar
   100   116   115   ar
   101    10    11    2
   102    10    12   am
   103   112   111    1
   104   112   113   ar
   105   115   113   ar
   106    25    24    2
   107   117   118    1
   108   129   127   ar
   109   129   130   ar
   110   127   124   ar
   111    24    26   am
   112    24    23    1
   113   130   128   ar
   114    38    37    1
   115    35    37   ar
   116    35    33   ar
   117   118   119    1
   118   118   121    1
   119    37    36   ar
   120    23    20    1
   121   124   126   ar
   122   124   122   ar
   123   128   126   ar
   124   119   120    2
   125    33    32   ar
   126    19    20    1
   127   126   125   ar
   128   121   122    1
   129    36    34   ar
   130    20    21    1
   131   122   123   ar
   132    32    34   ar
   133    32    31    1
   134   125   123   ar
   135    21    22    2
   136    31    28    1
   137    27    28    1
   138    28    29    1
   139    29    30    2
