@<TRIPOS>MOLECULE
tmp/2wneA00.pdb
 239 230 0 0 0
SMALL
GASTEIGER

@<TRIPOS>ATOM
      1  N          6.6920   23.2030   43.1400 N.3    25  ASP25      -0.1225
      2  CA         6.1080   22.5280   44.3080 C.3    25  ASP25       0.1790
      3  C          6.8520   21.2170   44.6310 C.2    25  ASP25       0.2440
      4  O          6.8220   20.2920   43.8350 O.2    25  ASP25      -0.2733
      5  CB         4.6060   22.2460   44.1330 C.3    25  ASP25       0.1423
      6  CG         3.9830   21.6530   45.3790 C.2    25  ASP25       0.3668
      7  OD1        4.5330   21.8410   46.4750 O.co2  25  ASP25      -0.2456
      8  OD2        2.9620   20.9610   45.3030 O.co2  25  ASP25      -0.2456
      9  N          7.5120   21.1390   45.8120 N.am   26  PRO26      -0.2718
     10  CA         8.2170   19.9150   46.1660 C.3    26  PRO26       0.1535
     11  C          7.2910   18.6830   46.2690 C.2    26  PRO26       0.2599
     12  O          7.7560   17.5580   46.1230 O.2    26  PRO26      -0.2715
     13  CB         8.8380   20.2690   47.5270 C.3    26  PRO26       0.0310
     14  CG         8.9090   21.7520   47.5350 C.3    26  PRO26       0.0237
     15  CD         7.6660   22.1650   46.8730 C.3    26  PRO26       0.0939
     16  N          5.9930   18.9040   46.4830 N.am   27  THR27      -0.1937
     17  CA         5.0260   17.8190   46.5050 C.3    27  THR27       0.2028
     18  C          4.2610   17.6620   45.1870 C.2    27  THR27       0.2642
     19  O          3.2030   17.0070   45.1410 O.2    27  THR27      -0.2714
     20  CB         4.0370   17.9620   47.6880 C.3    27  THR27       0.1808
     21  OG1        3.4460   19.2690   47.6960 O.3    27  THR27      -0.2208
     22  CG2        4.7660   17.6950   49.0250 C.3    27  THR27       0.0379
     23  N          4.7980   18.2630   44.1250 N.am   28  HIS28      -0.1973
     24  CA         4.3240   18.0050   42.7370 C.3    28  HIS28       0.1656
     25  C          2.8480   18.2990   42.4470 C.2    28  HIS28       0.2291
     26  O          2.2210   17.6240   41.6110 O.2    28  HIS28      -0.2864
     27  CB         4.7470   16.5960   42.2610 C.3    28  HIS28       0.0771
     28  CG         6.1740   16.2800   42.5830 C.ar   28  HIS28       0.0820
     29  ND1        6.5390   15.3930   43.5740 N.ar   28  HIS28      -0.2267
     30  CD2        7.3280   16.7830   42.0860 C.ar   28  HIS28       0.1154
     31  CE1        7.8560   15.3500   43.6610 C.ar   28  HIS28       0.1986
     32  NE2        8.3580   16.1850   42.7680 N.ar   28  HIS28      -0.2212
     33  N          3.2000   30.3750   49.0770 N.3    73  ARG73      -0.1245
     34  CA         3.8550   29.6160   50.1290 C.3    73  ARG73       0.1563
     35  C          4.7690   30.6000   50.8140 C.2    73  ARG73       0.2260
     36  O          5.7290   31.0680   50.1980 O.2    73  ARG73      -0.2867
     37  CB         4.6800   28.4530   49.5210 C.3    73  ARG73       0.0307
     38  CG         5.5670   27.7040   50.5240 C.3    73  ARG73       0.0489
     39  CD         6.0170   26.3940   49.9180 C.3    73  ARG73       0.2205
     40  NE         7.2200   25.8560   50.5480 N.pl3  73  ARG73      -0.0865
     41  CZ         7.5190   24.5680   50.6120 C.cat  73  ARG73       0.5346
     42  NH1        6.6940   23.6420   50.0880 N.pl3  73  ARG73       0.1354
     43  NH2        8.6400   24.2110   51.2090 N.pl3  73  ARG73       0.1354
     44  N         -4.8000   21.4910   49.3870 N.3    99  TRP99      -0.1241
     45  CA        -3.8720   20.8680   50.3300 C.3    99  TRP99       0.1605
     46  C         -3.1150   21.9890   51.0470 C.2    99  TRP99       0.2264
     47  O         -2.0050   22.3430   50.6630 O.2    99  TRP99      -0.2867
     48  CB        -2.9810   19.8440   49.6150 C.3    99  TRP99       0.0550
     49  CG        -1.9070   19.1690   50.4400 C.ar   99  TRP99       0.0003
     50  CD1       -1.7250   19.2300   51.8090 C.ar   99  TRP99       0.0946
     51  CD2       -0.8590   18.3260   49.9350 C.ar   99  TRP99       0.0152
     52  NE1       -0.6280   18.4770   52.1720 N.ar   99  TRP99      -0.2442
     53  CE2       -0.0730   17.9200   51.0430 C.ar   99  TRP99       0.0810
     54  CE3       -0.4970   17.8820   48.6490 C.ar   99  TRP99       0.0012
     55  CZ2        1.0550   17.0860   50.8990 C.ar   99  TRP99       0.0191
     56  CZ3        0.6190   17.0380   48.5110 C.ar   99  TRP99       0.0001
     57  CH2        1.3820   16.6640   49.6230 C.ar   99  TRP99       0.0015
     58  N         -1.2720   23.8360   54.4550 N.3   101  ALA101     -0.1245
     59  CA        -0.5240   23.4690   55.6430 C.3   101  ALA101      0.1562
     60  C          0.0420   24.6900   56.3530 C.2   101  ALA101      0.2260
     61  O          0.3650   25.6840   55.6980 O.2   101  ALA101     -0.2867
     62  CB         0.6360   22.4730   55.2940 C.3   101  ALA101      0.0290
     63  N          3.1770   24.6950   59.0560 N.3   103  TRP103     -0.1241
     64  CA         4.1860   23.7240   59.4260 C.3   103  TRP103      0.1605
     65  C          5.5760   24.3180   59.6790 C.2   103  TRP103      0.2264
     66  O          5.7920   25.5070   59.4910 O.2   103  TRP103     -0.2867
     67  CB         4.2270   22.5890   58.3880 C.3   103  TRP103      0.0550
     68  CG         4.5580   22.9740   56.9440 C.ar  103  TRP103      0.0003
     69  CD1        3.8700   23.8470   56.1380 C.ar  103  TRP103      0.0946
     70  CD2        5.6230   22.4470   56.1480 C.ar  103  TRP103      0.0152
     71  NE1        4.4480   23.9030   54.8980 N.ar  103  TRP103     -0.2442
     72  CE2        5.5260   23.0500   54.8700 C.ar  103  TRP103      0.0810
     73  CE3        6.6410   21.4930   56.3790 C.ar  103  TRP103      0.0012
     74  CZ2        6.4200   22.7490   53.8210 C.ar  103  TRP103      0.0191
     75  CZ3        7.5300   21.1730   55.3120 C.ar  103  TRP103      0.0001
     76  CH2        7.4100   21.8020   54.0610 C.ar  103  TRP103      0.0015
     77  N          9.9430   23.3950   59.1630 N.3   105  THR105     -0.1218
     78  CA        10.9420   22.5230   58.5380 C.3   105  THR105      0.1862
     79  C         12.2500   23.2890   58.3340 C.2   105  THR105      0.2287
     80  O         12.2900   24.5110   58.4780 O.2   105  THR105     -0.2866
     81  CB        10.4200   21.9600   57.1500 C.3   105  THR105      0.1770
     82  OG1       11.1630   20.8080   56.7550 O.3   105  THR105     -0.2211
     83  CG2       10.4890   23.0010   56.0510 C.3   105  THR105      0.0375
     84  N         14.2460   23.3580   55.0100 N.3   107  GLU107     -0.1245
     85  CA        14.1720   22.8480   53.6330 C.3   107  GLU107      0.1567
     86  C         15.5190   22.3840   53.1290 C.2   107  GLU107      0.2260
     87  O         15.5900   21.4610   52.3180 O.2   107  GLU107     -0.2867
     88  CB        13.6060   23.8860   52.6670 C.3   107  GLU107      0.0388
     89  CG        12.1310   24.1860   52.8800 C.3   107  GLU107      0.1160
     90  CD        11.7730   25.5550   52.3490 C.2   107  GLU107      0.3649
     91  OE1       12.3120   26.5410   52.8990 O.co2 107  GLU107     -0.2457
     92  OE2       10.9790   25.6390   51.3830 O.co2 107  GLU107     -0.2457
     93  N         16.1480   18.5960   54.3940 N.3   110  TRP110     -0.1228
     94  CA        14.9760   17.7230   54.5150 C.3   110  TRP110      0.1722
     95  C         15.3380   16.3020   54.0160 C.2   110  TRP110      0.2437
     96  O         15.9900   16.1660   52.9730 O.2   110  TRP110     -0.2733
     97  CB        13.7590   18.3120   53.7620 C.3   110  TRP110      0.0563
     98  CG        12.4450   17.6550   54.1730 C.ar  110  TRP110      0.0003
     99  CD1       11.5560   18.1190   55.1060 C.ar  110  TRP110      0.0946
    100  CD2       11.9020   16.4000   53.6950 C.ar  110  TRP110      0.0152
    101  NE1       10.4970   17.2510   55.2350 N.ar  110  TRP110     -0.2442
    102  CE2       10.6740   16.1900   54.3840 C.ar  110  TRP110      0.0810
    103  CE3       12.3220   15.4490   52.7460 C.ar  110  TRP110      0.0012
    104  CZ2        9.8540   15.0510   54.1600 C.ar  110  TRP110      0.0191
    105  CZ3       11.5150   14.3150   52.5210 C.ar  110  TRP110      0.0001
    106  CH2       10.2900   14.1330   53.2250 C.ar  110  TRP110      0.0015
    107  N         14.9500   15.2470   54.7740 N.am  111  PRO111     -0.2729
    108  CA        14.1780   15.2330   56.0340 C.3   111  PRO111      0.1401
    109  C         14.9770   15.2910   57.3550 C.2   111  PRO111      0.2269
    110  O         14.3840   15.1370   58.4370 O.2   111  PRO111     -0.2865
    111  CB        13.4420   13.8880   55.9520 C.3   111  PRO111      0.0296
    112  CG        14.4430   12.9830   55.2540 C.3   111  PRO111      0.0237
    113  CD        15.2430   13.8720   54.3040 C.3   111  PRO111      0.0939
    114  N         10.5000   17.7820   60.0140 N.3   115  SER115     -0.1217
    115  CA         9.3750   18.6440   59.7110 C.3   115  SER115      0.1889
    116  C          8.2050   18.2890   60.6540 C.2   115  SER115      0.2288
    117  O          8.0080   17.1310   60.9830 O.2   115  SER115     -0.2866
    118  CB         9.0160   18.6310   58.2000 C.3   115  SER115      0.2089
    119  OG         8.4540   17.4260   57.7280 O.3   115  SER115     -0.2183
    120  N          4.0980   19.1570   61.0620 N.3   117  ASP117     -0.1239
    121  CA         2.8650   19.7490   60.5490 C.3   117  ASP117      0.1674
    122  C          1.9140   20.0200   61.7070 C.2   117  ASP117      0.2266
    123  O          1.6150   19.1200   62.4950 O.2   117  ASP117     -0.2867
    124  CB         2.1870   18.8420   59.5160 C.3   117  ASP117      0.1410
    125  CG         3.0050   18.6880   58.2490 C.2   117  ASP117      0.3668
    126  OD1        2.8950   19.5500   57.3540 O.co2 117  ASP117     -0.2456
    127  OD2        3.7470   17.6950   58.1530 O.co2 117  ASP117     -0.2456
    128  N         -2.7490   20.5260   58.6970 N.3   120  GLU120     -0.1245
    129  CA        -2.6160   19.9140   57.3890 C.3   120  GLU120      0.1567
    130  C         -3.7850   18.9780   57.1270 C.2   120  GLU120      0.2260
    131  O         -4.2700   18.2870   58.0310 O.2   120  GLU120     -0.2867
    132  CB        -1.3160   19.1150   57.2810 C.3   120  GLU120      0.0388
    133  CG        -0.8580   18.8930   55.8350 C.3   120  GLU120      0.1160
    134  CD         0.2590   17.8600   55.7310 C.2   120  GLU120      0.3649
    135  OE1        0.5930   17.2230   56.7600 O.co2 120  GLU120     -0.2457
    136  OE2        0.8140   17.6870   54.6350 O.co2 120  GLU120     -0.2457
    137  N         -4.6780   16.6720   60.7940 N.3   129  ALA129     -0.1245
    138  CA        -3.5400   15.7950   61.0720 C.3   129  ALA129      0.1562
    139  C         -2.3210   16.6320   61.5040 C.2   129  ALA129      0.2260
    140  O         -2.0040   17.6950   60.9020 O.2   129  ALA129     -0.2867
    141  CB        -3.2090   14.8950   59.8330 C.3   129  ALA129      0.0290
    142  N          1.6860   15.8380   62.2200 N.3   131  THR131     -0.1218
    143  CA         2.6070   14.8090   61.7290 C.3   131  THR131      0.1862
    144  C          4.0600   15.2740   61.7660 C.2   131  THR131      0.2287
    145  O          4.3660   16.4260   61.4280 O.2   131  THR131     -0.2866
    146  CB         2.2570   14.3770   60.2540 C.3   131  THR131      0.1770
    147  OG1        0.8440   14.2430   60.1270 O.3   131  THR131     -0.2211
    148  CG2        2.9340   13.0170   59.8650 C.3   131  THR131      0.0375
    149  N          7.8790   14.3040   60.2030 N.3   133  HIS133     -0.1241
    150  CA         8.6800   13.5340   59.2530 C.3   133  HIS133      0.1621
    151  C         10.1300   13.6660   59.6460 C.2   133  HIS133      0.2264
    152  O         10.6320   14.7930   59.8310 O.2   133  HIS133     -0.2867
    153  CB         8.4700   14.0540   57.8200 C.3   133  HIS133      0.0745
    154  CG         7.0590   13.9280   57.3430 C.ar  133  HIS133      0.0817
    155  ND1        6.6640   12.9680   56.4370 N.ar  133  HIS133     -0.2268
    156  CD2        5.9460   14.6300   57.6610 C.ar  133  HIS133      0.1154
    157  CE1        5.3660   13.0890   56.2120 C.ar  133  HIS133      0.1986
    158  NE2        4.9100   14.0940   56.9370 N.ar  133  HIS133     -0.2212
    159  N         -0.1450    6.5510   62.0110 N.3   152  ASN152     -0.1240
    160  CA         1.1730    5.9630   61.7740 C.3   152  ASN152      0.1653
    161  C          2.1580    6.3630   62.8930 C.2   152  ASN152      0.2266
    162  O          2.1720    7.5000   63.2990 O.2   152  ASN152     -0.2867
    163  CB         1.6490    6.3850   60.3820 C.3   152  ASN152      0.1155
    164  CG         0.5550    6.1520   59.2890 C.2   152  ASN152      0.2627
    165  OD1       -0.1130    7.1050   58.8140 O.2   152  ASN152     -0.2716
    166  ND2        0.3480    4.8790   58.9260 N.am  152  ASN152     -0.0877
    167  N          6.7700    5.0080   54.0070 N.3   161  GLY161     -0.1210
    168  CA         6.0330    5.3440   52.7760 C.3   161  GLY161      0.1956
    169  C          5.6910    6.8240   52.7490 C.2   161  GLY161      0.2612
    170  O          4.6960    7.2510   52.1280 O.2   161  GLY161     -0.2717
    171  N          6.5210    7.6020   53.4590 N.am  162  ASN162     -0.1960
    172  CA         6.3900    9.0560   53.5620 C.3   162  ASN162      0.1819
    173  C          5.1090    9.5420   54.2570 C.2   162  ASN162      0.2621
    174  O          4.7370   10.7150   54.1460 O.2   162  ASN162     -0.2715
    175  CB         6.5750    9.7100   52.1730 C.3   162  ASN162      0.1195
    176  CG         6.9510   11.1750   52.2630 C.2   162  ASN162      0.2630
    177  OD1        7.6350   11.6160   53.2130 O.2   162  ASN162     -0.2716
    178  ND2        6.4900   11.9530   51.2820 N.am  162  ASN162     -0.0877
    179  N          4.4370    8.6600   54.9870 N.am  163  THR163     -0.1951
    180  CA         3.3070    9.1190   55.8080 C.3   163  THR163      0.1897
    181  C          3.7490    9.9830   57.0170 C.2   163  THR163      0.2313
    182  O          2.9630   10.8140   57.5030 O.2   163  THR163     -0.2863
    183  CB         2.4700    7.9780   56.3670 C.3   163  THR163      0.1794
    184  OG1        3.2740    7.2610   57.3100 O.3   163  THR163     -0.2208
    185  CG2        1.9470    7.0320   55.2470 C.3   163  THR163      0.0378
    186  N          1.2010   27.5720   53.5500 N.3   250  ASN250     -0.1240
    187  CA         1.0920   27.4230   52.0940 C.3   250  ASN250      0.1653
    188  C         -0.2240   26.8270   51.7010 C.2   250  ASN250      0.2266
    189  O         -0.9910   26.3780   52.5540 O.2   250  ASN250     -0.2867
    190  CB         2.2390   26.5370   51.5300 C.3   250  ASN250      0.1155
    191  CG         2.1330   25.0840   51.9710 C.2   250  ASN250      0.2627
    192  OD1        2.4920   24.7350   53.1130 O.2   250  ASN250     -0.2716
    193  ND2        1.6230   24.2210   51.0690 N.am  250  ASN250     -0.0877
    194  N         -1.1870   24.1970   48.4170 N.3   252  THR252     -0.1218
    195  CA        -1.0010   23.5650   47.1170 C.3   252  THR252      0.1862
    196  C         -2.2800   22.8420   46.7300 C.2   252  THR252      0.2287
    197  O         -3.2750   22.8790   47.4760 O.2   252  THR252     -0.2866
    198  CB         0.3070   22.6720   47.0250 C.3   252  THR252      0.1770
    199  OG1        0.5000   22.2450   45.6730 O.3   252  THR252     -0.2211
    200  CG2        0.2420   21.4650   47.9370 C.3   252  THR252      0.0375
    201  N          1.3070   14.8950   45.3810 N.3   256  ASP256     -0.1225
    202  CA         1.6570   13.5430   45.8750 C.3   256  ASP256      0.1805
    203  C          0.6850   12.9090   46.8770 C.2   256  ASP256      0.2597
    204  O          0.5240   11.6910   46.8990 O.2   256  ASP256     -0.2718
    205  CB         3.1080   13.5150   46.3550 C.3   256  ASP256      0.1424
    206  CG         4.0970   13.7640   45.2100 C.2   256  ASP256      0.3668
    207  OD1        3.6980   13.6080   44.0290 O.co2 256  ASP256     -0.2456
    208  OD2        5.2600   14.1060   45.4780 O.co2 256  ASP256     -0.2456
    209  N         -0.0040   13.7420   47.6600 N.am  257  TRP257     -0.1976
    210  CA        -1.0220   13.2490   48.5690 C.3   257  TRP257      0.1640
    211  C         -2.4540   13.5270   48.0600 C.2   257  TRP257      0.2290
    212  O         -3.1750   12.5830   47.6690 O.2   257  TRP257     -0.2864
    213  CB        -0.7610   13.7900   49.9890 C.3   257  TRP257      0.0576
    214  CG        -1.7340   13.3240   51.0580 C.ar  257  TRP257      0.0006
    215  CD1       -2.5870   12.2380   50.9990 C.ar  257  TRP257      0.0946
    216  CD2       -1.9200   13.9040   52.3570 C.ar  257  TRP257      0.0152
    217  NE1       -3.3080   12.1360   52.1670 N.ar  257  TRP257     -0.2442
    218  CE2       -2.9150   13.1360   53.0210 C.ar  257  TRP257      0.0810
    219  CE3       -1.3770   15.0250   53.0090 C.ar  257  TRP257      0.0012
    220  CZ2       -3.3720   13.4510   54.3090 C.ar  257  TRP257      0.0191
    221  CZ3       -1.8230   15.3270   54.2890 C.ar  257  TRP257      0.0001
    222  CH2       -2.8080   14.5420   54.9290 C.ar  257  TRP257      0.0015
    223  N         -3.8590   11.8360   44.5340 N.3   260  GLN260     -0.1245
    224  CA        -4.1160   10.4010   44.3510 C.3   260  GLN260      0.1566
    225  C         -5.6010   10.1910   44.1310 C.2   260  GLN260      0.2260
    226  O         -6.4130   10.6930   44.9020 O.2   260  GLN260     -0.2867
    227  CB        -3.6530    9.6080   45.5740 C.3   260  GLN260      0.0367
    228  CG        -2.1580    9.7650   45.9100 C.3   260  GLN260      0.0905
    229  CD        -1.7630    8.8950   47.0880 C.2   260  GLN260      0.2608
    230  OE1       -2.4420    7.9130   47.3730 O.2   260  GLN260     -0.2717
    231  NE2       -0.6820    9.2470   47.7800 N.am  260  GLN260     -0.0878
    232  N         -7.7350    8.8880   47.0610 N.3   263  ILE263     -0.1245
    233  CA        -7.8580    9.9270   48.0900 C.3   263  ILE263      0.1561
    234  C         -8.8010   11.0350   47.6370 C.2   263  ILE263      0.2260
    235  O         -9.7580   11.3570   48.3480 O.2   263  ILE263     -0.2867
    236  CB        -6.4650   10.4670   48.5010 C.3   263  ILE263      0.0252
    237  CG1       -5.5910    9.2630   48.9010 C.3   263  ILE263      0.0019
    238  CG2       -6.5930   11.6020   49.5870 C.3   263  ILE263      0.0019
    239  CD1       -4.2580    9.5660   49.5680 C.3   263  ILE263      0.0001
@<TRIPOS>BOND
     1    26    25    2
     2    30    28   ar
     3    30    32   ar
     4    27    28    1
     5    27    24    1
     6    25    24    1
     7    28    29   ar
     8    24    23    1
     9    32    31   ar
    10     1     2    1
    11    29    31   ar
    12     4     3    2
    13   207   206   ar
    14    23    18   am
    15   225   224    1
    16   225   226    2
    17     5     2    1
    18     5     6    1
    19     2     3    1
    20   224   223    1
    21   224   227    1
    22     3     9   am
    23    19    18    2
    24    18    17    1
    25   206   208   ar
    26   206   205    1
    27     8     6   ar
    28     6     7   ar
    29   201   202    1
    30   227   228    1
    31   199   198    1
    32     9    10    1
    33     9    15    1
    34   202   205    1
    35   202   203    1
    36   228   229    1
    37    12    11    2
    38    10    11    1
    39    10    13    1
    40    11    16   am
    41    16    17    1
    42    17    20    1
    43   196   195    1
    44   196   197    2
    45    15    14    1
    46   203   204    2
    47   203   209   am
    48   198   195    1
    49   198   200    1
    50   232   233    1
    51   229   230    2
    52   229   231   am
    53   195   194    1
    54    13    14    1
    55   234   233    1
    56   234   235    2
    57   209   210    1
    58   212   211    2
    59    20    21    1
    60    20    22    1
    61   211   210    1
    62   233   236    1
    63   236   237    1
    64   236   238    1
    65    56    54   ar
    66    56    57   ar
    67   210   213    1
    68    54    51   ar
    69   237   239    1
    70    33    34    1
    71    44    45    1
    72    37    34    1
    73    37    38    1
    74    48    45    1
    75    48    49    1
    76    57    55   ar
    77    39    38    1
    78    39    40    1
    79    51    49   ar
    80    51    53   ar
    81   213   214    1
    82    42    41    1
    83    34    35    1
    84    36    35    2
    85    45    46    1
    86    49    50   ar
    87    40    41    2
    88    41    43    1
    89    47    46    2
    90    55    53   ar
    91   215   214   ar
    92   215   217   ar
    93    53    52   ar
    94   214   216   ar
    95   193   191   am
    96   178   176   am
    97    92    90   ar
    98   190   191    1
    99   190   187    1
   100   188   187    1
   101   188   189    2
   102    50    52   ar
   103   191   192    2
   104   187   186    1
   105   170   169    2
   106   217   218   ar
   107   175   176    1
   108   175   172    1
   109   176   177    2
   110    87    86    2
   111    90    89    1
   112    90    91   ar
   113   216   219   ar
   114   216   218   ar
   115   105   103   ar
   116   105   106   ar
   117    88    89    1
   118    88    85    1
   119   103   100   ar
   120   169   168    1
   121   169   171   am
   122   168   167    1
   123    96    95    2
   124   219   221   ar
   125   218   220   ar
   126    86    85    1
   127   106   104   ar
   128   171   172    1
   129   172   173    1
   130    85    84    1
   131   100    98   ar
   132   100   102   ar
   133    97    98    1
   134    97    94    1
   135    74    76   ar
   136    74    72   ar
   137    95    94    1
   138    95   107   am
   139    76    75   ar
   140   174   173    2
   141   104   102   ar
   142    98    99   ar
   143   173   179   am
   144   221   222   ar
   145   113   107    1
   146   113   112    1
   147   220   222   ar
   148   102   101   ar
   149    93    94    1
   150    58    59    1
   151   136   134   ar
   152   107   108    1
   153    72    71   ar
   154    72    70   ar
   155    71    69   ar
   156   179   180    1
   157    99   101   ar
   158   185   183    1
   159   112   111    1
   160    62    59    1
   161    75    73   ar
   162    59    60    1
   163    61    60    2
   164   134   133    1
   165   134   135   ar
   166   180   183    1
   167   180   181    1
   168   133   132    1
   169   111   108    1
   170   108   109    1
   171    83    81    1
   172    69    68   ar
   173    70    73   ar
   174    70    68   ar
   175   157   155   ar
   176   157   158   ar
   177   183   184    1
   178   155   154   ar
   179    82    81    1
   180   158   156   ar
   181    68    67    1
   182   181   182    2
   183   130   129    1
   184   130   131    2
   185    81    78    1
   186   132   129    1
   187   154   156   ar
   188   154   153    1
   189   126   125   ar
   190   109   110    2
   191   129   128    1
   192   119   118    1
   193   153   150    1
   194   127   125   ar
   195   118   115    1
   196   125   124    1
   197    79    80    2
   198    79    78    1
   199    67    64    1
   200    78    77    1
   201   165   164    2
   202   166   164   am
   203    63    64    1
   204   150   151    1
   205   150   149    1
   206   164   163    1
   207    64    65    1
   208    66    65    2
   209   124   121    1
   210   151   152    2
   211   115   114    1
   212   115   116    1
   213   141   138    1
   214   148   146    1
   215   147   146    1
   216   146   143    1
   217   163   160    1
   218   121   120    1
   219   121   122    1
   220   116   117    2
   221   137   138    1
   222   140   139    2
   223   138   139    1
   224   145   144    2
   225   122   123    2
   226   143   144    1
   227   143   142    1
   228   160   159    1
   229   160   161    1
   230   161   162    2
