@<TRIPOS>MOLECULE
tmp/2wneA01.pdb
 83 77 0 0 0
SMALL
GASTEIGER

@<TRIPOS>ATOM
      1  N         -3.3600   40.2230   44.3440 N.3    43  ASN43      -0.1240
      2  CA        -4.1540   40.0680   45.5690 C.3    43  ASN43       0.1653
      3  C         -4.3170   38.6070   46.0290 C.2    43  ASN43       0.2266
      4  O         -5.3560   38.2290   46.5760 O.2    43  ASN43      -0.2867
      5  CB        -5.5090   40.7950   45.4320 C.3    43  ASN43       0.1155
      6  CG        -6.0580   41.2660   46.7570 C.2    43  ASN43       0.2627
      7  OD1       -5.3030   41.5720   47.6820 O.2    43  ASN43      -0.2716
      8  ND2       -7.3890   41.3060   46.8620 N.am   43  ASN43      -0.0877
      9  N         -2.8040   39.4350   50.8670 N.3    46  TYR46      -0.1241
     10  CA        -3.3280   40.6920   51.3520 C.3    46  TYR46       0.1605
     11  C         -2.9770   40.7890   52.8430 C.2    46  TYR46       0.2264
     12  O         -3.3230   39.9030   53.6380 O.2    46  TYR46      -0.2867
     13  CB        -4.8430   40.7290   51.1540 C.3    46  TYR46       0.0534
     14  CG        -5.4720   42.0190   51.6060 C.ar   46  TYR46      -0.0201
     15  CD1       -5.4370   43.1630   50.7930 C.ar   46  TYR46      -0.0009
     16  CD2       -6.0780   42.1070   52.8480 C.ar   46  TYR46      -0.0009
     17  CE1       -6.0290   44.3770   51.2200 C.ar   46  TYR46       0.0417
     18  CE2       -6.6480   43.2900   53.2870 C.ar   46  TYR46       0.0417
     19  CZ        -6.6250   44.4170   52.4800 C.ar   46  TYR46       0.1957
     20  OH        -7.2080   45.5800   52.9430 O.3    46  TYR46      -0.2866
     21  N         -2.7830   43.6140   55.8440 N.3    48  SER48      -0.1202
     22  CA        -3.1990   44.9550   56.2200 C.3    48  SER48       0.2020
     23  C         -4.0790   44.9270   57.4840 C.2    48  SER48       0.2619
     24  O         -4.9340   44.0580   57.6260 O.2    48  SER48      -0.2717
     25  CB        -3.9760   45.5740   55.0570 C.3    48  SER48       0.2103
     26  OG        -4.4060   46.8790   55.3780 O.3    48  SER48      -0.2182
     27  N         -3.8650   45.8730   58.3940 N.am   49  GLY49      -0.1942
     28  CA        -4.6460   45.9380   59.6410 C.3    49  GLY49       0.2014
     29  C         -4.3260   44.7390   60.5230 C.2    49  GLY49       0.2639
     30  O         -3.1570   44.4290   60.7250 O.2    49  GLY49      -0.2714
     31  N         -5.3530   44.0510   61.0260 N.am   50  ASP50      -0.1957
     32  CA        -5.1390   42.8120   61.7950 C.3    50  ASP50       0.1840
     33  C         -5.4510   41.5300   61.0040 C.2    50  ASP50       0.2622
     34  O         -5.9350   40.5390   61.5520 O.2    50  ASP50      -0.2715
     35  CB        -5.8970   42.8440   63.1260 C.3    50  ASP50       0.1450
     36  CG        -7.4310   42.9080   62.9490 C.2    50  ASP50       0.3671
     37  OD1       -7.9250   42.8980   61.7840 O.co2  50  ASP50      -0.2456
     38  OD2       -8.1280   42.9660   63.9950 O.co2  50  ASP50      -0.2456
     39  N         -5.1550   41.5720   59.7150 N.am   51  THR51      -0.1951
     40  CA        -5.4940   40.4920   58.8000 C.3    51  THR51       0.1897
     41  C         -4.3320   40.1530   57.8420 C.2    51  THR51       0.2313
     42  O         -3.7130   41.0340   57.2390 O.2    51  THR51      -0.2863
     43  CB        -6.8050   40.8060   58.0180 C.3    51  THR51       0.1794
     44  OG1       -7.8490   41.1100   58.9460 O.3    51  THR51      -0.2208
     45  CG2       -7.2500   39.6220   57.1550 C.3    51  THR51       0.0378
     46  N         -4.3460   37.6030   54.5470 N.3    53  ILE53      -0.1245
     47  CA        -5.0260   36.6970   53.6340 C.3    53  ILE53       0.1561
     48  C         -3.9970   36.0540   52.6800 C.2    53  ILE53       0.2260
     49  O         -3.1690   36.7430   52.0880 O.2    53  ILE53      -0.2867
     50  CB        -6.1740   37.3650   52.7970 C.3    53  ILE53       0.0252
     51  CG1       -7.2190   38.0660   53.6840 C.3    53  ILE53       0.0019
     52  CG2       -6.8460   36.3310   51.8540 C.3    53  ILE53       0.0019
     53  CD1       -7.9800   37.1480   54.6160 C.3    53  ILE53       0.0001
     54  N         -4.3340   33.2660   49.5910 N.3    55  ARG55      -0.1245
     55  CA        -5.3550   32.5580   48.8160 C.3    55  ARG55       0.1563
     56  C         -4.8550   32.0610   47.4670 C.2    55  ARG55       0.2260
     57  O         -3.7680   32.4320   47.0020 O.2    55  ARG55      -0.2867
     58  CB        -6.5850   33.4520   48.5900 C.3    55  ARG55       0.0307
     59  CG        -6.3850   34.5000   47.4920 C.3    55  ARG55       0.0489
     60  CD        -7.6840   35.0830   47.0090 C.3    55  ARG55       0.2205
     61  NE        -8.3590   35.8790   48.0320 N.pl3  55  ARG55      -0.0865
     62  CZ        -9.5270   35.5800   48.5990 C.cat  55  ARG55       0.5346
     63  NH1      -10.2000   34.4760   48.2730 N.pl3  55  ARG55       0.1354
     64  NH2      -10.0200   36.4140   49.5070 N.pl3  55  ARG55       0.1354
     65  N         -8.5370   32.4190   61.4760 N.3    90  ARG90      -0.1245
     66  CA        -9.9780   32.6180   61.3180 C.3    90  ARG90       0.1563
     67  C        -10.5780   31.7140   60.2580 C.2    90  ARG90       0.2260
     68  O        -11.7460   31.2970   60.3760 O.2    90  ARG90      -0.2867
     69  CB       -10.3000   34.0900   60.9960 C.3    90  ARG90       0.0307
     70  CG        -9.7030   35.1040   61.9890 C.3    90  ARG90       0.0489
     71  CD       -10.1730   36.5110   61.6030 C.3    90  ARG90       0.2205
     72  NE        -9.5660   37.5820   62.3930 N.pl3  90  ARG90      -0.0865
     73  CZ        -8.6680   38.4600   61.9390 C.cat  90  ARG90       0.5346
     74  NH1       -8.2250   38.4070   60.6800 N.pl3  90  ARG90       0.1354
     75  NH2       -8.2050   39.3920   62.7580 N.pl3  90  ARG90       0.1354
     76  N         -7.1830   32.9820   56.4460 N.3   290  ASP290     -0.1239
     77  CA        -7.3680   34.2900   57.0970 C.3   290  ASP290      0.1674
     78  C         -6.7290   34.1490   58.4650 C.2   290  ASP290      0.2266
     79  O         -7.2450   33.4710   59.3410 O.2   290  ASP290     -0.2867
     80  CB        -8.8540   34.6960   57.1700 C.3   290  ASP290      0.1410
     81  CG        -9.1030   36.0400   57.8980 C.2   290  ASP290      0.3668
     82  OD1       -8.2230   36.5820   58.6180 O.co2 290  ASP290     -0.2456
     83  OD2      -10.2330   36.5620   57.7460 O.co2 290  ASP290     -0.2456
@<TRIPOS>BOND
     1     1     2    1
     2     5     2    1
     3     5     6    1
     4     2     3    1
     5     3     4    2
     6     6     8   am
     7     6     7    2
     8    57    56    2
     9    60    59    1
    10    60    61    1
    11    56    55    1
    12    59    58    1
    13    61    62    2
    14    63    62    1
    15    58    55    1
    16    62    64    1
    17    55    54    1
    18    15    17   ar
    19    15    14   ar
    20     9    10    1
    21    13    10    1
    22    13    14    1
    23    17    19   ar
    24    10    11    1
    25    14    16   ar
    26    52    50    1
    27    49    48    2
    28    19    20    1
    29    19    18   ar
    30    48    47    1
    31    50    47    1
    32    50    51    1
    33    11    12    2
    34    16    18   ar
    35    47    46    1
    36    51    53    1
    37    25    26    1
    38    25    22    1
    39    21    22    1
    40    22    23    1
    41    76    77    1
    42    77    80    1
    43    77    78    1
    44    45    43    1
    45    80    81    1
    46    42    41    2
    47    23    24    2
    48    23    27   am
    49    83    81   ar
    50    41    40    1
    51    81    82   ar
    52    43    40    1
    53    43    44    1
    54    27    28    1
    55    78    79    2
    56    40    39    1
    57    28    29    1
    58    39    33   am
    59    67    68    2
    60    67    66    1
    61    29    30    2
    62    29    31   am
    63    74    73    1
    64    69    66    1
    65    69    70    1
    66    33    34    2
    67    33    32    1
    68    31    32    1
    69    66    65    1
    70    71    70    1
    71    71    72    1
    72    37    36   ar
    73    32    35    1
    74    73    72    2
    75    73    75    1
    76    36    35    1
    77    36    38   ar
