@<TRIPOS>MOLECULE
tmp/2wnjB00.pdb
 90 91 0 0 0
SMALL
GASTEIGER

@<TRIPOS>ATOM
      1  N         11.7730   22.1440   65.9540 N.3    97  TYR97      -0.1241
      2  CA        13.2300   22.1490   65.9190 C.3    97  TYR97       0.1605
      3  C         13.8920   21.6900   67.2230 C.2    97  TYR97       0.2264
      4  O         15.1150   21.6140   67.2880 O.2    97  TYR97      -0.2867
      5  CB        13.7670   23.5440   65.5320 C.3    97  TYR97       0.0534
      6  CG        13.4620   24.0010   64.1080 C.ar   97  TYR97      -0.0201
      7  CD1       12.9380   23.1260   63.1560 C.ar   97  TYR97      -0.0009
      8  CD2       13.7490   25.3050   63.7020 C.ar   97  TYR97      -0.0009
      9  CE1       12.6860   23.5280   61.8520 C.ar   97  TYR97       0.0417
     10  CE2       13.4940   25.7310   62.3780 C.ar   97  TYR97       0.0417
     11  CZ        12.9560   24.8330   61.4670 C.ar   97  TYR97       0.1957
     12  OH        12.6810   25.2130   60.1620 O.3    97  TYR97      -0.2866
     13  N          9.9930   24.5410   58.1550 N.3   150  SER150     -0.1202
     14  CA        10.4780   23.5370   57.2380 C.3   150  SER150      0.2020
     15  C         11.8500   23.0500   57.7450 C.2   150  SER150      0.2619
     16  O         12.6530   23.8370   58.2320 O.2   150  SER150     -0.2717
     17  CB        10.6560   24.1400   55.8460 C.3   150  SER150      0.2103
     18  OG        11.1820   23.1420   54.9750 O.3   150  SER150     -0.2182
     19  N         12.1120   21.7710   57.5960 N.am  151  TRP151     -0.1961
     20  CA        13.4250   21.2420   57.9260 C.3   151  TRP151      0.1771
     21  C         14.3750   21.4840   56.7740 C.2   151  TRP151      0.2619
     22  O         15.5260   21.8320   57.0000 O.2   151  TRP151     -0.2715
     23  CB        13.3370   19.7370   58.1880 C.3   151  TRP151      0.0590
     24  CG        14.6040   19.1470   58.7290 C.ar  151  TRP151      0.0006
     25  CD1       15.3560   18.1740   58.1590 C.ar  151  TRP151      0.0946
     26  CD2       15.2480   19.4800   59.9670 C.ar  151  TRP151      0.0152
     27  NE1       16.4500   17.8750   58.9550 N.ar  151  TRP151     -0.2442
     28  CE2       16.4020   18.6520   60.0760 C.ar  151  TRP151      0.0810
     29  CE3       14.9520   20.3640   61.0090 C.ar  151  TRP151      0.0012
     30  CZ2       17.2780   18.7160   61.1680 C.ar  151  TRP151      0.0191
     31  CZ3       15.8530   20.4540   62.1010 C.ar  151  TRP151      0.0001
     32  CH2       16.9890   19.6000   62.1720 C.ar  151  TRP151      0.0015
     33  N         13.8880   21.2990   55.5490 N.am  152  VAL152     -0.1977
     34  CA        14.7780   21.2350   54.3690 C.3   152  VAL152      0.1596
     35  C         14.7270   22.4030   53.4100 C.2   152  VAL152      0.2287
     36  O         15.6310   22.5260   52.5730 O.2   152  VAL152     -0.2864
     37  CB        14.5720   19.9210   53.5590 C.3   152  VAL152      0.0276
     38  CG1       14.7820   18.7000   54.4560 C.3   152  VAL152      0.0022
     39  CG2       13.1890   19.8790   52.8680 C.3   152  VAL152      0.0022
     40  N         21.4320   30.5890   60.0300 N.3   192  TYR192     -0.1227
     41  CA        22.2280   29.5360   60.6450 C.3   192  TYR192      0.1736
     42  C         23.5820   29.4460   59.9910 C.2   192  TYR192      0.2596
     43  O         23.7340   29.7460   58.8090 O.2   192  TYR192     -0.2718
     44  CB        21.5180   28.1920   60.5930 C.3   192  TYR192      0.0548
     45  CG        20.2410   28.1460   61.3790 C.ar  192  TYR192     -0.0200
     46  CD1       20.2420   28.3230   62.7470 C.ar  192  TYR192     -0.0009
     47  CD2       19.0310   27.9230   60.7550 C.ar  192  TYR192     -0.0009
     48  CE1       19.0530   28.2870   63.4740 C.ar  192  TYR192      0.0417
     49  CE2       17.8570   27.8680   61.4670 C.ar  192  TYR192      0.0417
     50  CZ        17.8740   28.0760   62.8270 C.ar  192  TYR192      0.1957
     51  OH        16.6700   28.0080   63.5120 O.3   192  TYR192     -0.2866
     52  N         24.5700   29.0490   60.7910 N.am  193  SER193     -0.1938
     53  CA        25.9820   28.9760   60.3710 C.3   193  SER193      0.2055
     54  C         26.1450   28.0430   59.1660 C.2   193  SER193      0.2643
     55  O         26.8340   28.3820   58.1990 O.2   193  SER193     -0.2714
     56  CB        26.8230   28.4500   61.5300 C.3   193  SER193      0.2130
     57  OG        26.1190   27.3800   62.1830 O.3   193  SER193     -0.2179
     58  N         25.4630   26.8930   59.2370 N.am  194  CYS194     -0.1953
     59  CA        25.4820   25.8590   58.1810 C.3   194  CYS194      0.1843
     60  C         25.2600   26.3740   56.7720 C.2   194  CYS194      0.2625
     61  O         25.8270   25.8540   55.8020 O.2   194  CYS194     -0.2714
     62  CB        24.3950   24.7960   58.4360 C.3   194  CYS194      0.0997
     63  SG        22.6080   25.2960   58.2340 S.3   194  CYS194     -0.0797
     64  N         24.4100   27.3850   56.6630 N.am  195  CYS195     -0.1968
     65  CA        23.7230   27.6450   55.4290 C.3   195  CYS195      0.1712
     66  C         23.6870   29.1400   55.0940 C.2   195  CYS195      0.2296
     67  O         23.3170   29.9480   55.9380 O.2   195  CYS195     -0.2864
     68  CB        22.3180   27.0970   55.6000 C.3   195  CYS195      0.0983
     69  SG        22.2480   25.3360   56.2130 S.3   195  CYS195     -0.0798
     70  N         21.5510   30.7170   53.1800 N.3   197  GLU197     -0.1245
     71  CA        20.1890   31.2130   53.0050 C.3   197  GLU197      0.1567
     72  C         19.4950   31.1810   54.3690 C.2   197  GLU197      0.2260
     73  O         19.6220   30.1870   55.0940 O.2   197  GLU197     -0.2867
     74  CB        19.3710   30.3630   52.0180 C.3   197  GLU197      0.0388
     75  CG        20.1580   29.2880   51.2670 C.3   197  GLU197      0.1160
     76  CD        20.6460   28.1670   52.1960 C.2   197  GLU197      0.3649
     77  OE1       21.8610   27.9140   52.2130 O.co2 197  GLU197     -0.2457
     78  OE2       19.8260   27.5580   52.9310 O.co2 197  GLU197     -0.2457
     79  N         16.5170   30.7660   57.1280 N.3   199  TYR199     -0.1241
     80  CA        15.4180   29.8620   57.3890 C.3   199  TYR199      0.1605
     81  C         14.3270   30.6230   58.1750 C.2   199  TYR199      0.2264
     82  O         14.5970   31.5690   58.9320 O.2   199  TYR199     -0.2867
     83  CB        15.9050   28.5820   58.1030 C.3   199  TYR199      0.0534
     84  CG        16.5170   27.5740   57.1380 C.ar  199  TYR199     -0.0201
     85  CD1       15.9230   26.3180   56.9070 C.ar  199  TYR199     -0.0009
     86  CD2       17.6440   27.8920   56.4230 C.ar  199  TYR199     -0.0009
     87  CE1       16.4990   25.4140   55.9860 C.ar  199  TYR199      0.0417
     88  CE2       18.2060   27.0190   55.4970 C.ar  199  TYR199      0.0417
     89  CZ        17.6320   25.7750   55.2810 C.ar  199  TYR199      0.1957
     90  OH        18.2260   24.9060   54.3360 O.3   199  TYR199     -0.2866
@<TRIPOS>BOND
     1    75    74    1
     2    75    76    1
     3    74    71    1
     4    76    77   ar
     5    76    78   ar
     6    36    35    2
     7    39    37    1
     8    71    70    1
     9    71    72    1
    10    35    34    1
    11    37    34    1
    12    37    38    1
    13    90    89    1
    14    72    73    2
    15    34    33    1
    16    18    17    1
    17    66    65    1
    18    66    67    2
    19    89    88   ar
    20    89    87   ar
    21    65    68    1
    22    65    64    1
    23    88    86   ar
    24    33    21   am
    25    68    69    1
    26    61    60    2
    27    17    14    1
    28    87    85   ar
    29    69    63    1
    30    86    84   ar
    31    64    60   am
    32    60    59    1
    33    21    22    2
    34    21    20    1
    35    85    84   ar
    36    79    80    1
    37    84    83    1
    38    14    15    1
    39    14    13    1
    40    80    83    1
    41    80    81    1
    42    19    15   am
    43    19    20    1
    44    15    16    2
    45    20    23    1
    46    25    24   ar
    47    25    27   ar
    48    81    82    2
    49    59    62    1
    50    59    58    1
    51    23    24    1
    52    55    54    2
    53    63    62    1
    54    24    26   ar
    55    43    42    2
    56    27    28   ar
    57    54    58   am
    58    54    53    1
    59    26    28   ar
    60    26    29   ar
    61    42    41    1
    62    42    52   am
    63    40    41    1
    64    28    30   ar
    65    12    11    1
    66    53    52    1
    67    53    56    1
    68    44    41    1
    69    44    45    1
    70    47    45   ar
    71    47    49   ar
    72    29    31   ar
    73    30    32   ar
    74    45    46   ar
    75    49    50   ar
    76    11     9   ar
    77    11    10   ar
    78    56    57    1
    79     9     7   ar
    80    31    32   ar
    81    10     8   ar
    82    46    48   ar
    83    50    48   ar
    84    50    51    1
    85     7     6   ar
    86     8     6   ar
    87     6     5    1
    88     5     2    1
    89     2     1    1
    90     2     3    1
    91     3     4    2
