@<TRIPOS>MOLECULE
tmp/2wnnB01.pdb
 100 95 0 0 0
SMALL
GASTEIGER

@<TRIPOS>ATOM
      1  N         -8.8260  -43.5200   17.7410 N.3   137  ASN137     -0.1240
      2  CA        -8.8710  -42.2910   18.5320 C.3   137  ASN137      0.1653
      3  C         -7.4180  -42.0630   18.9880 C.2   137  ASN137      0.2266
      4  O         -6.8550  -42.8800   19.7120 O.2   137  ASN137     -0.2867
      5  CB        -9.8550  -42.4620   19.7070 C.3   137  ASN137      0.1155
      6  CG        -9.7340  -41.3610   20.7580 C.2   137  ASN137      0.2627
      7  OD1       -9.7200  -41.6410   21.9740 O.2   137  ASN137     -0.2716
      8  ND2       -9.6260  -40.1150   20.3050 N.am  137  ASN137     -0.0877
      9  N         -5.8450  -38.7280   20.3190 N.2   139  PRO139     -0.2571
     10  CA        -5.9520  -37.2830   20.5270 C.3   139  PRO139      0.2026
     11  C         -4.6300  -36.4980   20.5210 C.2   139  PRO139      0.2683
     12  O         -4.6090  -35.3290   20.1350 O.2   139  PRO139     -0.2709
     13  CB        -6.6940  -37.1530   21.8470 C.2   139  PRO139      0.0085
     14  CG        -6.8860  -38.5040   22.4020 C.2   139  PRO139      0.0180
     15  CD        -6.4380  -39.5250   21.4060 C.2   139  PRO139      0.0938
     16  N         -3.5330  -37.1280   20.9320 N.am  140  ALA140     -0.1973
     17  CA        -2.2390  -36.4250   21.0100 C.3   140  ALA140      0.1597
     18  C         -1.7420  -36.0060   19.6290 C.2   140  ALA140      0.2287
     19  O         -1.0050  -35.0240   19.5110 O.2   140  ALA140     -0.2864
     20  CB        -1.1920  -37.3150   21.7170 C.3   140  ALA140      0.0319
     21  N        -10.3740  -34.1160   20.5730 N.3   145  LYS145     -0.1231
     22  CA       -10.5880  -34.5170   21.9560 C.3   145  LYS145      0.1693
     23  C        -12.0250  -35.0120   22.1680 C.2   145  LYS145      0.2591
     24  O        -12.9520  -34.2150   22.3270 O.2   145  LYS145     -0.2718
     25  CB       -10.2410  -33.3320   22.8710 C.3   145  LYS145      0.0285
     26  CG        -8.7440  -32.9590   22.8210 C.3   145  LYS145      0.0035
     27  CD        -8.4660  -31.5000   23.1390 C.3   145  LYS145      0.0206
     28  CE        -7.0170  -31.1080   22.8040 C.3   145  LYS145      0.1093
     29  NZ        -6.5960  -31.4510   21.4050 N.3   145  LYS145     -0.1314
     30  N        -12.2050  -36.3270   22.1360 N.am  146  LEU146     -0.1980
     31  CA       -13.5480  -36.9010   22.2290 C.3   146  LEU146      0.1596
     32  C        -13.9190  -37.0410   23.6900 C.2   146  LEU146      0.2287
     33  O        -13.1130  -37.5140   24.4960 O.2   146  LEU146     -0.2864
     34  CB       -13.6380  -38.2560   21.5040 C.3   146  LEU146      0.0297
     35  CG       -13.3620  -38.2300   19.9860 C.3   146  LEU146      0.0022
     36  CD1      -13.3000  -39.6310   19.3850 C.3   146  LEU146      0.0001
     37  CD2      -14.3950  -37.3760   19.2450 C.3   146  LEU146      0.0001
     38  N         -5.7480  -45.0240   21.4390 N.3   165  THR165     -0.1203
     39  CA        -4.3940  -44.5540   21.6270 C.3   165  THR165      0.1994
     40  C         -4.5170  -43.3340   22.5410 C.2   165  THR165      0.2619
     41  O         -4.4140  -42.1710   22.1210 O.2   165  THR165     -0.2717
     42  CB        -3.6880  -44.3540   20.2720 C.3   165  THR165      0.1784
     43  OG1       -3.6210  -45.5970   19.5530 O.3   165  THR165     -0.2211
     44  CG2       -2.2800  -43.8230   20.4710 C.3   165  THR165      0.0376
     45  N         -4.8580  -43.6430   23.7810 N.am  166  SER166     -0.1937
     46  CA        -4.9590  -42.6740   24.8620 C.3   166  SER166      0.2055
     47  C         -4.4180  -43.2850   26.1400 C.2   166  SER166      0.2644
     48  O         -4.6190  -44.4750   26.4040 O.2   166  SER166     -0.2714
     49  CB        -6.4090  -42.2510   25.0860 C.3   166  SER166      0.2130
     50  OG        -6.5540  -41.5890   26.3410 O.3   166  SER166     -0.2179
     51  N         -3.7420  -42.4380   26.9220 N.am  167  GLY167     -0.1939
     52  CA        -3.1620  -42.8290   28.2080 C.3   167  GLY167      0.2014
     53  C         -4.1170  -42.6750   29.3670 C.2   167  GLY167      0.2638
     54  O         -3.7340  -42.8750   30.5100 O.2   167  GLY167     -0.2714
     55  N         -5.3610  -42.2750   29.0800 N.am  168  ASP168     -0.1971
     56  CA        -6.3590  -42.0710   30.1220 C.3   168  ASP168      0.1709
     57  C         -7.0340  -43.4060   30.4510 C.2   168  ASP168      0.2293
     58  O         -7.9870  -43.8320   29.7730 O.2   168  ASP168     -0.2864
     59  CB        -7.3820  -41.0190   29.6710 C.3   168  ASP168      0.1436
     60  CG        -8.4390  -40.7080   30.7280 C.2   168  ASP168      0.3671
     61  OD1       -8.4840  -41.3850   31.7550 O.co2 168  ASP168     -0.2456
     62  OD2       -9.2370  -39.7540   30.5240 O.co2 168  ASP168     -0.2456
     63  N        -10.8230  -43.4090   31.4420 N.3   171  GLN171     -0.1245
     64  CA       -11.6480  -43.4670   30.2480 C.3   171  GLN171      0.1566
     65  C        -11.6060  -44.8860   29.6360 C.2   171  GLN171      0.2260
     66  O        -12.6310  -45.3910   29.2600 O.2   171  GLN171     -0.2867
     67  CB       -11.2610  -42.3880   29.2490 C.3   171  GLN171      0.0367
     68  CG       -12.3630  -42.1690   28.1880 C.3   171  GLN171      0.0905
     69  CD       -11.9530  -41.2110   27.0910 C.2   171  GLN171      0.2608
     70  OE1      -11.1530  -41.5750   26.2280 O.2   171  GLN171     -0.2717
     71  NE2      -12.5410  -39.9990   27.0700 N.am  171  GLN171     -0.0878
     72  N         -1.1660  -47.2150   23.2710 N.3   188  TYR188     -0.1241
     73  CA         0.1710  -46.8630   23.7290 C.3   188  TYR188      0.1605
     74  C          0.8350  -48.1270   24.2330 C.2   188  TYR188      0.2264
     75  O          0.3960  -48.7150   25.2150 O.2   188  TYR188     -0.2867
     76  CB         0.1320  -45.7620   24.7940 C.3   188  TYR188      0.0534
     77  CG        -0.0760  -44.3560   24.2110 C.ar  188  TYR188     -0.0201
     78  CD1        0.8090  -43.8260   23.2680 C.ar  188  TYR188     -0.0009
     79  CD2       -1.1340  -43.5580   24.6290 C.ar  188  TYR188     -0.0009
     80  CE1        0.6370  -42.5540   22.7490 C.ar  188  TYR188      0.0417
     81  CE2       -1.3310  -42.2920   24.0920 C.ar  188  TYR188      0.0417
     82  CZ        -0.4330  -41.7840   23.1760 C.ar  188  TYR188      0.1957
     83  OH        -0.6160  -40.5450   22.6340 O.3   188  TYR188     -0.2866
     84  N          3.5630  -48.5840   25.7970 N.3   190  GLU190     -0.1231
     85  CA         4.2560  -48.3680   27.0710 C.3   190  GLU190      0.1699
     86  C          3.3640  -48.4370   28.3060 C.2   190  GLU190      0.2592
     87  O          3.8790  -48.3260   29.4200 O.2   190  GLU190     -0.2718
     88  CB         4.9650  -47.0160   27.0830 C.3   190  GLU190      0.0402
     89  CG         4.0800  -45.8060   26.7080 C.3   190  GLU190      0.1161
     90  CD         4.2430  -45.3990   25.2570 C.2   190  GLU190      0.3649
     91  OE1        4.2360  -46.3220   24.3970 O.co2 190  GLU190     -0.2457
     92  OE2        4.3910  -44.1620   25.0110 O.co2 190  GLU190     -0.2457
     93  N          2.0530  -48.6140   28.1230 N.am  191  ILE191     -0.1980
     94  CA         1.1750  -48.8330   29.2600 C.3   191  ILE191      0.1595
     95  C          0.3170  -50.0780   29.0410 C.2   191  ILE191      0.2287
     96  O         -0.6660  -50.2910   29.7260 O.2   191  ILE191     -0.2864
     97  CB         0.3310  -47.5550   29.5680 C.3   191  ILE191      0.0276
     98  CG1       -0.5830  -47.2550   28.3700 C.3   191  ILE191      0.0022
     99  CG2        1.2500  -46.3810   29.9620 C.3   191  ILE191      0.0022
    100  CD1       -1.7500  -46.3450   28.6780 C.3   191  ILE191      0.0001
@<TRIPOS>BOND
     1     1     2    1
     2     2     3    1
     3     2     5    1
     4     3     4    2
     5    37    35    1
     6    36    35    1
     7    19    18    2
     8    43    42    1
     9    18    17    1
    10     5     6    1
    11    35    34    1
    12    12    11    2
    13    42    44    1
    14    42    39    1
    15     8     6   am
    16     9    10    1
    17     9    15    2
    18    11    10    1
    19    11    16   am
    20    10    13    1
    21    21    22    1
    22     6     7    2
    23    16    17    1
    24    17    20    1
    25    29    28    1
    26    15    14    1
    27    38    39    1
    28    34    31    1
    29    39    40    1
    30    13    14    2
    31    22    23    1
    32    22    25    1
    33    41    40    2
    34    30    23   am
    35    30    31    1
    36    23    24    2
    37    31    32    1
    38    40    45   am
    39    83    82    1
    40    80    82   ar
    41    80    78   ar
    42    28    27    1
    43    26    25    1
    44    26    27    1
    45    82    81   ar
    46    78    77   ar
    47    72    73    1
    48    32    33    2
    49    73    74    1
    50    73    76    1
    51    45    46    1
    52    81    79   ar
    53    77    79   ar
    54    77    76    1
    55    74    75    2
    56    91    90   ar
    57    46    49    1
    58    46    47    1
    59    92    90   ar
    60    49    50    1
    61    90    89    1
    62    84    85    1
    63    47    48    2
    64    47    51   am
    65    70    69    2
    66    89    88    1
    67    51    52    1
    68    71    69   am
    69    85    88    1
    70    85    86    1
    71    69    68    1
    72    93    86   am
    73    93    94    1
    74    68    67    1
    75    52    53    1
    76    86    87    2
    77    98   100    1
    78    98    97    1
    79    95    94    1
    80    95    96    2
    81    55    53   am
    82    55    56    1
    83    67    64    1
    84    94    97    1
    85    66    65    2
    86    53    54    2
    87    97    99    1
    88    65    64    1
    89    59    56    1
    90    59    60    1
    91    58    57    2
    92    56    57    1
    93    64    63    1
    94    62    60   ar
    95    60    61   ar
