@<TRIPOS>MOLECULE
tmp/2wnsB00.pdb
 143 139 0 0 0
SMALL
GASTEIGER

@<TRIPOS>ATOM
      1  N         10.8750   32.1840   57.0190 N.3    21  LEU21      -0.1231
      2  CA        11.4900   30.8840   56.7720 C.3    21  LEU21       0.1693
      3  C         10.6860   30.1640   55.7030 C.2    21  LEU21       0.2592
      4  O          9.5750   30.5920   55.3780 O.2    21  LEU21      -0.2718
      5  CB        11.4710   30.0610   58.0470 C.3    21  LEU21       0.0284
      6  CG        12.0500   30.7650   59.2750 C.3    21  LEU21       0.0019
      7  CD1       12.2150   29.7670   60.3770 C.3    21  LEU21       0.0001
      8  CD2       13.3750   31.4280   58.9550 C.3    21  LEU21       0.0001
      9  N         11.2150   29.0720   55.1600 N.am   22  LYS22      -0.1966
     10  CA        10.4790   28.3380   54.1300 C.3    22  LYS22       0.1728
     11  C          9.1100   27.9170   54.6580 C.2    22  LYS22       0.2616
     12  O          8.1360   27.9890   53.9390 O.2    22  LYS22      -0.2715
     13  CB        11.2660   27.1270   53.6130 C.3    22  LYS22       0.0311
     14  CG        12.4590   27.4870   52.7330 C.3    22  LYS22       0.0038
     15  CD        12.9920   26.2620   51.9830 C.3    22  LYS22       0.0206
     16  CE        14.1430   26.5960   50.9990 C.3    22  LYS22       0.1093
     17  NZ        15.4250   27.0900   51.6310 N.3    22  LYS22      -0.1314
     18  N          9.0340   27.5240   55.9280 N.am   23  SER23      -0.1950
     19  CA         7.7670   27.1480   56.5650 C.3    23  SER23       0.1924
     20  C          6.8090   28.3130   56.7850 C.2    23  SER23       0.2314
     21  O          5.7880   28.1450   57.4490 O.2    23  SER23      -0.2863
     22  CB         8.0160   26.4490   57.9130 C.3    23  SER23       0.2116
     23  OG         8.6640   27.2950   58.8570 O.3    23  SER23      -0.2180
     24  N         18.4200   33.8010   61.2180 N.3    30  TYR30      -0.1227
     25  CA        18.5980   32.9090   60.0800 C.3    30  TYR30       0.1736
     26  C         20.0160   32.3730   60.1240 C.2    30  TYR30       0.2595
     27  O         20.9680   33.1370   60.3790 O.2    30  TYR30      -0.2718
     28  CB        18.3390   33.6430   58.7570 C.3    30  TYR30       0.0548
     29  CG        18.1920   32.7090   57.5650 C.ar   30  TYR30      -0.0200
     30  CD1       16.9440   32.2050   57.2080 C.ar   30  TYR30      -0.0009
     31  CD2       19.2970   32.3180   56.8150 C.ar   30  TYR30      -0.0009
     32  CE1       16.8010   31.3470   56.1120 C.ar   30  TYR30       0.0417
     33  CE2       19.1650   31.4530   55.7310 C.ar   30  TYR30       0.0417
     34  CZ        17.9200   30.9790   55.3880 C.ar   30  TYR30       0.1957
     35  OH        17.7700   30.1330   54.3170 O.3    30  TYR30      -0.2866
     36  N         20.1460   31.0610   59.9380 N.am   31  ILE31      -0.1966
     37  CA        21.4520   30.4020   59.8750 C.3    31  ILE31       0.1727
     38  C         21.7780   30.0120   58.4210 C.2    31  ILE31       0.2616
     39  O         21.1470   29.1170   57.8460 O.2    31  ILE31      -0.2715
     40  CB        21.5170   29.1880   60.7740 C.3    31  ILE31       0.0290
     41  CG1       21.3660   29.6070   62.2530 C.3    31  ILE31       0.0022
     42  CG2       22.8440   28.4860   60.6170 C.3    31  ILE31       0.0023
     43  CD1       20.0130   30.0870   62.6080 C.3    31  ILE31       0.0001
     44  N         22.7740   30.6930   57.8690 N.am   32  ASP32      -0.1971
     45  CA        23.1270   30.6350   56.4480 C.3    32  ASP32       0.1709
     46  C         24.5460   30.0920   56.3110 C.2    32  ASP32       0.2293
     47  O         25.5200   30.8350   56.4540 O.2    32  ASP32      -0.2864
     48  CB        23.0450   32.0470   55.8450 C.3    32  ASP32       0.1436
     49  CG        23.2450   32.0630   54.3360 C.2    32  ASP32       0.3671
     50  OD1       23.6770   31.0410   53.7610 O.co2  32  ASP32      -0.2456
     51  OD2       22.9580   33.1050   53.7250 O.co2  32  ASP32      -0.2456
     52  N         19.4440   19.0940   48.7930 N.3    68  PRO68      -0.2116
     53  CA        19.8260   20.3170   48.0760 C.3    68  PRO68       0.1372
     54  C         19.5630   21.5780   48.9200 C.2    68  PRO68       0.2244
     55  O         18.5660   21.5950   49.6290 O.2    68  PRO68      -0.2868
     56  CB        18.9450   20.2950   46.8150 C.3    68  PRO68       0.0268
     57  CG        18.5720   18.8430   46.6250 C.3    68  PRO68       0.0207
     58  CD        18.4550   18.3040   48.0570 C.3    68  PRO68       0.0892
     59  N         22.8240   23.5660   50.0670 N.3    70  THR70      -0.1218
     60  CA        24.0070   23.8700   50.8790 C.3    70  THR70       0.1862
     61  C         24.7480   22.6220   51.3280 C.2    70  THR70       0.2287
     62  O         25.9770   22.6140   51.3260 O.2    70  THR70      -0.2866
     63  CB        23.6260   24.8330   52.0130 C.3    70  THR70       0.1770
     64  OG1       23.0450   25.9920   51.4080 O.3    70  THR70      -0.2211
     65  CG2       24.8480   25.3100   52.8050 C.3    70  THR70       0.0375
     66  N         22.0540   16.9750   56.1360 N.3   116  GLU116     -0.1231
     67  CA        21.4640   18.3070   56.0860 C.3   116  GLU116      0.1699
     68  C         22.1860   19.3330   56.9590 C.2   116  GLU116      0.2592
     69  O         22.8140   18.9950   57.9700 O.2   116  GLU116     -0.2718
     70  CB        19.9640   18.2600   56.4450 C.3   116  GLU116      0.0402
     71  CG        19.1740   19.6010   56.2480 C.3   116  GLU116      0.1161
     72  CD        19.2460   20.1970   54.7870 C.2   116  GLU116      0.3649
     73  OE1       20.3510   20.3830   54.2450 O.co2 116  GLU116     -0.2457
     74  OE2       18.1980   20.5470   54.2160 O.co2 116  GLU116     -0.2457
     75  N         22.1000   20.5860   56.5340 N.am  117  ASP117     -0.1960
     76  CA        22.6620   21.7160   57.2750 C.3   117  ASP117      0.1840
     77  C         21.7550   22.2230   58.3880 C.2   117  ASP117      0.2622
     78  O         22.1620   22.1960   59.5500 O.2   117  ASP117     -0.2715
     79  CB        23.1290   22.8660   56.3590 C.3   117  ASP117      0.1450
     80  CG        22.0310   23.4680   55.4610 C.2   117  ASP117      0.3671
     81  OD1       20.9110   22.9490   55.3250 O.co2 117  ASP117     -0.2456
     82  OD2       22.3220   24.5230   54.8710 O.co2 117  ASP117     -0.2456
     83  N         20.5590   22.6790   58.0370 N.am  118  VAL118     -0.1963
     84  CA        19.5930   23.2070   59.0160 C.3   118  VAL118      0.1727
     85  C         18.2130   22.5800   58.7810 C.2   118  VAL118      0.2616
     86  O         17.7200   22.5710   57.6560 O.2   118  VAL118     -0.2715
     87  CB        19.4310   24.7400   58.9090 C.3   118  VAL118      0.0290
     88  CG1       18.4360   25.2470   59.9530 C.3   118  VAL118      0.0023
     89  CG2       20.7800   25.4460   59.0690 C.3   118  VAL118      0.0023
     90  N         17.5900   22.1070   59.8470 N.am  119  VAL119     -0.1963
     91  CA        16.1980   21.6210   59.7840 C.3   119  VAL119      0.1727
     92  C         15.2450   22.5280   60.5920 C.2   119  VAL119      0.2617
     93  O         15.5070   22.8210   61.7640 O.2   119  VAL119     -0.2715
     94  CB        16.0760   20.1470   60.2860 C.3   119  VAL119      0.0290
     95  CG1       14.6360   19.8230   60.6280 C.3   119  VAL119      0.0023
     96  CG2       16.6000   19.1420   59.2460 C.3   119  VAL119      0.0023
     97  N         14.1440   22.9620   59.9710 N.am  120  THR120     -0.1937
     98  CA        13.0820   23.7360   60.6500 C.3   120  THR120      0.2028
     99  C         11.8130   22.8580   60.8290 C.2   120  THR120      0.2643
    100  O         11.6770   22.1610   61.8200 O.2   120  THR120     -0.2714
    101  CB        12.7700   25.0530   59.8580 C.3   120  THR120      0.1808
    102  OG1       13.9830   25.7750   59.6340 O.3   120  THR120     -0.2208
    103  CG2       11.8000   25.9700   60.6280 C.3   120  THR120      0.0379
    104  N         10.8910   22.8880   59.8630 N.am  121  SER121     -0.1935
    105  CA         9.7200   21.9960   59.8840 C.3   121  SER121      0.2055
    106  C         10.0670   20.5150   59.6360 C.2   121  SER121      0.2644
    107  O          9.3140   19.6070   60.0590 O.2   121  SER121     -0.2714
    108  CB         8.6770   22.4750   58.8440 C.3   121  SER121      0.2130
    109  OG         9.1470   22.3870   57.4960 O.3   121  SER121     -0.2179
    110  N         11.1850   20.2590   58.9320 N.am  122  GLY122     -0.1939
    111  CA        11.4890   18.9320   58.4220 C.3   122  GLY122      0.2014
    112  C         11.0100   18.6970   56.9880 C.2   122  GLY122      0.2640
    113  O         11.3030   17.6630   56.3960 O.2   122  GLY122     -0.2714
    114  N         10.2980   19.6440   56.4030 N.am  123  SER123     -0.1935
    115  CA         9.7210   19.4210   55.0660 C.3   123  SER123      0.2055
    116  C         10.7620   19.2700   53.9730 C.2   123  SER123      0.2644
    117  O         10.6010   18.4330   53.0880 O.2   123  SER123     -0.2714
    118  CB         8.7490   20.5450   54.6860 C.3   123  SER123      0.2130
    119  OG         7.7190   20.6230   55.6490 O.3   123  SER123     -0.2179
    120  N         11.8180   20.0780   54.0360 N.am  124  SER124     -0.1935
    121  CA        12.9140   20.0020   53.0720 C.3   124  SER124      0.2055
    122  C         13.6090   18.6240   53.1000 C.2   124  SER124      0.2642
    123  O         13.8550   18.0430   52.0350 O.2   124  SER124     -0.2714
    124  CB        13.9220   21.1450   53.2720 C.3   124  SER124      0.2130
    125  OG        13.3140   22.4110   52.9890 O.3   124  SER124     -0.2179
    126  N         13.9120   18.1100   54.3040 N.am  125  VAL125     -0.1977
    127  CA        14.4350   16.7400   54.4290 C.3   125  VAL125      0.1596
    128  C         13.4490   15.7100   53.8000 C.2   125  VAL125      0.2287
    129  O         13.8390   14.8640   53.0090 O.2   125  VAL125     -0.2864
    130  CB        14.7400   16.3380   55.9060 C.3   125  VAL125      0.0276
    131  CG1       15.0130   14.8320   56.0130 C.3   125  VAL125      0.0022
    132  CG2       15.9280   17.1240   56.4780 C.3   125  VAL125      0.0022
    133  N         16.4810   23.3640   64.3300 N.3   148  ARG148     -0.1245
    134  CA        15.9370   24.6250   64.8310 C.3   148  ARG148      0.1563
    135  C         14.8310   24.4050   65.8680 C.2   148  ARG148      0.2260
    136  O         14.3320   25.3680   66.4350 O.2   148  ARG148     -0.2867
    137  CB        15.4420   25.5190   63.6940 C.3   148  ARG148      0.0307
    138  CG        16.5490   26.2880   62.9590 C.3   148  ARG148      0.0489
    139  CD        16.0230   27.1680   61.8480 C.3   148  ARG148      0.2205
    140  NE        15.0830   28.1450   62.4120 N.pl3 148  ARG148     -0.0865
    141  CZ        15.2210   29.4660   62.4210 C.cat 148  ARG148      0.5346
    142  NH1       16.2460   30.0690   61.8380 N.pl3 148  ARG148      0.1354
    143  NH2       14.2840   30.2040   63.0220 N.pl3 148  ARG148      0.1354
@<TRIPOS>BOND
     1    57    56    1
     2    57    58    1
     3    56    53    1
     4    58    52    1
     5    53    52    1
     6    53    54    1
     7    54    55    2
     8    59    60    1
     9    60    61    1
    10    60    63    1
    11    16    17    1
    12    16    15    1
    13    62    61    2
    14    64    63    1
    15    15    14    1
    16    63    65    1
    17   123   122    2
    18    14    13    1
    19   125   124    1
    20   129   128    2
    21   121   122    1
    22   121   124    1
    23   121   120    1
    24   117   116    2
    25   122   126   am
    26    13    10    1
    27    51    49   ar
    28    50    49   ar
    29   128   127    1
    30    12    11    2
    31   116   120   am
    32   116   115    1
    33    10    11    1
    34    10     9    1
    35    74    72   ar
    36    73    72   ar
    37   126   127    1
    38    35    34    1
    39    49    48    1
    40   127   130    1
    41    11    18   am
    42   118   115    1
    43   118   119    1
    44    72    71    1
    45    82    80   ar
    46   115   114    1
    47     9     3   am
    48    81    80   ar
    49     4     3    2
    50    34    33   ar
    51    34    32   ar
    52    80    79    1
    53     3     2    1
    54    33    31   ar
    55    48    45    1
    56   130   131    1
    57   130   132    1
    58    18    19    1
    59    67    66    1
    60    67    70    1
    61    67    68    1
    62    32    30   ar
    63    71    70    1
    64    46    45    1
    65    46    47    2
    66    79    76    1
    67   113   112    2
    68   114   112   am
    69    45    44    1
    70    75    68   am
    71    75    76    1
    72    19    20    1
    73    19    22    1
    74     2     1    1
    75     2     5    1
    76    20    21    2
    77    31    29   ar
    78    68    69    2
    79   112   111    1
    80    30    29   ar
    81    76    77    1
    82   109   108    1
    83    29    28    1
    84    86    85    2
    85    39    38    2
    86    44    38   am
    87    22    23    1
    88    83    77   am
    89    83    84    1
    90     5     6    1
    91    77    78    2
    92    38    37    1
    93   111   110    1
    94    28    25    1
    95    85    84    1
    96    85    90   am
    97   108   105    1
    98    87    84    1
    99    87    89    1
   100    87    88    1
   101   110   106   am
   102     8     6    1
   103    96    94    1
   104     6     7    1
   105   102   101    1
   106   106   105    1
   107   106   107    2
   108    91    90    1
   109    91    94    1
   110    91    92    1
   111   101   103    1
   112   101    98    1
   113   104   105    1
   114   104    99   am
   115    37    36    1
   116    37    40    1
   117    36    26   am
   118    97    92   am
   119    97    98    1
   120    25    26    1
   121    25    24    1
   122    26    27    2
   123    94    95    1
   124    92    93    2
   125    42    40    1
   126    98    99    1
   127    40    41    1
   128    99   100    2
   129   142   141    1
   130   139   140    1
   131   139   138    1
   132    41    43    1
   133   140   141    2
   134   141   143    1
   135   138   137    1
   136   137   134    1
   137   133   134    1
   138   134   135    1
   139   135   136    2
