@<TRIPOS>MOLECULE
tmp/2wntB01.pdb
 81 78 0 0 0
SMALL
GASTEIGER

@<TRIPOS>ATOM
      1  N         12.4320  -31.2730   23.8340 N.3    82  GLU82      -0.1231
      2  CA        12.9540  -30.5400   22.6820 C.3    82  GLU82       0.1699
      3  C         12.2620  -30.8990   21.3730 C.2    82  GLU82       0.2592
      4  O         11.7790  -32.0130   21.1830 O.2    82  GLU82      -0.2718
      5  CB        14.4690  -30.7440   22.5360 C.3    82  GLU82       0.0402
      6  CG        15.2700  -30.3250   23.7530 C.3    82  GLU82       0.1161
      7  CD        16.7610  -30.6260   23.6270 C.2    82  GLU82       0.3649
      8  OE1       17.1790  -31.2650   22.6340 O.co2  82  GLU82      -0.2457
      9  OE2       17.5170  -30.2180   24.5340 O.co2  82  GLU82      -0.2457
     10  N         12.2430  -29.9260   20.4740 N.am   83  LEU83      -0.1966
     11  CA        11.6860  -30.0740   19.1400 C.3    83  LEU83       0.1728
     12  C         12.0560  -31.3930   18.4650 C.2    83  LEU83       0.2616
     13  O         11.1800  -32.1730   18.1090 O.2    83  LEU83      -0.2715
     14  CB        12.1530  -28.9110   18.2700 C.3    83  LEU83       0.0311
     15  CG        11.7120  -28.9520   16.8150 C.3    83  LEU83       0.0022
     16  CD1       10.2070  -28.7540   16.7520 C.3    83  LEU83       0.0001
     17  CD2       12.4220  -27.8790   16.0190 C.3    83  LEU83       0.0001
     18  N         13.3530  -31.6350   18.2880 N.am   84  LEU84      -0.1977
     19  CA        13.8220  -32.7800   17.5080 C.3    84  LEU84       0.1596
     20  C         13.3950  -34.1310   18.0780 C.2    84  LEU84       0.2287
     21  O         13.0310  -35.0310   17.3210 O.2    84  LEU84      -0.2864
     22  CB        15.3410  -32.7340   17.3080 C.3    84  LEU84       0.0297
     23  CG        15.7980  -31.6800   16.2990 C.3    84  LEU84       0.0022
     24  CD1       17.2980  -31.7510   16.0660 C.3    84  LEU84       0.0001
     25  CD2       15.0430  -31.8350   14.9800 C.3    84  LEU84       0.0001
     26  N         19.6330  -22.5400   18.1280 N.3   123  LYS123     -0.1231
     27  CA        19.8610  -23.9530   17.8550 C.3   123  LYS123      0.1678
     28  C         18.6320  -24.7390   18.2810 C.2   123  LYS123      0.2434
     29  O         17.8910  -24.3100   19.1680 O.2   123  LYS123     -0.2733
     30  CB        21.1330  -24.4610   18.5390 C.3   123  LYS123      0.0284
     31  CG        21.1820  -24.2330   20.0270 C.3   123  LYS123      0.0035
     32  CD        22.5580  -24.5480   20.5740 C.3   123  LYS123      0.0206
     33  CE        22.6140  -24.2360   22.0520 C.3   123  LYS123      0.1093
     34  NZ        23.9090  -24.6260   22.6610 N.3   123  LYS123     -0.1314
     35  N         18.3920  -25.8750   17.6230 N.am  124  PRO124     -0.2718
     36  CA        17.2110  -26.7110   17.8700 C.3   124  PRO124      0.1535
     37  C         16.9940  -27.0380   19.3440 C.2   124  PRO124      0.2599
     38  O         15.8500  -27.1400   19.7640 O.2   124  PRO124     -0.2715
     39  CB        17.5140  -27.9760   17.0700 C.3   124  PRO124      0.0310
     40  CG        18.3770  -27.4980   15.9390 C.3   124  PRO124      0.0237
     41  CD        19.2160  -26.3810   16.5110 C.3   124  PRO124      0.0939
     42  N         18.0600  -27.1990   20.1180 N.am  125  SER125     -0.1950
     43  CA        17.9120  -27.5070   21.5420 C.3   125  SER125      0.1924
     44  C         17.3520  -26.3270   22.3530 C.2   125  SER125      0.2314
     45  O         17.0140  -26.4710   23.5300 O.2   125  SER125     -0.2863
     46  CB        19.2410  -27.9820   22.1380 C.3   125  SER125      0.2116
     47  OG        20.1980  -26.9370   22.1350 O.3   125  SER125     -0.2180
     48  N         21.0560  -35.3480   16.6860 N.3   271  LYS271     -0.1245
     49  CA        21.2630  -34.3730   17.7490 C.3   271  LYS271      0.1561
     50  C         22.7510  -34.2070   18.0080 C.2   271  LYS271      0.2260
     51  O         23.2190  -33.1200   18.3500 O.2   271  LYS271     -0.2867
     52  CB        20.5230  -34.7830   19.0220 C.3   271  LYS271      0.0271
     53  CG        19.0060  -34.7740   18.8750 C.3   271  LYS271      0.0035
     54  CD        18.3140  -35.3270   20.1130 C.3   271  LYS271      0.0206
     55  CE        18.4810  -34.4060   21.3070 C.3   271  LYS271      0.1093
     56  NZ        17.7300  -34.8900   22.4980 N.3   271  LYS271     -0.1314
     57  N         24.2330  -32.0990   15.3170 N.3   274  MET274     -0.1230
     58  CA        23.7560  -30.7350   15.5140 C.3   274  MET274      0.1702
     59  C         24.5630  -30.0390   16.6060 C.2   274  MET274      0.2592
     60  O         24.9360  -28.8720   16.4690 O.2   274  MET274     -0.2718
     61  CB        22.2700  -30.7400   15.8770 C.3   274  MET274      0.0401
     62  CG        21.6020  -29.3820   15.8280 C.3   274  MET274      0.0596
     63  SD        21.5210  -28.6670   14.1670 S.3   274  MET274     -0.1393
     64  CE        20.0540  -29.4040   13.4700 C.3   274  MET274      0.0692
     65  N         24.8360  -30.7600   17.6890 N.am  275  ALA275     -0.1980
     66  CA        25.6330  -30.2090   18.7780 C.3   275  ALA275      0.1597
     67  C         27.0640  -29.9320   18.3120 C.2   275  ALA275      0.2287
     68  O         27.6300  -28.8800   18.6020 O.2   275  ALA275     -0.2864
     69  CB        25.6190  -31.1470   19.9780 C.3   275  ALA275      0.0319
     70  N         27.2590  -26.6840   16.2700 N.3   278  TYR278     -0.1241
     71  CA        27.2240  -25.4380   17.0220 C.3   278  TYR278      0.1605
     72  C         28.4540  -25.2840   17.9100 C.2   278  TYR278      0.2264
     73  O         28.8450  -24.1690   18.2750 O.2   278  TYR278     -0.2867
     74  CB        25.9210  -25.3230   17.8130 C.3   278  TYR278      0.0534
     75  CG        24.8060  -24.8000   16.9450 C.ar  278  TYR278     -0.0201
     76  CD1       24.6330  -23.4340   16.7630 C.ar  278  TYR278     -0.0009
     77  CD2       23.9510  -25.6650   16.2770 C.ar  278  TYR278     -0.0009
     78  CE1       23.6330  -22.9430   15.9590 C.ar  278  TYR278      0.0417
     79  CE2       22.9430  -25.1780   15.4660 C.ar  278  TYR278      0.0417
     80  CZ        22.7930  -23.8110   15.3130 C.ar  278  TYR278      0.1957
     81  OH        21.7960  -23.2910   14.5170 O.3   278  TYR278     -0.2866
@<TRIPOS>BOND
     1    64    63    1
     2    63    62    1
     3    81    80    1
     4    25    23    1
     5    80    79   ar
     6    80    78   ar
     7    57    58    1
     8    79    77   ar
     9    58    61    1
    10    58    59    1
    11    62    61    1
    12    40    41    1
    13    40    39    1
    14    78    76   ar
    15    17    15    1
    16    24    23    1
    17    70    71    1
    18    77    75   ar
    19    23    22    1
    20    60    59    2
    21    41    35    1
    22    59    65   am
    23    48    49    1
    24    16    15    1
    25    76    75   ar
    26    15    14    1
    27    75    74    1
    28    71    74    1
    29    71    72    1
    30    39    36    1
    31    22    19    1
    32    21    20    2
    33    19    20    1
    34    19    18    1
    35    35    36    1
    36    35    28   am
    37    65    66    1
    38    49    50    1
    39    49    52    1
    40    27    26    1
    41    27    28    1
    42    27    30    1
    43    36    37    1
    44    72    73    2
    45    50    51    2
    46    13    12    2
    47    14    11    1
    48    28    29    2
    49    18    12   am
    50    67    68    2
    51    67    66    1
    52    12    11    1
    53    30    31    1
    54    66    69    1
    55    53    52    1
    56    53    54    1
    57    11    10    1
    58    37    38    2
    59    37    42   am
    60    31    32    1
    61    54    55    1
    62    42    43    1
    63    10     3   am
    64    32    33    1
    65     4     3    2
    66    55    56    1
    67     3     2    1
    68    43    46    1
    69    43    44    1
    70    33    34    1
    71    47    46    1
    72    44    45    2
    73     5     2    1
    74     5     6    1
    75     8     7   ar
    76     2     1    1
    77     7     6    1
    78     7     9   ar
