@<TRIPOS>MOLECULE
tmp/2wo2B00.pdb
 90 87 0 0 0
SMALL
GASTEIGER

@<TRIPOS>ATOM
      1  N         20.0010   28.7950   12.8360 N.3     4  GLU4       -0.1231
      2  CA        19.7780   28.7110   11.3950 C.3     4  GLU4        0.1684
      3  C         18.3580   29.1590   11.0290 C.2     4  GLU4        0.2434
      4  O         17.3970   28.6830   11.6290 O.2     4  GLU4       -0.2733
      5  CB        20.0140   27.2750   10.9200 C.3     4  GLU4        0.0402
      6  CG        19.7960   27.0460    9.4260 C.3     4  GLU4        0.1161
      7  CD        20.4780   25.7900    8.9200 C.2     4  GLU4        0.3649
      8  OE1       19.8200   24.9640    8.2490 O.co2   4  GLU4       -0.2457
      9  OE2       21.6810   25.6350    9.1940 O.co2   4  GLU4       -0.2457
     10  N         18.2220   30.0650   10.0350 N.am    5  PRO5       -0.2729
     11  CA        16.9020   30.5960    9.7060 C.3     5  PRO5        0.1401
     12  C         15.9460   29.5250    9.1980 C.2     5  PRO5        0.2269
     13  O         16.3640   28.6000    8.5030 O.2     5  PRO5       -0.2865
     14  CB        17.1800   31.6140    8.5860 C.3     5  PRO5        0.0296
     15  CG        18.6420   31.7370    8.4770 C.3     5  PRO5        0.0237
     16  CD        19.2400   30.5120    9.0670 C.3     5  PRO5        0.0939
     17  N         12.9740   28.9410    6.7700 N.3     7  TYR7       -0.1241
     18  CA        12.1730   29.4380    5.6590 C.3     7  TYR7        0.1605
     19  C         10.8520   28.6720    5.6480 C.2     7  TYR7        0.2264
     20  O         10.8410   27.4400    5.5840 O.2     7  TYR7       -0.2867
     21  CB        12.9050   29.2530    4.3240 C.3     7  TYR7        0.0534
     22  CG        14.1120   30.1480    4.1210 C.ar    7  TYR7       -0.0201
     23  CD1       15.3470   29.8220    4.6700 C.ar    7  TYR7       -0.0009
     24  CD2       14.0180   31.3160    3.3640 C.ar    7  TYR7       -0.0009
     25  CE1       16.4550   30.6400    4.4820 C.ar    7  TYR7        0.0417
     26  CE2       15.1190   32.1400    3.1710 C.ar    7  TYR7        0.0417
     27  CZ        16.3360   31.7990    3.7310 C.ar    7  TYR7        0.1957
     28  OH        17.4330   32.6170    3.5410 O.3     7  TYR7       -0.2866
     29  N          8.2080   27.3150    3.8600 N.3     9  ASN9       -0.1240
     30  CA         7.7100   26.8490    2.5550 C.3     9  ASN9        0.1653
     31  C          7.3590   25.3700    2.5380 C.2     9  ASN9        0.2266
     32  O          7.7660   24.6050    3.4120 O.2     9  ASN9       -0.2867
     33  CB         8.7030   27.1270    1.4110 C.3     9  ASN9        0.1155
     34  CG        10.1350   27.2290    1.8810 C.2     9  ASN9        0.2627
     35  OD1       10.4560   28.1230    2.6550 O.2     9  ASN9       -0.2716
     36  ND2       11.0150   26.3250    1.4070 N.am    9  ASN9       -0.0877
     37  N          8.3170   23.3570    0.0660 N.3    11  SER11      -0.1202
     38  CA         9.4950   22.6540   -0.4620 C.3    11  SER11       0.2020
     39  C         10.6640   22.7730    0.5110 C.2    11  SER11       0.2619
     40  O         11.7740   23.1590    0.1280 O.2    11  SER11      -0.2717
     41  CB         9.8930   23.2340   -1.8220 C.3    11  SER11       0.2103
     42  OG        10.4410   24.5380   -1.6850 O.3    11  SER11      -0.2182
     43  N         10.4090   22.4150    1.7660 N.am   12  ASN12      -0.1960
     44  CA        11.3030   22.7360    2.8730 C.3    12  ASN12       0.1819
     45  C         11.2330   21.5750    3.8850 C.2    12  ASN12       0.2622
     46  O         10.3030   21.4730    4.6820 O.2    12  ASN12      -0.2715
     47  CB        10.8650   24.0850    3.4570 C.3    12  ASN12       0.1195
     48  CG        12.0260   24.9280    3.9920 C.2    12  ASN12       0.2630
     49  OD1       12.4090   24.7410    5.1520 O.2    12  ASN12      -0.2716
     50  ND2       12.5810   25.8880    3.1810 N.am   12  ASN12      -0.0877
     51  N         12.2300   20.6960    3.8230 N.am   13  SER13      -0.1936
     52  CA        12.1490   19.3510    4.4150 C.3    13  SER13       0.2055
     53  C         12.3810   19.2460    5.9250 C.2    13  SER13       0.2642
     54  O         12.3160   18.1500    6.4790 O.2    13  SER13      -0.2714
     55  CB        13.1350   18.4220    3.7030 C.3    13  SER13       0.2130
     56  OG        13.0480   18.5800    2.3000 O.3    13  SER13      -0.2179
     57  N         12.6410   20.3650    6.5920 N.am   14  LYS14      -0.1977
     58  CA        12.8080   20.3540    8.0480 C.3    14  LYS14       0.1596
     59  C         11.5450   19.8780    8.7710 C.2    14  LYS14       0.2287
     60  O         11.6140   19.3990    9.9040 O.2    14  LYS14      -0.2864
     61  CB        13.2090   21.7390    8.5530 C.3    14  LYS14       0.0298
     62  CG        14.6180   22.1550    8.1560 C.3    14  LYS14       0.0038
     63  CD        15.0010   23.4730    8.8040 C.3    14  LYS14       0.0206
     64  CE        16.4310   23.8590    8.4800 C.3    14  LYS14       0.1093
     65  NZ        16.7350   25.2580    8.9020 N.3    14  LYS14      -0.1314
     66  N          8.3200   32.8060    2.1270 N.3    36  PRO36      -0.2102
     67  CA         8.8430   32.3690    0.8430 C.3    36  PRO36       0.1504
     68  C          8.8510   33.5220   -0.1420 C.2    36  PRO36       0.2575
     69  O          7.8170   34.1500   -0.3560 O.2    36  PRO36      -0.2718
     70  CB         7.8540   31.2890    0.4060 C.3    36  PRO36       0.0282
     71  CG         6.5990   31.6300    1.0820 C.3    36  PRO36       0.0208
     72  CD         6.9720   32.2700    2.3820 C.3    36  PRO36       0.0893
     73  N         10.0220   33.8040   -0.7080 N.am   37  LYS37      -0.1980
     74  CA        10.1950   34.9050   -1.6450 C.3    37  LYS37       0.1596
     75  C         10.4110   34.3590   -3.0510 C.2    37  LYS37       0.2287
     76  O         11.0130   33.3030   -3.2250 O.2    37  LYS37      -0.2864
     77  CB        11.3890   35.7730   -1.2350 C.3    37  LYS37       0.0298
     78  CG        11.4250   37.1410   -1.9050 C.3    37  LYS37       0.0038
     79  CD        12.8340   37.6900   -1.9610 C.3    37  LYS37       0.0206
     80  CE        12.8520   39.1350   -2.4430 C.3    37  LYS37       0.1093
     81  NZ        14.2280   39.7200   -2.3980 N.3    37  LYS37      -0.1314
     82  N          3.5250   31.4390   -2.8900 N.3    43  GLU43      -0.1245
     83  CA         2.9900   30.7780   -1.6950 C.3    43  GLU43       0.1567
     84  C          2.5200   31.8310   -0.6920 C.2    43  GLU43       0.2260
     85  O          3.1610   32.8720   -0.5320 O.2    43  GLU43      -0.2867
     86  CB         4.0560   29.9170   -1.0220 C.3    43  GLU43       0.0388
     87  CG         4.6420   28.8200   -1.8820 C.3    43  GLU43       0.1160
     88  CD         5.4900   27.8610   -1.0680 C.2    43  GLU43       0.3649
     89  OE1        6.7350   27.9320   -1.1630 O.co2  43  GLU43      -0.2457
     90  OE2        4.9080   27.0530   -0.3150 O.co2  43  GLU43      -0.2457
@<TRIPOS>BOND
     1    76    75    2
     2    75    74    1
     3    82    83    1
     4    80    81    1
     5    80    79    1
     6    79    78    1
     7    78    77    1
     8    87    88    1
     9    87    86    1
    10    41    42    1
    11    41    38    1
    12    83    86    1
    13    83    84    1
    14    74    77    1
    15    74    73    1
    16    89    88   ar
    17    88    90   ar
    18    73    68   am
    19    84    85    2
    20    38    37    1
    21    38    39    1
    22    69    68    2
    23    68    67    1
    24    40    39    2
    25    70    67    1
    26    70    71    1
    27    39    43   am
    28    67    66    1
    29    71    72    1
    30    36    34   am
    31    33    34    1
    32    33    30    1
    33    43    44    1
    34    34    35    2
    35    66    72    1
    36    56    55    1
    37    31    30    1
    38    31    32    2
    39    30    29    1
    40    44    47    1
    41    44    45    1
    42    26    24   ar
    43    26    27   ar
    44    50    48   am
    45    24    22   ar
    46    47    48    1
    47    28    27    1
    48    55    52    1
    49    27    25   ar
    50    51    45   am
    51    51    52    1
    52    45    46    2
    53    48    49    2
    54    22    21    1
    55    22    23   ar
    56    21    18    1
    57    52    53    1
    58    25    23   ar
    59    20    19    2
    60    19    18    1
    61    18    17    1
    62    53    54    2
    63    53    57   am
    64    57    58    1
    65    58    61    1
    66    58    59    1
    67    62    61    1
    68    62    63    1
    69     8     7   ar
    70    15    14    1
    71    15    16    1
    72    64    63    1
    73    64    65    1
    74    13    12    2
    75    14    11    1
    76    59    60    2
    77     7     9   ar
    78     7     6    1
    79    16    10    1
    80    12    11    1
    81     6     5    1
    82    11    10    1
    83    10     3   am
    84     5     2    1
    85     3     2    1
    86     3     4    2
    87     2     1    1
