@<TRIPOS>MOLECULE
tmp/2wo3B00.pdb
 92 92 0 0 0
SMALL
GASTEIGER

@<TRIPOS>ATOM
      1  N         12.2940  -52.1870   31.4650 N.3     8  TYR8       -0.1241
      2  CA        11.5570  -51.7080   32.6250 C.3     8  TYR8        0.1605
      3  C         12.3610  -50.5800   33.2600 C.2     8  TYR8        0.2264
      4  O         13.3530  -50.8080   33.9220 O.2     8  TYR8       -0.2867
      5  CB        11.2480  -52.8600   33.6080 C.3     8  TYR8        0.0534
      6  CG        10.2910  -53.8590   32.9850 C.ar    8  TYR8       -0.0201
      7  CD1       10.7700  -54.8900   32.1860 C.ar    8  TYR8       -0.0009
      8  CD2        8.9070  -53.7380   33.1440 C.ar    8  TYR8       -0.0009
      9  CE1        9.9050  -55.7900   31.5670 C.ar    8  TYR8        0.0417
     10  CE2        8.0250  -54.6410   32.5250 C.ar    8  TYR8        0.0417
     11  CZ         8.5400  -55.6650   31.7390 C.ar    8  TYR8        0.1957
     12  OH         7.7150  -56.5830   31.1140 O.3     8  TYR8       -0.2866
     13  N         13.0880  -48.5020   35.7910 N.3    10  ASN10      -0.1240
     14  CA        13.0230  -48.1760   37.1940 C.3    10  ASN10       0.1653
     15  C         14.2930  -48.6200   37.9110 C.2    10  ASN10       0.2266
     16  O         15.0240  -49.4580   37.4180 O.2    10  ASN10      -0.2867
     17  CB        11.7280  -48.7050   37.8430 C.3    10  ASN10       0.1155
     18  CG        11.7730  -50.2000   38.2030 C.2    10  ASN10       0.2627
     19  OD1       12.5560  -50.6200   39.0520 O.2    10  ASN10      -0.2716
     20  ND2       10.9020  -50.9920   37.5860 N.am   10  ASN10      -0.0877
     21  N         14.9500  -50.4540   40.4990 N.3    12  SER12      -0.1202
     22  CA        15.1060  -51.8190   41.0310 C.3    12  SER12       0.2020
     23  C         15.6340  -52.7830   39.9750 C.2    12  SER12       0.2619
     24  O         16.1520  -53.8360   40.3070 O.2    12  SER12      -0.2717
     25  CB        13.7810  -52.3370   41.6080 C.3    12  SER12       0.2103
     26  OG        13.4900  -51.6360   42.8030 O.3    12  SER12      -0.2182
     27  N         15.4990  -52.4010   38.7060 N.am   13  ASN13      -0.1960
     28  CA        15.9620  -53.2190   37.5900 C.3    13  ASN13       0.1804
     29  C         17.5010  -53.2270   37.5880 C.2    13  ASN13       0.2463
     30  O         18.1280  -52.2110   37.2800 O.2    13  ASN13      -0.2730
     31  CB        15.3790  -52.6710   36.2740 C.3    13  ASN13       0.1195
     32  CG        15.7110  -53.5310   35.0700 C.2    13  ASN13       0.2630
     33  OD1       16.5400  -54.4200   35.1410 O.2    13  ASN13      -0.2716
     34  ND2       15.0480  -53.2670   33.9540 N.am   13  ASN13      -0.0877
     35  N         18.1140  -54.3730   37.9430 N.am   14  PRO14      -0.2727
     36  CA        19.5740  -54.4420   38.0670 C.3    14  PRO14       0.1402
     37  C         20.3260  -54.2230   36.7530 C.2    14  PRO14       0.2269
     38  O         21.5510  -54.0830   36.7540 O.2    14  PRO14      -0.2865
     39  CB        19.8090  -55.8720   38.5490 C.3    14  PRO14       0.0296
     40  CG        18.6710  -56.6350   37.9810 C.3    14  PRO14       0.0237
     41  CD        17.5010  -55.7070   38.1010 C.3    14  PRO14       0.0939
     42  N          7.2130  -47.7560   32.0670 N.3    41  CYS41      -0.1221
     43  CA         7.3780  -46.8180   33.1550 C.3    41  CYS41       0.1794
     44  C          7.1660  -47.5150   34.4810 C.2    41  CYS41       0.2443
     45  O          6.4890  -48.5420   34.5230 O.2    41  CYS41      -0.2733
     46  CB         6.3730  -45.6820   33.0150 C.3    41  CYS41       0.0970
     47  SG         6.6810  -44.6930   31.5480 S.3    41  CYS41      -0.0800
     48  N          7.7420  -46.9580   35.5660 N.am   42  PRO42      -0.2718
     49  CA         7.5100  -47.5190   36.8850 C.3    42  PRO42       0.1535
     50  C          6.0190  -47.5950   37.1430 C.2    42  PRO42       0.2599
     51  O          5.2900  -46.6550   36.8050 O.2    42  PRO42      -0.2715
     52  CB         8.1750  -46.5080   37.8410 C.3    42  PRO42       0.0310
     53  CG         9.1420  -45.7520   37.0090 C.3    42  PRO42       0.0237
     54  CD         8.5490  -45.7270   35.6240 C.3    42  PRO42       0.0939
     55  N          5.5640  -48.7090   37.7030 N.am   43  HIS43      -0.1960
     56  CA         4.1430  -48.8720   37.9960 C.3    43  HIS43       0.1787
     57  C          3.8860  -49.4380   39.3820 C.2    43  HIS43       0.2620
     58  O          4.6460  -50.2670   39.8760 O.2    43  HIS43      -0.2715
     59  CB         3.4690  -49.7490   36.9390 C.3    43  HIS43       0.0785
     60  CG         1.9830  -49.7830   37.0680 C.ar   43  HIS43       0.0821
     61  ND1        1.3180  -50.8120   37.6960 N.ar   43  HIS43      -0.2267
     62  CD2        1.0350  -48.8930   36.6930 C.ar   43  HIS43       0.1154
     63  CE1        0.0200  -50.5650   37.6830 C.ar   43  HIS43       0.1986
     64  NE2       -0.1780  -49.4070   37.0790 N.ar   43  HIS43      -0.2212
     65  N          2.7970  -48.9910   39.9970 N.am   44  TYR44      -0.1974
     66  CA         2.4390  -49.4320   41.3420 C.3    44  TYR44       0.1639
     67  C          0.9800  -49.8460   41.4120 C.2    44  TYR44       0.2290
     68  O          0.1000  -49.1170   40.9580 O.2    44  TYR44      -0.2864
     69  CB         2.7220  -48.3210   42.3500 C.3    44  TYR44       0.0560
     70  CG         4.1480  -47.8570   42.2800 C.ar   44  TYR44      -0.0198
     71  CD1        4.5140  -46.8280   41.4230 C.ar   44  TYR44      -0.0009
     72  CD2        5.1420  -48.4730   43.0360 C.ar   44  TYR44      -0.0009
     73  CE1        5.8300  -46.4060   41.3220 C.ar   44  TYR44       0.0417
     74  CE2        6.4670  -48.0530   42.9540 C.ar   44  TYR44       0.0417
     75  CZ         6.8040  -47.0170   42.0900 C.ar   44  TYR44       0.1957
     76  OH         8.1090  -46.5820   41.9940 O.3    44  TYR44      -0.2866
     77  N          8.2770  -43.7030   41.6940 N.3    55  GLU55      -0.1245
     78  CA         9.2050  -43.2220   40.6750 C.3    55  GLU55       0.1567
     79  C          8.4020  -42.6910   39.5000 C.2    55  GLU55       0.2260
     80  O          7.4220  -43.2900   39.0850 O.2    55  GLU55      -0.2867
     81  CB        10.1790  -44.3140   40.2180 C.3    55  GLU55       0.0388
     82  CG        11.0830  -44.8700   41.3110 C.3    55  GLU55       0.1160
     83  CD        11.8550  -46.0840   40.8430 C.2    55  GLU55       0.3649
     84  OE1       12.5700  -45.9600   39.8260 O.co2  55  GLU55      -0.2457
     85  OE2       11.7550  -47.1630   41.4750 O.co2  55  GLU55      -0.2457
     86  N          1.3330  -50.4590   33.4980 N.3    91  PRO91      -0.2116
     87  CA         2.4540  -49.5580   33.2460 C.3    91  PRO91       0.1372
     88  C          2.2930  -48.7940   31.9350 C.2    91  PRO91       0.2244
     89  O          1.9100  -49.3920   30.9330 O.2    91  PRO91      -0.2868
     90  CB         3.6490  -50.5130   33.1460 C.3    91  PRO91       0.0268
     91  CG         3.2140  -51.7550   33.8440 C.3    91  PRO91       0.0207
     92  CD         1.7620  -51.8660   33.5590 C.3    91  PRO91       0.0892
@<TRIPOS>BOND
     1    89    88    2
     2    12    11    1
     3     1     2    1
     4    47    46    1
     5     9    11   ar
     6     9     7   ar
     7    11    10   ar
     8    88    87    1
     9    42    43    1
    10     7     6   ar
    11    10     8   ar
    12     2     3    1
    13     2     5    1
    14     6     8   ar
    15     6     5    1
    16    46    43    1
    17    90    87    1
    18    90    91    1
    19    43    44    1
    20    87    86    1
    21     3     4    2
    22    86    92    1
    23    92    91    1
    24    34    32   am
    25    44    45    2
    26    44    48   am
    27    32    33    2
    28    32    31    1
    29    48    54    1
    30    48    49    1
    31    54    53    1
    32    13    14    1
    33    31    28    1
    34    62    60   ar
    35    62    64   ar
    36    37    38    2
    37    37    36    1
    38    51    50    2
    39    49    50    1
    40    49    52    1
    41    59    60    1
    42    59    56    1
    43    53    52    1
    44    60    61   ar
    45    64    63   ar
    46    50    55   am
    47    14    17    1
    48    14    15    1
    49    30    29    2
    50    16    15    2
    51    20    18   am
    52    29    28    1
    53    29    35   am
    54    28    27    1
    55    63    61   ar
    56    55    56    1
    57    17    18    1
    58    35    36    1
    59    35    41    1
    60    40    41    1
    61    40    39    1
    62    56    57    1
    63    36    39    1
    64    18    19    2
    65    27    23   am
    66    80    79    2
    67    57    58    2
    68    57    65   am
    69    79    78    1
    70    84    83   ar
    71    23    24    2
    72    23    22    1
    73    65    66    1
    74    81    78    1
    75    81    82    1
    76    21    22    1
    77    78    77    1
    78    83    82    1
    79    83    85   ar
    80    68    67    2
    81    22    25    1
    82    73    71   ar
    83    73    75   ar
    84    66    67    1
    85    66    69    1
    86    71    70   ar
    87    25    26    1
    88    76    75    1
    89    75    74   ar
    90    70    69    1
    91    70    72   ar
    92    74    72   ar
