@<TRIPOS>MOLECULE
tmp/2wo6B00.pdb
 205 201 0 0 0
SMALL
GASTEIGER

@<TRIPOS>ATOM
      1  N       -123.7700   19.8510  -24.7540 N.3    34  SER34      -0.1202
      2  CA      -124.0130   19.0540  -23.5700 C.3    34  SER34       0.2020
      3  C       -123.0420   19.3550  -22.4160 C.2    34  SER34       0.2618
      4  O       -123.3670   19.0910  -21.2510 O.2    34  SER34      -0.2717
      5  CB      -123.9540   17.5610  -23.9370 C.3    34  SER34       0.2103
      6  OG      -122.7950   17.2610  -24.7220 O.3    34  SER34      -0.2182
      7  N       -121.8670   19.9030  -22.7240 N.am   35  PHE35      -0.1975
      8  CA      -120.8660   20.2160  -21.6880 C.3    35  PHE35       0.1639
      9  C       -120.7890   21.6510  -21.2220 C.2    35  PHE35       0.2290
     10  O       -120.1090   21.9130  -20.2210 O.2    35  PHE35      -0.2864
     11  CB      -119.4740   19.7760  -22.1490 C.3    35  PHE35       0.0560
     12  CG      -119.2410   18.3250  -21.9480 C.ar   35  PHE35      -0.0200
     13  CD1     -118.2500   17.8760  -21.0880 C.ar   35  PHE35      -0.0042
     14  CD2     -120.0870   17.3940  -22.5560 C.ar   35  PHE35      -0.0042
     15  CE1     -118.0800   16.4990  -20.8590 C.ar   35  PHE35      -0.0003
     16  CE2     -119.9410   16.0180  -22.3250 C.ar   35  PHE35      -0.0003
     17  CZ      -118.9300   15.5710  -21.4750 C.ar   35  PHE35      -0.0000
     18  N       -117.8380   16.4780  -12.1880 N.3    60  ALA60      -0.1231
     19  CA      -117.5660   15.5040  -13.2480 C.3    60  ALA60       0.1694
     20  C       -117.0710   16.1940  -14.5120 C.2    60  ALA60       0.2592
     21  O       -116.0750   15.7820  -15.0960 O.2    60  ALA60      -0.2718
     22  CB      -118.8110   14.6700  -13.5480 C.3    60  ALA60       0.0304
     23  N       -117.7760   17.2450  -14.9240 N.am   61  PHE61      -0.1976
     24  CA      -117.4150   18.0060  -16.1320 C.3    61  PHE61       0.1639
     25  C       -116.1400   18.7980  -15.9240 C.2    61  PHE61       0.2290
     26  O       -115.3020   18.8480  -16.8180 O.2    61  PHE61      -0.2864
     27  CB      -118.5540   18.9480  -16.5400 C.3    61  PHE61       0.0560
     28  CG      -119.7600   18.2270  -17.0120 C.ar   61  PHE61      -0.0200
     29  CD1     -119.7920   17.7040  -18.2930 C.ar   61  PHE61      -0.0042
     30  CD2     -120.8400   18.0170  -16.1630 C.ar   61  PHE61      -0.0042
     31  CE1     -120.8830   17.0070  -18.7520 C.ar   61  PHE61      -0.0003
     32  CE2     -121.9560   17.3060  -16.6020 C.ar   61  PHE61      -0.0003
     33  CZ      -121.9780   16.8050  -17.9070 C.ar   61  PHE61      -0.0000
     34  N       -113.2520   16.4530  -16.2420 N.3    64  GLN64      -0.1245
     35  CA      -112.9260   16.0700  -17.6110 C.3    64  GLN64       0.1566
     36  C       -112.3020   17.2400  -18.3720 C.2    64  GLN64       0.2260
     37  O       -111.4150   17.0260  -19.2100 O.2    64  GLN64      -0.2867
     38  CB      -114.1360   15.5290  -18.3810 C.3    64  GLN64       0.0367
     39  CG      -113.7780   14.9080  -19.7380 C.3    64  GLN64       0.0905
     40  CD      -112.8850   13.6740  -19.6000 C.2    64  GLN64       0.2608
     41  OE1     -113.1430   12.7930  -18.7700 O.2    64  GLN64      -0.2717
     42  NE2     -111.8280   13.6090  -20.4070 N.am   64  GLN64      -0.0878
     43  N       -120.2450   20.1370  -41.1070 N.3   111  TYR111     -0.1241
     44  CA      -121.6500   19.8580  -41.2600 C.3   111  TYR111      0.1605
     45  C       -122.3610   21.0760  -41.8230 C.2   111  TYR111      0.2264
     46  O       -123.1300   20.9390  -42.7450 O.2   111  TYR111     -0.2867
     47  CB      -122.2910   19.4420  -39.9420 C.3   111  TYR111      0.0534
     48  CG      -123.7300   19.0900  -40.1240 C.ar  111  TYR111     -0.0201
     49  CD1     -124.0930   17.8870  -40.7310 C.ar  111  TYR111     -0.0009
     50  CD2     -124.7360   19.9640  -39.7250 C.ar  111  TYR111     -0.0009
     51  CE1     -125.4330   17.5510  -40.9170 C.ar  111  TYR111      0.0417
     52  CE2     -126.0900   19.6340  -39.9040 C.ar  111  TYR111      0.0417
     53  CZ      -126.4200   18.4290  -40.5040 C.ar  111  TYR111      0.1957
     54  OH      -127.7430   18.0980  -40.6950 O.3   111  TYR111     -0.2866
     55  N       -113.8040   11.5870  -30.6210 N.3   152  ASP152     -0.1239
     56  CA      -115.0860   12.1000  -31.0700 C.3   152  ASP152      0.1674
     57  C       -114.9800   12.8940  -32.3580 C.2   152  ASP152      0.2266
     58  O       -115.5930   13.9360  -32.5220 O.2   152  ASP152     -0.2867
     59  CB      -115.7530   12.9170  -29.9550 C.3   152  ASP152      0.1410
     60  CG      -117.2300   13.1340  -30.1880 C.2   152  ASP152      0.3668
     61  OD1     -117.8700   12.3810  -30.9660 O.co2 152  ASP152     -0.2456
     62  OD2     -117.7440   14.0920  -29.5830 O.co2 152  ASP152     -0.2456
     63  N       -115.9650   13.9750  -35.8530 N.3   154  LYS154     -0.1231
     64  CA      -117.1760   14.0370  -36.6300 C.3   154  LYS154      0.1678
     65  C       -117.2050   15.3870  -37.3320 C.2   154  LYS154      0.2434
     66  O       -116.4090   16.2410  -37.0210 O.2   154  LYS154     -0.2733
     67  CB      -118.3850   13.8410  -35.7160 C.3   154  LYS154      0.0284
     68  CG      -118.4300   14.7560  -34.5170 C.3   154  LYS154      0.0035
     69  CD      -119.7120   14.4950  -33.7240 C.3   154  LYS154      0.0206
     70  CE      -119.7700   15.3410  -32.4710 C.3   154  LYS154      0.1093
     71  NZ      -120.9190   14.9840  -31.5880 N.3   154  LYS154     -0.1314
     72  N       -118.1080   15.5840  -38.2980 N.am  155  PRO155     -0.2718
     73  CA      -118.1350   16.8850  -38.9730 C.3   155  PRO155      0.1535
     74  C       -118.3410   18.1170  -38.0820 C.2   155  PRO155      0.2598
     75  O       -117.7930   19.1750  -38.4180 O.2   155  PRO155     -0.2715
     76  CB      -119.2950   16.7300  -39.9610 C.3   155  PRO155      0.0310
     77  CG      -119.2900   15.2570  -40.2840 C.3   155  PRO155      0.0237
     78  CD      -119.0290   14.6230  -38.9360 C.3   155  PRO155      0.0939
     79  N       -119.0890   17.9780  -36.9670 N.am  156  GLU156     -0.1964
     80  CA      -119.3600   19.0980  -36.0390 C.3   156  GLU156      0.1733
     81  C       -118.1190   19.5200  -35.2750 C.2   156  GLU156      0.2616
     82  O       -118.0780   20.6510  -34.8050 O.2   156  GLU156     -0.2715
     83  CB      -120.4780   18.7730  -35.0470 C.3   156  GLU156      0.0429
     84  CG      -121.8390   18.5660  -35.6850 C.3   156  GLU156      0.1163
     85  CD      -122.1340   17.0980  -35.9910 C.2   156  GLU156      0.3649
     86  OE1     -121.2210   16.3830  -36.5140 O.co2 156  GLU156     -0.2457
     87  OE2     -123.2810   16.6770  -35.6940 O.co2 156  GLU156     -0.2457
     88  N       -117.1230   18.6240  -35.1650 N.am  157  ASN157     -0.1972
     89  CA      -115.8730   18.8840  -34.4500 C.3   157  ASN157      0.1688
     90  C       -114.7230   19.2200  -35.3990 C.2   157  ASN157      0.2292
     91  O       -113.5510   19.2580  -35.0150 O.2   157  ASN157     -0.2864
     92  CB      -115.4980   17.6950  -33.5600 C.3   157  ASN157      0.1181
     93  CG      -116.3240   17.6450  -32.3030 C.2   157  ASN157      0.2629
     94  OD1     -116.8540   18.6710  -31.8750 O.2   157  ASN157     -0.2716
     95  ND2     -116.4420   16.4570  -31.7020 N.am  157  ASN157     -0.0877
     96  N       -112.6230   20.3580  -29.7820 N.3   172  ASP172     -0.1239
     97  CA      -113.2510   19.5780  -28.7260 C.3   172  ASP172      0.1674
     98  C       -112.5050   18.3150  -28.4010 C.2   172  ASP172      0.2266
     99  O       -112.8460   17.2370  -28.8970 O.2   172  ASP172     -0.2867
    100  CB      -114.7090   19.2690  -29.0520 C.3   172  ASP172      0.1410
    101  CG      -115.5370   18.9790  -27.7940 C.2   172  ASP172      0.3668
    102  OD1     -114.9320   18.6340  -26.7690 O.co2 172  ASP172     -0.2456
    103  OD2     -116.7770   19.1240  -27.8250 O.co2 172  ASP172     -0.2456
    104  N       -113.5860   14.5540  -24.8710 N.3   175  SER175     -0.1217
    105  CA      -113.6580   13.1040  -24.6790 C.3   175  SER175      0.1889
    106  C       -112.3270   12.3990  -24.9450 C.2   175  SER175      0.2288
    107  O       -112.2870   11.1630  -25.0310 O.2   175  SER175     -0.2866
    108  CB      -114.6810   12.5170  -25.6440 C.3   175  SER175      0.2089
    109  OG      -115.9140   13.1960  -25.5030 O.3   175  SER175     -0.2183
    110  N       -113.5870    5.5460  -20.6440 N.3   184  TYR184     -0.1241
    111  CA      -114.9470    5.1940  -21.0050 C.3   184  TYR184      0.1605
    112  C       -115.0010    4.2020  -22.1900 C.2   184  TYR184      0.2264
    113  O       -114.1760    4.2630  -23.1030 O.2   184  TYR184     -0.2867
    114  CB      -115.7350    6.4710  -21.3540 C.3   184  TYR184      0.0534
    115  CG      -115.5150    7.7210  -20.4830 C.ar  184  TYR184     -0.0201
    116  CD1     -116.1160    7.8630  -19.2290 C.ar  184  TYR184     -0.0009
    117  CD2     -114.7720    8.7920  -20.9660 C.ar  184  TYR184     -0.0009
    118  CE1     -115.9310    9.0290  -18.4630 C.ar  184  TYR184      0.0417
    119  CE2     -114.5870    9.9630  -20.2200 C.ar  184  TYR184      0.0417
    120  CZ      -115.1580   10.0800  -18.9720 C.ar  184  TYR184      0.1957
    121  OH      -114.9440   11.2580  -18.2560 O.3   184  TYR184     -0.2866
    122  N       -117.9000    5.5800  -26.3400 N.3   186  ILE186     -0.1231
    123  CA      -117.3010    6.8120  -26.8510 C.3   186  ILE186      0.1692
    124  C       -117.5770    6.9310  -28.3410 C.2   186  ILE186      0.2592
    125  O       -118.0240    5.9820  -28.9660 O.2   186  ILE186     -0.2718
    126  CB      -115.7540    6.8910  -26.5640 C.3   186  ILE186      0.0266
    127  CG1     -115.0050    5.6710  -27.1330 C.3   186  ILE186      0.0019
    128  CG2     -115.4840    6.9770  -25.0820 C.3   186  ILE186      0.0020
    129  CD1     -113.4740    5.8700  -27.2210 C.3   186  ILE186      0.0001
    130  N       -117.2810    8.1080  -28.8830 N.am  187  GLN187     -0.1966
    131  CA      -117.4490    8.4370  -30.2950 C.3   187  GLN187      0.1733
    132  C       -118.8970    8.6910  -30.5690 C.2   187  GLN187      0.2617
    133  O       -119.7620    8.0710  -29.9710 O.2   187  GLN187     -0.2715
    134  CB      -116.9030    7.3720  -31.2490 C.3   187  GLN187      0.0408
    135  CG      -115.4420    7.0030  -31.0190 C.3   187  GLN187      0.0908
    136  CD      -114.8540    6.1830  -32.1550 C.2   187  GLN187      0.2608
    137  OE1     -115.0070    4.9440  -32.1920 O.2   187  GLN187     -0.2717
    138  NE2     -114.1650    6.8640  -33.0880 N.am  187  GLN187     -0.0878
    139  N       -119.1730    9.6310  -31.4570 N.am  188  SER188     -0.1936
    140  CA      -120.5360    9.8460  -31.8660 C.3   188  SER188      0.2055
    141  C       -120.9060    8.7260  -32.8340 C.2   188  SER188      0.2643
    142  O       -120.1330    8.3590  -33.7320 O.2   188  SER188     -0.2714
    143  CB      -120.7060   11.2350  -32.4690 C.3   188  SER188      0.2130
    144  OG      -120.7280   12.2090  -31.4320 O.3   188  SER188     -0.2179
    145  N       -122.1080    8.2050  -32.6320 N.am  189  ARG189     -0.1963
    146  CA      -122.5400    6.9000  -33.1320 C.3   189  ARG189      0.1729
    147  C       -122.2680    6.6660  -34.5940 C.2   189  ARG189      0.2616
    148  O       -121.8940    5.5740  -34.9700 O.2   189  ARG189     -0.2715
    149  CB      -124.0430    6.6980  -32.8780 C.3   189  ARG189      0.0348
    150  CG      -124.4920    5.2540  -33.1030 C.3   189  ARG189      0.0492
    151  CD      -125.9740    5.0720  -33.0390 C.3   189  ARG189      0.2205
    152  NE      -126.5220    5.5680  -31.7790 N.pl3 189  ARG189     -0.0865
    153  CZ      -127.4770    6.4800  -31.6920 C.cat 189  ARG189      0.5346
    154  NH1     -128.0170    6.9910  -32.7960 N.pl3 189  ARG189      0.1354
    155  NH2     -127.8990    6.8870  -30.5020 N.pl3 189  ARG189      0.1354
    156  N       -122.4660    7.6840  -35.4180 N.am  190  PHE190     -0.1960
    157  CA      -122.3120    7.5390  -36.8590 C.3   190  PHE190      0.1771
    158  C       -120.8610    7.2670  -37.1560 C.2   190  PHE190      0.2620
    159  O       -120.5470    6.6460  -38.1830 O.2   190  PHE190     -0.2715
    160  CB      -122.7280    8.8200  -37.5920 C.3   190  PHE190      0.0574
    161  CG      -124.2270    9.0710  -37.6640 C.ar  190  PHE190     -0.0200
    162  CD1     -125.1330    8.3740  -36.8910 C.ar  190  PHE190     -0.0042
    163  CD2     -124.7110   10.0460  -38.5150 C.ar  190  PHE190     -0.0042
    164  CE1     -126.4980    8.6350  -36.9820 C.ar  190  PHE190     -0.0003
    165  CE2     -126.0590   10.3090  -38.6120 C.ar  190  PHE190     -0.0003
    166  CZ      -126.9560    9.6060  -37.8470 C.ar  190  PHE190     -0.0000
    167  N       -119.9780    7.7200  -36.2600 N.am  191  TYR191     -0.1960
    168  CA      -118.5320    7.7570  -36.5330 C.3   191  TYR191      0.1771
    169  C       -117.7740    6.8360  -35.5900 C.2   191  TYR191      0.2619
    170  O       -116.5510    6.9270  -35.4760 O.2   191  TYR191     -0.2715
    171  CB      -118.0150    9.2240  -36.4620 C.3   191  TYR191      0.0574
    172  CG      -118.9410   10.1630  -37.2390 C.ar  191  TYR191     -0.0198
    173  CD1     -118.8310   10.2920  -38.6180 C.ar  191  TYR191     -0.0009
    174  CD2     -119.9850   10.8230  -36.6110 C.ar  191  TYR191     -0.0009
    175  CE1     -119.6940   11.0940  -39.3430 C.ar  191  TYR191      0.0417
    176  CE2     -120.8550   11.6210  -37.3240 C.ar  191  TYR191      0.0417
    177  CZ      -120.7070   11.7500  -38.6920 C.ar  191  TYR191      0.1957
    178  OH      -121.5730   12.5440  -39.4000 O.3   191  TYR191     -0.2866
    179  N       -118.4970    5.9250  -34.9460 N.am  192  ARG192     -0.1977
    180  CA      -117.9370    5.0710  -33.9210 C.3   192  ARG192      0.1597
    181  C       -117.3950    3.7910  -34.5450 C.2   192  ARG192      0.2287
    182  O       -118.0280    3.1750  -35.3610 O.2   192  ARG192     -0.2864
    183  CB      -119.0120    4.7460  -32.8820 C.3   192  ARG192      0.0334
    184  CG      -118.5770    3.8600  -31.7450 C.3   192  ARG192      0.0492
    185  CD      -119.7280    3.6210  -30.8140 C.3   192  ARG192      0.2205
    186  NE      -120.2120    4.8620  -30.2230 N.pl3 192  ARG192     -0.0865
    187  CZ      -121.4790    5.1380  -29.9330 C.cat 192  ARG192      0.5346
    188  NH1     -122.4590    4.2790  -30.1800 N.pl3 192  ARG192      0.1354
    189  NH2     -121.7760    6.3060  -29.4130 N.pl3 192  ARG192      0.1354
    190  N       -118.9360   11.1040  -46.1830 N.3   217  GLU217     -0.1245
    191  CA      -120.0600   11.9850  -45.9130 C.3   217  GLU217      0.1567
    192  C       -119.8420   13.3790  -46.4940 C.2   217  GLU217      0.2260
    193  O       -120.7580   14.0010  -47.0270 O.2   217  GLU217     -0.2867
    194  CB      -120.3290   12.0440  -44.4100 C.3   217  GLU217      0.0388
    195  CG      -121.3760   13.0420  -43.9840 C.3   217  GLU217      0.1160
    196  CD      -121.8010   12.8690  -42.5420 C.2   217  GLU217      0.3649
    197  OE1     -122.8220   13.4800  -42.1540 O.co2 217  GLU217     -0.2457
    198  OE2     -121.1260   12.1230  -41.7990 O.co2 217  GLU217     -0.2457
    199  N       -124.5000   10.7260  -44.0000 N.3   223  PRO223     -0.2116
    200  CA      -123.6230    9.8260  -43.2310 C.3   223  PRO223      0.1372
    201  C       -123.4930    8.4790  -43.9040 C.2   223  PRO223      0.2244
    202  O       -124.4650    7.9830  -44.4700 O.2   223  PRO223     -0.2868
    203  CB      -124.3280    9.6780  -41.8760 C.3   223  PRO223      0.0268
    204  CG      -125.4120   10.6790  -41.8620 C.3   223  PRO223      0.0207
    205  CD      -125.7260   11.0600  -43.2580 C.3   223  PRO223      0.0892
@<TRIPOS>BOND
     1   193   192    2
     2   192   191    1
     3   190   191    1
     4   191   194    1
     5   202   201    2
     6   194   195    1
     7   199   205    1
     8   199   200    1
     9   195   196    1
    10   201   200    1
    11   205   204    1
    12   200   203    1
    13    46    45    2
    14   196   197   ar
    15   196   198   ar
    16   203   204    1
    17    45    44    1
    18    44    43    1
    19    44    47    1
    20    51    49   ar
    21    51    53   ar
    22    49    48   ar
    23    54    53    1
    24    53    52   ar
    25    77    76    1
    26    77    78    1
    27    48    47    1
    28    48    50   ar
    29    76    73    1
    30    52    50   ar
    31   178   177    1
    32   175   177   ar
    33   175   173   ar
    34    73    72    1
    35    73    74    1
    36    78    72    1
    37   177   176   ar
    38   173   172   ar
    39   165   163   ar
    40   165   166   ar
    41   163   161   ar
    42    75    74    2
    43    72    65   am
    44   159   158    2
    45    74    79   am
    46   166   164   ar
    47   161   160    1
    48   161   162   ar
    49   160   157    1
    50    65    66    2
    51    65    64    1
    52   176   174   ar
    53   172   174   ar
    54   172   171    1
    55   158   157    1
    56   158   167   am
    57   164   162   ar
    58    79    80    1
    59   157   156    1
    60    64    63    1
    61    64    67    1
    62   168   171    1
    63   168   167    1
    64   168   169    1
    65    86    85   ar
    66    80    81    1
    67    80    83    1
    68    85    87   ar
    69    85    84    1
    70    67    68    1
    71    84    83    1
    72   169   170    2
    73   169   179   am
    74   156   147   am
    75    90    91    2
    76    90    89    1
    77   182   181    2
    78    81    88   am
    79    81    82    2
    80    88    89    1
    81   148   147    2
    82   179   180    1
    83   147   146    1
    84   181   180    1
    85    68    69    1
    86    89    92    1
    87   180   183    1
    88   142   141    2
    89    69    70    1
    90    92    93    1
    91   146   149    1
    92   146   145    1
    93   150   151    1
    94   150   149    1
    95   138   136   am
    96   151   152    1
    97   183   184    1
    98   141   145   am
    99   141   140    1
   100   154   153    1
   101    58    57    2
   102    70    71    1
   103   143   140    1
   104   143   144    1
   105    57    56    1
   106    93    94    2
   107    93    95   am
   108   137   136    2
   109   136   135    1
   110   140   139    1
   111   152   153    2
   112   184   185    1
   113   153   155    1
   114   139   132   am
   115   134   135    1
   116   134   131    1
   117    56    55    1
   118    56    59    1
   119    61    60   ar
   120   185   186    1
   121   132   131    1
   122   132   133    2
   123   131   130    1
   124   186   187    2
   125    60    59    1
   126    60    62   ar
   127   188   187    1
   128   187   189    1
   129    96    97    1
   130   100    97    1
   131   100   101    1
   132   125   124    2
   133    99    98    2
   134   130   124   am
   135    97    98    1
   136   124   123    1
   137   103   101   ar
   138   101   102   ar
   139   129   127    1
   140   127   126    1
   141   123   126    1
   142   123   122    1
   143   126   128    1
   144   108   109    1
   145   108   105    1
   146   107   106    2
   147   106   105    1
   148   104   105    1
   149     1     2    1
   150     6     5    1
   151     5     2    1
   152     2     3    1
   153   113   112    2
   154     7     3   am
   155     7     8    1
   156    14    16   ar
   157    14    12   ar
   158     3     4    2
   159    16    17   ar
   160   112   111    1
   161    11    12    1
   162    11     8    1
   163    12    13   ar
   164     8     9    1
   165    17    15   ar
   166   114   111    1
   167   114   115    1
   168     9    10    2
   169    13    15   ar
   170   111   110    1
   171   117   115   ar
   172   117   119   ar
   173   115   116   ar
   174    42    40   am
   175   119   120   ar
   176    39    40    1
   177    39    38    1
   178    40    41    2
   179   116   118   ar
   180    37    36    2
   181   120   118   ar
   182   120   121    1
   183    31    29   ar
   184    31    33   ar
   185    38    35    1
   186    36    35    1
   187    29    28   ar
   188    33    32   ar
   189    35    34    1
   190    28    27    1
   191    28    30   ar
   192    26    25    2
   193    32    30   ar
   194    27    24    1
   195    24    25    1
   196    24    23    1
   197    21    20    2
   198    23    20   am
   199    20    19    1
   200    22    19    1
   201    19    18    1
