@<TRIPOS>MOLECULE
tmp/2wo8A00.pdb
 181 181 0 0 0
SMALL
GASTEIGER

@<TRIPOS>ATOM
      1  N         11.9870   19.7070    1.1390 N.3    75  GLY75      -0.1210
      2  CA        11.5090   20.9300    1.7650 C.3    75  GLY75       0.1956
      3  C         12.6740   21.8720    1.9970 C.2    75  GLY75       0.2612
      4  O         13.4780   22.1240    1.1000 O.2    75  GLY75      -0.2717
      5  N         12.7840   22.3810    3.2030 N.am   76  ILE76      -0.1965
      6  CA        13.8850   23.2730    3.5200 C.3    76  ILE76       0.1727
      7  C         15.1840   22.4780    3.6000 C.2    76  ILE76       0.2616
      8  O         15.2580   21.4670    4.3180 O.2    76  ILE76      -0.2715
      9  CB        13.6580   23.9270    4.8700 C.3    76  ILE76       0.0290
     10  CG1       12.3790   24.8010    4.8010 C.3    76  ILE76       0.0022
     11  CG2       14.9480   24.6950    5.2970 C.3    76  ILE76       0.0023
     12  CD1       11.6120   24.9370    6.1300 C.3    76  ILE76       0.0001
     13  N         16.2040   22.9360    2.8800 N.am   77  LEU77      -0.1963
     14  CA        17.4700   22.2040    2.8410 C.3    77  LEU77       0.1728
     15  C         18.5090   22.6570    3.8930 C.2    77  LEU77       0.2616
     16  O         19.4420   21.9280    4.2160 O.2    77  LEU77      -0.2715
     17  CB        18.0850   22.3270    1.4540 C.3    77  LEU77       0.0311
     18  CG        17.1570   22.0600    0.2860 C.3    77  LEU77       0.0022
     19  CD1       17.8640   22.4040   -1.0010 C.3    77  LEU77       0.0001
     20  CD2       16.7240   20.5970    0.2850 C.3    77  LEU77       0.0001
     21  N         18.3460   23.8750    4.3880 N.am   78  ALA78      -0.1963
     22  CA        19.2870   24.4430    5.3120 C.3    78  ALA78       0.1728
     23  C         18.7490   25.8210    5.6900 C.2    78  ALA78       0.2616
     24  O         17.7000   26.2480    5.1910 O.2    78  ALA78      -0.2715
     25  CB        20.6400   24.5610    4.6470 C.3    78  ALA78       0.0334
     26  N         19.4150   26.5000    6.5990 N.am   79  HIS79      -0.1973
     27  CA        19.0330   27.8690    6.9100 C.3    79  HIS79       0.1656
     28  C         20.1840   28.5250    7.6460 C.2    79  HIS79       0.2291
     29  O         21.0570   27.8410    8.1650 O.2    79  HIS79      -0.2864
     30  CB        17.7320   27.9590    7.7160 C.3    79  HIS79       0.0771
     31  CG        17.7810   27.2650    9.0410 C.ar   79  HIS79       0.0820
     32  ND1       16.7060   26.5670    9.5490 N.ar   79  HIS79      -0.2267
     33  CD2       18.7790   27.1250    9.9450 C.ar   79  HIS79       0.1154
     34  CE1       17.0320   26.0430   10.7180 C.ar   79  HIS79       0.1986
     35  NE2       18.2850   26.3670   10.9820 N.ar   79  HIS79      -0.2212
     36  N         26.5480   24.6140   -3.6970 N.3   110  LEU110     -0.1231
     37  CA        25.5480   25.6300   -4.0490 C.3   110  LEU110      0.1693
     38  C         24.6970   26.0310   -2.8480 C.2   110  LEU110      0.2592
     39  O         24.3480   27.2050   -2.6780 O.2   110  LEU110     -0.2718
     40  CB        24.6810   25.1390   -5.2240 C.3   110  LEU110      0.0284
     41  CG        25.3920   24.9020   -6.5760 C.3   110  LEU110      0.0019
     42  CD1       24.4570   24.1940   -7.5430 C.3   110  LEU110      0.0001
     43  CD2       25.9320   26.1840   -7.2480 C.3   110  LEU110      0.0001
     44  N         24.3390   25.0530   -2.0170 N.am  111  THR111     -0.1953
     45  CA        23.5570   25.3510   -0.8540 C.3   111  THR111      0.1897
     46  C         24.3640   26.2720    0.0610 C.2   111  THR111      0.2313
     47  O         23.8330   27.2640    0.5430 O.2   111  THR111     -0.2863
     48  CB        23.1170   24.0740   -0.1520 C.3   111  THR111      0.1794
     49  OG1       22.4320   23.2490   -1.0890 O.3   111  THR111     -0.2208
     50  CG2       22.1600   24.3720    0.9740 C.3   111  THR111      0.0378
     51  N         24.4870   29.8450   -1.0160 N.3   114  HIS114     -0.1226
     52  CA        23.2240   30.4960   -0.6750 C.3   114  HIS114      0.1752
     53  C         23.2020   30.8760    0.7940 C.2   114  HIS114      0.2595
     54  O         22.9640   32.0410    1.1420 O.2   114  HIS114     -0.2718
     55  CB        22.0390   29.5750   -1.0380 C.3   114  HIS114      0.0759
     56  CG        20.6850   30.1660   -0.7550 C.ar  114  HIS114      0.0818
     57  ND1       19.9140   30.7500   -1.7400 N.ar  114  HIS114     -0.2268
     58  CD2       19.9680   30.2690    0.3980 C.ar  114  HIS114      0.1154
     59  CE1       18.7700   31.1670   -1.2140 C.ar  114  HIS114      0.1986
     60  NE2       18.7790   30.8870    0.0820 N.ar  114  HIS114     -0.2212
     61  N         23.4580   29.9030    1.6650 N.am  115  GLU115     -0.1979
     62  CA        23.4130   30.1170    3.1220 C.3   115  GLU115      0.1602
     63  C         24.4420   31.1240    3.6380 C.2   115  GLU115      0.2287
     64  O         24.1400   31.9170    4.5350 O.2   115  GLU115     -0.2864
     65  CB        23.5830   28.7840    3.8740 C.3   115  GLU115      0.0415
     66  CG        22.5650   27.6690    3.5100 C.3   115  GLU115      0.1163
     67  CD        21.1340   28.1490    3.6560 C.2   115  GLU115      0.3649
     68  OE1       20.8830   29.0270    4.4990 O.co2 115  GLU115     -0.2457
     69  OE2       20.2630   27.6630    2.9360 O.co2 115  GLU115     -0.2457
     70  N         23.2600   34.4340    3.3830 N.3   118  HIS118     -0.1241
     71  CA        22.4670   34.8580    4.5190 C.3   118  HIS118      0.1621
     72  C         23.3320   35.1850    5.7180 C.2   118  HIS118      0.2264
     73  O         23.0290   36.1180    6.4340 O.2   118  HIS118     -0.2867
     74  CB        21.4800   33.7690    4.9730 C.3   118  HIS118      0.0745
     75  CG        20.3350   33.5370    4.0400 C.ar  118  HIS118      0.0817
     76  ND1       19.4440   34.5280    3.6930 N.ar  118  HIS118     -0.2268
     77  CD2       19.8900   32.4060    3.4450 C.ar  118  HIS118      0.1154
     78  CE1       18.5090   34.0260    2.9100 C.ar  118  HIS118      0.1986
     79  NE2       18.7610   32.7430    2.7370 N.ar  118  HIS118     -0.2212
     80  N         16.4330   37.2190    0.3520 N.3   124  HIS124     -0.1241
     81  CA        16.1010   36.5760   -0.9170 C.3   124  HIS124      0.1621
     82  C         16.0230   37.4840   -2.1270 C.2   124  HIS124      0.2264
     83  O         15.7720   38.6700   -2.0100 O.2   124  HIS124     -0.2867
     84  CB        14.8490   35.7030   -0.7840 C.3   124  HIS124      0.0745
     85  CG        15.1090   34.4470   -0.0260 C.ar  124  HIS124      0.0817
     86  ND1       14.3250   34.0180    1.0240 N.ar  124  HIS124     -0.2268
     87  CD2       16.1340   33.5670   -0.1160 C.ar  124  HIS124      0.1154
     88  CE1       14.8330   32.9050    1.5200 C.ar  124  HIS124      0.1986
     89  NE2       15.9220   32.6060    0.8350 N.ar  124  HIS124     -0.2212
     90  N         15.4870   35.1480  -10.8860 N.3   128  PRO128     -0.2102
     91  CA        15.6650   33.7040  -11.0820 C.3   128  PRO128      0.1504
     92  C         17.1060   33.2670  -11.3730 C.2   128  PRO128      0.2576
     93  O         17.4150   32.0760  -11.2840 O.2   128  PRO128     -0.2718
     94  CB        14.7730   33.3950  -12.2960 C.3   128  PRO128      0.0282
     95  CG        13.7210   34.4530  -12.2600 C.3   128  PRO128      0.0208
     96  CD        14.4720   35.6950  -11.8020 C.3   128  PRO128      0.0893
     97  N         17.9870   34.1950  -11.7300 N.am  129  LYS129     -0.1966
     98  CA        19.3840   33.8050  -12.0010 C.3   129  LYS129      0.1728
     99  C         20.2700   33.9270  -10.7600 C.2   129  LYS129      0.2616
    100  O         21.4180   33.4810  -10.7650 O.2   129  LYS129     -0.2715
    101  CB        19.9970   34.6330  -13.1370 C.3   129  LYS129      0.0311
    102  CG        19.2500   34.5720  -14.4820 C.3   129  LYS129      0.0038
    103  CD        20.1750   34.9540  -15.6380 C.3   129  LYS129      0.0206
    104  CE        21.3040   33.9150  -15.8320 C.3   129  LYS129      0.1093
    105  NZ        22.2740   34.1990  -16.9660 N.3   129  LYS129     -0.1314
    106  N         19.7360   34.5510   -9.7080 N.am  130  ALA130     -0.1963
    107  CA        20.4950   34.7870   -8.4800 C.3   130  ALA130      0.1728
    108  C         20.6910   33.5660   -7.5700 C.2   130  ALA130      0.2616
    109  O         19.7880   32.7400   -7.3860 O.2   130  ALA130     -0.2715
    110  CB        19.8400   35.9080   -7.6840 C.3   130  ALA130      0.0334
    111  N         21.8420   33.4910   -6.9190 N.am  131  VAL131     -0.1977
    112  CA        22.0680   32.3910   -5.9820 C.3   131  VAL131      0.1596
    113  C         21.1620   32.5460   -4.7580 C.2   131  VAL131      0.2287
    114  O         20.7170   31.5500   -4.1630 O.2   131  VAL131     -0.2864
    115  CB        23.5720   32.1920   -5.6160 C.3   131  VAL131      0.0276
    116  CG1       24.0630   33.2400   -4.5950 C.3   131  VAL131      0.0022
    117  CG2       23.7650   30.7760   -5.0910 C.3   131  VAL131      0.0022
    118  N         18.1600   33.4450   -4.8620 N.3   133  PHE133     -0.1228
    119  CA        16.7880   33.0620   -5.2230 C.3   133  PHE133      0.1721
    120  C         16.3820   31.9640   -4.2220 C.2   133  PHE133      0.2437
    121  O         17.2170   31.1570   -3.8550 O.2   133  PHE133     -0.2733
    122  CB        16.7430   32.5510   -6.6690 C.3   133  PHE133      0.0547
    123  CG        15.3450   32.4310   -7.2360 C.ar  133  PHE133     -0.0202
    124  CD1       14.5390   33.5500   -7.3620 C.ar  133  PHE133     -0.0042
    125  CD2       14.8530   31.1960   -7.6740 C.ar  133  PHE133     -0.0042
    126  CE1       13.2360   33.4440   -7.8930 C.ar  133  PHE133     -0.0003
    127  CE2       13.5580   31.0790   -8.2240 C.ar  133  PHE133     -0.0003
    128  CZ        12.7500   32.2020   -8.3280 C.ar  133  PHE133     -0.0000
    129  N         15.1120   31.9480   -3.7660 N.am  134  PRO134     -0.2718
    130  CA        14.6600   30.9990   -2.7350 C.3   134  PRO134      0.1535
    131  C         14.6170   29.5270   -3.1270 C.2   134  PRO134      0.2599
    132  O         14.4320   28.6880   -2.2490 O.2   134  PRO134     -0.2715
    133  CB        13.2210   31.4640   -2.4180 C.3   134  PRO134      0.0310
    134  CG        13.1010   32.8320   -3.0430 C.3   134  PRO134      0.0237
    135  CD        14.0170   32.8280   -4.2170 C.3   134  PRO134      0.0939
    136  N         14.7890   29.1970   -4.4030 N.am  135  THR135     -0.1937
    137  CA        14.6460   27.8020   -4.8330 C.3   135  THR135      0.2028
    138  C         15.8990   27.1170   -5.3390 C.2   135  THR135      0.2642
    139  O         16.5440   27.5830   -6.2960 O.2   135  THR135     -0.2714
    140  CB        13.5800   27.7110   -5.9020 C.3   135  THR135      0.1808
    141  OG1       12.4780   28.4910   -5.4480 O.3   135  THR135     -0.2208
    142  CG2       13.1270   26.2530   -6.1160 C.3   135  THR135      0.0379
    143  N         16.2350   25.9990   -4.6960 N.am  136  TYR136     -0.1959
    144  CA        17.3900   25.2260   -5.1130 C.3   136  TYR136      0.1771
    145  C         17.1730   24.7950   -6.5250 C.2   136  TYR136      0.2619
    146  O         16.0900   24.3530   -6.8820 O.2   136  TYR136     -0.2715
    147  CB        17.5490   23.9320   -4.3010 C.3   136  TYR136      0.0574
    148  CG        18.6850   23.0370   -4.7820 C.ar  136  TYR136     -0.0198
    149  CD1       18.4960   22.0850   -5.7910 C.ar  136  TYR136     -0.0009
    150  CD2       19.9570   23.1370   -4.2170 C.ar  136  TYR136     -0.0009
    151  CE1       19.5720   21.2660   -6.2270 C.ar  136  TYR136      0.0417
    152  CE2       21.0120   22.3420   -4.6440 C.ar  136  TYR136      0.0417
    153  CZ        20.8230   21.4060   -5.6360 C.ar  136  TYR136      0.1957
    154  OH        21.9150   20.6330   -6.0410 O.3   136  TYR136     -0.2866
    155  N         18.2050   24.9050   -7.3330 N.am  137  LYS137     -0.1977
    156  CA        18.1400   24.3020   -8.6380 C.3   137  LYS137      0.1596
    157  C         19.5820   24.0690   -9.0470 C.2   137  LYS137      0.2287
    158  O         20.3810   25.0090   -9.0510 O.2   137  LYS137     -0.2864
    159  CB        17.3930   25.1570   -9.6620 C.3   137  LYS137      0.0298
    160  CG        17.0500   24.3380  -10.9190 C.3   137  LYS137      0.0038
    161  CD        17.1430   25.1470  -12.2100 C.3   137  LYS137      0.0206
    162  CE        17.3470   24.2050  -13.4090 C.3   137  LYS137      0.1093
    163  NZ        17.3690   24.9330  -14.7050 N.3   137  LYS137     -0.1314
    164  N         23.0810   23.6370  -10.8840 N.3   139  VAL139     -0.1245
    165  CA        23.7900   24.2160  -12.0260 C.3   139  VAL139      0.1561
    166  C         25.1950   23.6550  -11.9690 C.2   139  VAL139      0.2260
    167  O         25.7820   23.4900  -10.8900 O.2   139  VAL139     -0.2867
    168  CB        23.8580   25.7770  -12.0630 C.3   139  VAL139      0.0252
    169  CG1       22.4800   26.3970  -11.8370 C.3   139  VAL139      0.0019
    170  CG2       24.8810   26.3160  -11.0670 C.3   139  VAL139      0.0019
    171  N         29.2630   27.5280  -12.5600 N.3   144  PHE144     -0.1241
    172  CA        28.6180   28.4280  -11.6130 C.3   144  PHE144      0.1605
    173  C         29.2540   29.8110  -11.4710 C.2   144  PHE144      0.2264
    174  O         30.4740   29.9430  -11.3810 O.2   144  PHE144     -0.2867
    175  CB        28.5720   27.8070  -10.2280 C.3   144  PHE144      0.0534
    176  CG        28.1150   28.7580   -9.1840 C.ar  144  PHE144     -0.0203
    177  CD1       26.7680   28.9820   -8.9870 C.ar  144  PHE144     -0.0042
    178  CD2       29.0310   29.4700   -8.4310 C.ar  144  PHE144     -0.0042
    179  CE1       26.3230   29.8760   -8.0350 C.ar  144  PHE144     -0.0003
    180  CE2       28.5970   30.3870   -7.4540 C.ar  144  PHE144     -0.0003
    181  CZ        27.2450   30.5870   -7.2650 C.ar  144  PHE144     -0.0000
@<TRIPOS>BOND
     1   105   104    1
     2   104   103    1
     3   103   102    1
     4   163   162    1
     5   102   101    1
     6   162   161    1
     7   101    98    1
     8   171   172    1
     9    94    95    1
    10    94    91    1
    11    95    96    1
    12   161   160    1
    13   168   165    1
    14   168   169    1
    15   168   170    1
    16   165   166    1
    17   165   164    1
    18    98    97    1
    19    98    99    1
    20   166   167    2
    21    96    90    1
    22    97    92   am
    23   172   173    1
    24   172   175    1
    25   173   174    2
    26    92    93    2
    27    92    91    1
    28    91    90    1
    29   160   159    1
    30   100    99    2
    31    99   106   am
    32   175   176    1
    33   106   107    1
    34   159   156    1
    35   176   177   ar
    36   176   178   ar
    37   158   157    2
    38   157   156    1
    39   177   179   ar
    40   156   155    1
    41   107   110    1
    42   107   108    1
    43   178   180   ar
    44   128   127   ar
    45   128   126   ar
    46   127   125   ar
    47   179   181   ar
    48   126   124   ar
    49   125   123   ar
    50   108   109    2
    51   108   111   am
    52    42    41    1
    53   180   181   ar
    54   124   123   ar
    55   155   145   am
    56    43    41    1
    57   123   122    1
    58   111   112    1
    59   146   145    2
    60   122   119    1
    61    41    40    1
    62   145   144    1
    63   139   138    2
    64   151   149   ar
    65   151   153   ar
    66   142   140    1
    67   154   153    1
    68   112   115    1
    69   112   113    1
    70   140   141    1
    71   140   137    1
    72   149   148   ar
    73   153   152   ar
    74   115   117    1
    75   115   116    1
    76   138   137    1
    77   138   143   am
    78    40    37    1
    79   119   118    1
    80   119   120    1
    81   144   143    1
    82   144   147    1
    83   137   136    1
    84   148   147    1
    85   148   150   ar
    86   113   114    2
    87   152   150   ar
    88   136   131   am
    89   120   121    2
    90   120   129   am
    91   135   129    1
    92   135   134    1
    93    37    36    1
    94    37    38    1
    95   129   130    1
    96   131   130    1
    97   131   132    2
    98   134   133    1
    99    38    39    2
   100    38    44   am
   101   130   133    1
   102    82    83    2
   103    82    81    1
   104    44    45    1
   105    57    59   ar
   106    57    56   ar
   107    59    60   ar
   108    49    48    1
   109    55    56    1
   110    55    52    1
   111    51    52    1
   112    19    18    1
   113    81    84    1
   114    81    80    1
   115    45    48    1
   116    45    46    1
   117    84    85    1
   118    56    58   ar
   119    52    53    1
   120    48    50    1
   121    87    85   ar
   122    87    89   ar
   123    85    86   ar
   124    46    47    2
   125    60    58   ar
   126    20    18    1
   127    18    17    1
   128    53    54    2
   129    53    61   am
   130    89    88   ar
   131    86    88   ar
   132     4     3    2
   133     1     2    1
   134    17    14    1
   135    61    62    1
   136     2     3    1
   137     3     5   am
   138    79    78   ar
   139    79    77   ar
   140    14    13    1
   141    14    15    1
   142    13     7   am
   143    78    76   ar
   144    69    67   ar
   145    62    63    1
   146    62    65    1
   147     5     6    1
   148    70    71    1
   149    77    75   ar
   150    66    67    1
   151    66    65    1
   152     6     7    1
   153     6     9    1
   154     7     8    2
   155    63    64    2
   156    67    68   ar
   157    76    75   ar
   158    15    16    2
   159    15    21   am
   160    75    74    1
   161    21    22    1
   162    71    74    1
   163    71    72    1
   164    25    22    1
   165    10     9    1
   166    10    12    1
   167     9    11    1
   168    24    23    2
   169    22    23    1
   170    23    26   am
   171    72    73    2
   172    26    27    1
   173    27    28    1
   174    27    30    1
   175    28    29    2
   176    30    31    1
   177    31    32   ar
   178    31    33   ar
   179    32    34   ar
   180    33    35   ar
   181    34    35   ar
