@<TRIPOS>MOLECULE
tmp/2wo9A00.pdb
 199 199 0 0 0
SMALL
GASTEIGER

@<TRIPOS>ATOM
      1  N         11.9260   19.8700    1.1430 N.3    74  GLY74      -0.1210
      2  CA        11.4530   21.1090    1.8070 C.3    74  GLY74       0.1956
      3  C         12.6250   22.0480    2.1080 C.2    74  GLY74       0.2612
      4  O         13.4060   22.3490    1.1900 O.2    74  GLY74      -0.2717
      5  N         12.7570   22.4880    3.3600 N.am   75  ILE75      -0.1965
      6  CA        13.8780   23.3650    3.7520 C.3    75  ILE75       0.1727
      7  C         15.1450   22.5260    3.7460 C.2    75  ILE75       0.2616
      8  O         15.1830   21.5060    4.3810 O.2    75  ILE75      -0.2715
      9  CB        13.6980   23.9770    5.1740 C.3    75  ILE75       0.0290
     10  CG1       12.4780   24.8990    5.2000 C.3    75  ILE75       0.0022
     11  CG2       15.0020   24.6920    5.6620 C.3    75  ILE75       0.0023
     12  CD1       12.4800   25.9770    4.0660 C.3    75  ILE75       0.0001
     13  N         16.1950   22.9700    3.0710 N.am   76  LEU76      -0.1963
     14  CA        17.4410   22.1960    2.9920 C.3    76  LEU76       0.1728
     15  C         18.5300   22.6530    3.9900 C.2    76  LEU76       0.2616
     16  O         19.4510   21.8770    4.3430 O.2    76  LEU76      -0.2715
     17  CB        18.0060   22.3380    1.5800 C.3    76  LEU76       0.0311
     18  CG        17.0400   21.9950    0.4360 C.3    76  LEU76       0.0022
     19  CD1       17.7170   22.3140   -0.8960 C.3    76  LEU76       0.0001
     20  CD2       16.6120   20.5120    0.4540 C.3    76  LEU76       0.0001
     21  N         18.3700   23.8880    4.4440 N.am   77  ALA77      -0.1963
     22  CA        19.3400   24.5460    5.3300 C.3    77  ALA77       0.1728
     23  C         18.7910   25.9050    5.7040 C.2    77  ALA77       0.2616
     24  O         17.8670   26.3890    5.0740 O.2    77  ALA77      -0.2715
     25  CB        20.6540   24.7350    4.5480 C.3    77  ALA77       0.0334
     26  N         19.3860   26.5330    6.7050 N.am   78  HIS78      -0.1973
     27  CA        19.0180   27.8930    7.0670 C.3    78  HIS78       0.1656
     28  C         20.1880   28.5750    7.7570 C.2    78  HIS78       0.2291
     29  O         21.1190   27.9200    8.2040 O.2    78  HIS78      -0.2864
     30  CB        17.7110   27.9660    7.9110 C.3    78  HIS78       0.0771
     31  CG        17.7760   27.2530    9.2260 C.ar   78  HIS78       0.0820
     32  ND1       16.7060   26.5290    9.7170 N.ar   78  HIS78      -0.2267
     33  CD2       18.7500   27.1630   10.1600 C.ar   78  HIS78       0.1154
     34  CE1       17.0180   26.0250   10.8880 C.ar   78  HIS78       0.1986
     35  NE2       18.2550   26.3860   11.1810 N.ar   78  HIS78      -0.2212
     36  N         26.5450   24.6290   -3.7120 N.3   109  LEU109     -0.1231
     37  CA        25.5310   25.5830   -4.1230 C.3   109  LEU109      0.1693
     38  C         24.6900   25.9990   -2.9280 C.2   109  LEU109      0.2592
     39  O         24.3500   27.1820   -2.7700 O.2   109  LEU109     -0.2718
     40  CB        24.6400   24.9920   -5.2280 C.3   109  LEU109      0.0284
     41  CG        25.3480   24.7130   -6.5610 C.3   109  LEU109      0.0019
     42  CD1       24.3280   24.0480   -7.4930 C.3   109  LEU109      0.0001
     43  CD2       25.8790   26.0070   -7.2050 C.3   109  LEU109      0.0001
     44  N         24.3450   25.0240   -2.0780 N.am  110  THR110     -0.1953
     45  CA        23.5730   25.3340   -0.8780 C.3   110  THR110      0.1897
     46  C         24.3710   26.2130    0.0840 C.2   110  THR110      0.2313
     47  O         23.8420   27.1800    0.6540 O.2   110  THR110     -0.2863
     48  CB        23.0440   24.0470   -0.1880 C.3   110  THR110      0.1794
     49  OG1       22.2800   23.3200   -1.1580 O.3   110  THR110     -0.2208
     50  CG2       22.1370   24.3800    0.9840 C.3   110  THR110      0.0378
     51  N         26.7350   28.3100   -0.6900 N.3   112  VAL112     -0.1231
     52  CA        26.8160   29.6770   -1.2630 C.3   112  VAL112      0.1692
     53  C         25.5790   30.4820   -0.8610 C.2   112  VAL112      0.2592
     54  O         25.6680   31.6240   -0.4250 O.2   112  VAL112     -0.2718
     55  CB        26.9470   29.6700   -2.8050 C.3   112  VAL112      0.0266
     56  CG1       26.7530   31.0760   -3.3720 C.3   112  VAL112      0.0020
     57  CG2       28.3040   29.1140   -3.1840 C.3   112  VAL112      0.0020
     58  N         24.3990   29.8930   -1.0390 N.am  113  HIS113     -0.1962
     59  CA        23.1700   30.5570   -0.6700 C.3   113  HIS113      0.1787
     60  C         23.1340   30.8940    0.8350 C.2   113  HIS113      0.2620
     61  O         22.8030   32.0320    1.2250 O.2   113  HIS113     -0.2715
     62  CB        21.9750   29.6620   -1.1050 C.3   113  HIS113      0.0785
     63  CG        20.6180   30.2030   -0.7500 C.ar  113  HIS113      0.0821
     64  ND1       19.8340   30.8780   -1.6580 N.ar  113  HIS113     -0.2267
     65  CD2       19.9080   30.1640    0.4090 C.ar  113  HIS113      0.1154
     66  CE1       18.6990   31.2260   -1.0830 C.ar  113  HIS113      0.1986
     67  NE2       18.7190   30.8080    0.1750 N.ar  113  HIS113     -0.2212
     68  N         23.4280   29.9190    1.6980 N.am  114  GLU114     -0.1977
     69  CA        23.3660   30.1590    3.1610 C.3   114  GLU114      0.1602
     70  C         24.4000   31.1550    3.6970 C.2   114  GLU114      0.2287
     71  O         24.0920   31.9500    4.5830 O.2   114  GLU114     -0.2864
     72  CB        23.4770   28.8530    3.9530 C.3   114  GLU114      0.0415
     73  CG        22.4160   27.8260    3.5510 C.3   114  GLU114      0.1163
     74  CD        20.9990   28.3090    3.8430 C.2   114  GLU114      0.3649
     75  OE1       20.8320   29.1820    4.7150 O.co2 114  GLU114     -0.2457
     76  OE2       20.0550   27.8090    3.2130 O.co2 114  GLU114     -0.2457
     77  N         23.1680   34.4850    3.4000 N.3   117  HIS117     -0.1241
     78  CA        22.3640   34.8950    4.5520 C.3   117  HIS117      0.1621
     79  C         23.2360   35.2700    5.7820 C.2   117  HIS117      0.2264
     80  O         22.9660   36.2520    6.5070 O.2   117  HIS117     -0.2867
     81  CB        21.4150   33.7650    4.9590 C.3   117  HIS117      0.0745
     82  CG        20.2520   33.5810    4.0410 C.ar  117  HIS117      0.0817
     83  ND1       19.4840   34.6360    3.6040 N.ar  117  HIS117     -0.2268
     84  CD2       19.6780   32.4590    3.5320 C.ar  117  HIS117      0.1154
     85  CE1       18.4950   34.1760    2.8500 C.ar  117  HIS117      0.1986
     86  NE2       18.5810   32.8570    2.8090 N.ar  117  HIS117     -0.2212
     87  N         16.4710   37.3270    0.2550 N.3   123  HIS123     -0.1241
     88  CA        16.1720   36.6990   -1.0180 C.3   123  HIS123      0.1621
     89  C         16.0430   37.6360   -2.2200 C.2   123  HIS123      0.2264
     90  O         15.7750   38.8290   -2.0570 O.2   123  HIS123     -0.2867
     91  CB        14.9300   35.8170   -0.9090 C.3   123  HIS123      0.0745
     92  CG        15.1500   34.5770   -0.1090 C.ar  123  HIS123      0.0817
     93  ND1       14.2300   34.1070    0.8100 N.ar  123  HIS123     -0.2268
     94  CD2       16.1890   33.7140   -0.0740 C.ar  123  HIS123      0.1154
     95  CE1       14.6940   33.0050    1.3720 C.ar  123  HIS123      0.1986
     96  NE2       15.8800   32.7500    0.8560 N.ar  123  HIS123     -0.2212
     97  N         15.5420   35.0170  -11.1510 N.3   127  PRO127     -0.2102
     98  CA        15.6810   33.5600  -11.2210 C.3   127  PRO127      0.1504
     99  C         17.0910   33.0430  -11.5120 C.2   127  PRO127      0.2576
    100  O         17.3370   31.8490  -11.3580 O.2   127  PRO127     -0.2718
    101  CB        14.7260   33.1540  -12.3600 C.3   127  PRO127      0.0282
    102  CG        14.5390   34.3920  -13.1720 C.3   127  PRO127      0.0208
    103  CD        14.6450   35.5440  -12.2030 C.3   127  PRO127      0.0893
    104  N         18.0020   33.9180  -11.9380 N.am  128  LYS128     -0.1966
    105  CA        19.3890   33.5180  -12.2000 C.3   128  LYS128      0.1728
    106  C         20.3070   33.7090  -10.9760 C.2   128  LYS128      0.2616
    107  O         21.4520   33.2930  -11.0050 O.2   128  LYS128     -0.2715
    108  CB        19.9640   34.3210  -13.3740 C.3   128  LYS128      0.0311
    109  CG        19.1480   34.2100  -14.6680 C.3   128  LYS128      0.0038
    110  CD        19.6980   35.1070  -15.7550 C.3   128  LYS128      0.0206
    111  CE        18.8280   35.0240  -17.0100 C.3   128  LYS128      0.1093
    112  NZ        19.1300   36.0970  -18.0060 N.3   128  LYS128     -0.1314
    113  N         19.7790   34.3140   -9.9180 N.am  129  ALA129     -0.1963
    114  CA        20.5670   34.6230   -8.6790 C.3   129  ALA129      0.1728
    115  C         20.7190   33.4480   -7.7320 C.2   129  ALA129      0.2616
    116  O         19.7860   32.6740   -7.5630 O.2   129  ALA129     -0.2715
    117  CB        19.9030   35.7800   -7.9130 C.3   129  ALA129      0.0334
    118  N         21.8840   33.3180   -7.0900 N.am  130  VAL130     -0.1977
    119  CA        22.0670   32.2680   -6.0600 C.3   130  VAL130      0.1596
    120  C         21.1770   32.4940   -4.8440 C.2   130  VAL130      0.2287
    121  O         20.8280   31.5360   -4.1340 O.2   130  VAL130     -0.2864
    122  CB        23.5370   32.1450   -5.5780 C.3   130  VAL130      0.0276
    123  CG1       24.4600   32.0010   -6.7580 C.3   130  VAL130      0.0022
    124  CG2       23.9340   33.3530   -4.7130 C.3   130  VAL130      0.0022
    125  N         18.1410   33.3730   -5.0150 N.3   132  PHE132     -0.1228
    126  CA        16.7460   33.0180   -5.3780 C.3   132  PHE132      0.1721
    127  C         16.3450   32.0040   -4.3050 C.2   132  PHE132      0.2437
    128  O         17.1920   31.2770   -3.8130 O.2   132  PHE132     -0.2733
    129  CB        16.6730   32.4100   -6.7810 C.3   132  PHE132      0.0547
    130  CG        15.2720   32.3430   -7.3680 C.ar  132  PHE132     -0.0202
    131  CD1       14.5430   33.5020   -7.5920 C.ar  132  PHE132     -0.0042
    132  CD2       14.7060   31.1200   -7.7210 C.ar  132  PHE132     -0.0042
    133  CE1       13.2560   33.4470   -8.1450 C.ar  132  PHE132     -0.0003
    134  CE2       13.4040   31.0480   -8.2800 C.ar  132  PHE132     -0.0003
    135  CZ        12.6890   32.2100   -8.4830 C.ar  132  PHE132     -0.0000
    136  N         15.0540   31.9550   -3.9310 N.am  133  PRO133     -0.2718
    137  CA        14.6680   31.1040   -2.7900 C.3   133  PRO133      0.1535
    138  C         14.6570   29.5950   -3.0400 C.2   133  PRO133      0.2599
    139  O         14.5620   28.8260   -2.0970 O.2   133  PRO133     -0.2715
    140  CB        13.2440   31.6020   -2.4390 C.3   133  PRO133      0.0310
    141  CG        13.1260   32.9790   -3.1340 C.3   133  PRO133      0.0237
    142  CD        13.9580   32.8340   -4.3780 C.3   133  PRO133      0.0939
    143  N         14.7680   29.1870   -4.2850 N.am  134  THR134     -0.1937
    144  CA        14.6320   27.7840   -4.6330 C.3   134  THR134      0.2028
    145  C         15.8780   27.1490   -5.2190 C.2   134  THR134      0.2642
    146  O         16.4540   27.6270   -6.2090 O.2   134  THR134     -0.2714
    147  CB        13.4680   27.5890   -5.6170 C.3   134  THR134      0.1808
    148  OG1       12.2920   28.2080   -5.0800 O.3   134  THR134     -0.2208
    149  CG2       13.2270   26.0920   -5.8850 C.3   134  THR134      0.0379
    150  N         16.2870   26.0450   -4.6090 N.am  135  TYR135     -0.1959
    151  CA        17.4220   25.3010   -5.0980 C.3   135  TYR135      0.1771
    152  C         17.2870   24.8260   -6.5490 C.2   135  TYR135      0.2619
    153  O         16.2400   24.3360   -6.9490 O.2   135  TYR135     -0.2715
    154  CB        17.6800   24.0660   -4.2010 C.3   135  TYR135      0.0574
    155  CG        18.7620   23.1510   -4.7150 C.ar  135  TYR135     -0.0198
    156  CD1       18.4750   22.1470   -5.6410 C.ar  135  TYR135     -0.0009
    157  CD2       20.0780   23.2760   -4.2830 C.ar  135  TYR135     -0.0009
    158  CE1       19.4710   21.3110   -6.1350 C.ar  135  TYR135      0.0417
    159  CE2       21.0830   22.4330   -4.7570 C.ar  135  TYR135      0.0417
    160  CZ        20.7710   21.4570   -5.6930 C.ar  135  TYR135      0.1957
    161  OH        21.7660   20.6380   -6.1540 O.3   135  TYR135     -0.2866
    162  N         18.3520   24.9930   -7.3260 N.am  136  LYS136     -0.1977
    163  CA        18.4590   24.3470   -8.6340 C.3   136  LYS136      0.1596
    164  C         19.9170   24.0370   -8.9150 C.2   136  LYS136      0.2287
    165  O         20.8190   24.8000   -8.5260 O.2   136  LYS136     -0.2864
    166  CB        17.8560   25.1770   -9.7790 C.3   136  LYS136      0.0298
    167  CG        18.7330   26.3410  -10.2460 C.3   136  LYS136      0.0038
    168  CD        18.1560   27.0070  -11.4840 C.3   136  LYS136      0.0206
    169  CE        18.9140   28.2820  -11.8320 C.3   136  LYS136      0.1093
    170  NZ        18.2840   28.9800  -12.9870 N.3   136  LYS136     -0.1314
    171  N         23.3540   23.7100  -10.9820 N.3   138  VAL138     -0.1245
    172  CA        24.1250   24.2490  -12.1040 C.3   138  VAL138      0.1561
    173  C         25.5190   23.6580  -12.0440 C.2   138  VAL138      0.2260
    174  O         26.0710   23.4190  -10.9550 O.2   138  VAL138     -0.2867
    175  CB        24.2490   25.7850  -12.1160 C.3   138  VAL138      0.0252
    176  CG1       24.6940   26.2930  -10.7850 C.3   138  VAL138      0.0019
    177  CG2       25.2510   26.2010  -13.1850 C.3   138  VAL138      0.0019
    178  N         29.5400   27.5070  -12.8420 N.3   143  PHE143     -0.1227
    179  CA        28.8840   28.3970  -11.8840 C.3   143  PHE143      0.1736
    180  C         29.5040   29.7930  -11.7500 C.2   143  PHE143      0.2595
    181  O         30.7280   29.9500  -11.6520 O.2   143  PHE143     -0.2718
    182  CB        28.8480   27.7580  -10.4840 C.3   143  PHE143      0.0547
    183  CG        28.4570   28.7230   -9.4070 C.ar  143  PHE143     -0.0202
    184  CD1       27.1350   28.8710   -9.0370 C.ar  143  PHE143     -0.0042
    185  CD2       29.4130   29.5230   -8.8000 C.ar  143  PHE143     -0.0042
    186  CE1       26.7870   29.7800   -8.0570 C.ar  143  PHE143     -0.0003
    187  CE2       29.0680   30.4380   -7.8350 C.ar  143  PHE143     -0.0003
    188  CZ        27.7700   30.5650   -7.4590 C.ar  143  PHE143     -0.0000
    189  N         28.6370   30.7990  -11.6880 N.am  144  ARG144     -0.1980
    190  CA        29.0600   32.1690  -11.4540 C.3   144  ARG144      0.1597
    191  C         27.9480   32.8780  -10.6710 C.2   144  ARG144      0.2287
    192  O         26.7730   32.5570  -10.8380 O.2   144  ARG144     -0.2864
    193  CB        29.3120   32.8990  -12.7870 C.3   144  ARG144      0.0334
    194  CG        28.1170   32.8610  -13.7320 C.3   144  ARG144      0.0492
    195  CD        28.2650   33.7380  -14.9800 C.3   144  ARG144      0.2205
    196  NE        28.3110   35.1610  -14.6560 N.pl3 144  ARG144     -0.0865
    197  CZ        27.2400   35.9220  -14.4260 C.cat 144  ARG144      0.5346
    198  NH1       26.0270   35.4090  -14.4570 N.pl3 144  ARG144      0.1354
    199  NH2       27.3910   37.2040  -14.1210 N.pl3 144  ARG144      0.1354
@<TRIPOS>BOND
     1   112   111    1
     2   111   110    1
     3   110   109    1
     4   195   196    1
     5   195   194    1
     6   109   108    1
     7   196   197    2
     8   198   197    1
     9   197   199    1
    10   194   193    1
    11   108   105    1
    12   177   175    1
    13   102   101    1
    14   102   103    1
    15   170   169    1
    16   178   179    1
    17   193   190    1
    18   101    98    1
    19   103    97    1
    20   105   104    1
    21   105   106    1
    22   175   172    1
    23   175   176    1
    24   172   173    1
    25   172   171    1
    26   173   174    2
    27   104    99   am
    28   179   180    1
    29   179   182    1
    30   169   168    1
    31   180   189   am
    32   180   181    2
    33   189   190    1
    34    99   100    2
    35    99    98    1
    36   168   167    1
    37   190   191    1
    38    98    97    1
    39   107   106    2
    40   106   113   am
    41   192   191    2
    42   182   183    1
    43   167   166    1
    44   113   114    1
    45   166   163    1
    46   183   184   ar
    47   183   185   ar
    48   184   186   ar
    49   164   163    1
    50   164   165    2
    51   185   187   ar
    52   114   117    1
    53   114   115    1
    54   163   162    1
    55   135   134   ar
    56   135   133   ar
    57   134   132   ar
    58   133   131   ar
    59   186   188   ar
    60   187   188   ar
    61   115   116    2
    62   115   118   am
    63   132   130   ar
    64   131   130   ar
    65    42    41    1
    66   130   129    1
    67   162   152   am
    68    43    41    1
    69   118   119    1
    70   153   152    2
    71   129   126    1
    72   123   122    1
    73    41    40    1
    74   152   151    1
    75   146   145    2
    76   161   160    1
    77   158   160   ar
    78   158   156   ar
    79   119   122    1
    80   119   120    1
    81   149   147    1
    82   160   159   ar
    83   156   155   ar
    84   147   148    1
    85   147   144    1
    86   122   124    1
    87   126   125    1
    88   126   127    1
    89    40    37    1
    90   145   144    1
    91   145   150   am
    92   151   150    1
    93   151   154    1
    94   120   121    2
    95   159   157   ar
    96   155   157   ar
    97   155   154    1
    98   144   143    1
    99   142   136    1
   100   142   141    1
   101   127   136   am
   102   127   128    2
   103   143   138   am
   104    37    36    1
   105    37    38    1
   106   136   137    1
   107    56    55    1
   108    57    55    1
   109   141   140    1
   110   138   137    1
   111   138   139    2
   112    38    39    2
   113    38    44   am
   114    55    52    1
   115   137   140    1
   116    89    90    2
   117    89    88    1
   118    44    45    1
   119    64    66   ar
   120    64    63   ar
   121    52    53    1
   122    52    51    1
   123    49    48    1
   124    62    63    1
   125    62    59    1
   126    66    67   ar
   127    58    53   am
   128    58    59    1
   129    88    91    1
   130    88    87    1
   131    91    92    1
   132    19    18    1
   133    45    48    1
   134    45    46    1
   135    53    54    2
   136    63    65   ar
   137    59    60    1
   138    48    50    1
   139    92    94   ar
   140    92    93   ar
   141    94    96   ar
   142    46    47    2
   143    67    65   ar
   144    18    20    1
   145    18    17    1
   146    93    95   ar
   147    60    61    2
   148    60    68   am
   149    96    95   ar
   150     1     2    1
   151     4     3    2
   152    17    14    1
   153    68    69    1
   154     2     3    1
   155     3     5   am
   156    86    85   ar
   157    86    84   ar
   158    85    83   ar
   159    14    13    1
   160    14    15    1
   161    13     7   am
   162    69    70    1
   163    69    72    1
   164    76    74   ar
   165     5     6    1
   166    77    78    1
   167    84    82   ar
   168    73    74    1
   169    73    72    1
   170    83    82   ar
   171    70    71    2
   172     7     6    1
   173     7     8    2
   174     6     9    1
   175    74    75   ar
   176    15    16    2
   177    15    21   am
   178    82    81    1
   179    12    10    1
   180    21    22    1
   181    25    22    1
   182    78    81    1
   183    78    79    1
   184    24    23    2
   185     9    10    1
   186     9    11    1
   187    22    23    1
   188    23    26   am
   189    79    80    2
   190    26    27    1
   191    27    28    1
   192    27    30    1
   193    28    29    2
   194    30    31    1
   195    31    32   ar
   196    31    33   ar
   197    32    34   ar
   198    33    35   ar
   199    34    35   ar
