@<TRIPOS>MOLECULE
tmp/2woaD00.pdb
 146 146 0 0 0
SMALL
GASTEIGER

@<TRIPOS>ATOM
      1  N         25.1200   30.3070   48.9430 N.3    73  GLY73      -0.1210
      2  CA        23.7110   30.4400   48.6010 C.3    73  GLY73       0.1956
      3  C         23.4960   30.9010   47.1690 C.2    73  GLY73       0.2612
      4  O         24.4380   30.8960   46.3320 O.2    73  GLY73      -0.2717
      5  N         22.2610   31.3150   46.8800 N.am   74  GLY74      -0.1942
      6  CA        21.9150   31.7130   45.5440 C.3    74  GLY74       0.2014
      7  C         22.1490   30.5460   44.5960 C.2    74  GLY74       0.2639
      8  O         21.7560   29.4070   44.8830 O.2    74  GLY74      -0.2714
      9  N         22.7530   30.8250   43.4430 N.am   75  ILE75      -0.1963
     10  CA        23.0570   29.7750   42.4810 C.3    75  ILE75       0.1727
     11  C         24.0380   28.7590   43.1470 C.2    75  ILE75       0.2616
     12  O         25.0920   29.1200   43.6840 O.2    75  ILE75      -0.2715
     13  CB        23.6130   30.4010   41.1660 C.3    75  ILE75       0.0290
     14  CG1       22.5390   31.2840   40.5250 C.3    75  ILE75       0.0022
     15  CG2       24.0750   29.3430   40.1520 C.3    75  ILE75       0.0023
     16  CD1       23.1490   32.4820   39.7260 C.3    75  ILE75       0.0001
     17  N         23.6560   27.4910   43.1450 N.am   76  LEU76      -0.1963
     18  CA        24.5050   26.4520   43.7240 C.3    76  LEU76       0.1728
     19  C         25.3920   25.8190   42.6700 C.2    76  LEU76       0.2616
     20  O         26.4430   25.2740   42.9980 O.2    76  LEU76      -0.2715
     21  CB        23.6450   25.3100   44.3020 C.3    76  LEU76       0.0311
     22  CG        22.5230   25.6650   45.2580 C.3    76  LEU76       0.0022
     23  CD1       21.5840   24.4410   45.4790 C.3    76  LEU76       0.0001
     24  CD2       23.1420   26.2090   46.5820 C.3    76  LEU76       0.0001
     25  N         24.9510   25.8450   41.4150 N.am   77  ALA77      -0.1963
     26  CA        25.6720   25.1070   40.3710 C.3    77  ALA77       0.1728
     27  C         25.0640   25.3950   39.0080 C.2    77  ALA77       0.2616
     28  O         24.0030   25.9960   38.9390 O.2    77  ALA77      -0.2715
     29  CB        25.5870   23.5880   40.6650 C.3    77  ALA77       0.0334
     30  N         25.7400   25.0140   37.9330 N.am   78  HIS78      -0.1973
     31  CA        25.1520   25.1480   36.6010 C.3    78  HIS78       0.1656
     32  C         25.8300   24.2220   35.5930 C.2    78  HIS78       0.2291
     33  O         26.9080   23.6810   35.8580 O.2    78  HIS78      -0.2864
     34  CB        25.1220   26.6000   36.0790 C.3    78  HIS78       0.0771
     35  CG        26.4610   27.2470   36.0330 C.ar   78  HIS78       0.0820
     36  ND1       26.6840   28.5260   36.4880 N.ar   78  HIS78      -0.2267
     37  CD2       27.6680   26.7660   35.6510 C.ar   78  HIS78       0.1154
     38  CE1       27.9650   28.8210   36.3500 C.ar   78  HIS78       0.1986
     39  NE2       28.5830   27.7670   35.8530 N.ar   78  HIS78      -0.2212
     40  N         21.9890   15.1530   44.7940 N.3   109  LEU109     -0.1231
     41  CA        20.8030   15.7550   44.2410 C.3   109  LEU109      0.1693
     42  C         21.0950   16.9310   43.3130 C.2   109  LEU109      0.2592
     43  O         20.5080   17.0180   42.2490 O.2   109  LEU109     -0.2718
     44  CB        19.8130   16.1300   45.3390 C.3   109  LEU109      0.0284
     45  CG        19.2610   14.9790   46.2030 C.3   109  LEU109      0.0019
     46  CD1       18.6700   15.4980   47.5160 C.3   109  LEU109      0.0001
     47  CD2       18.2440   14.1240   45.4410 C.3   109  LEU109      0.0001
     48  N         22.0040   17.8210   43.6920 N.am  110  THR110     -0.1953
     49  CA        22.3350   18.9440   42.8190 C.3   110  THR110      0.1897
     50  C         22.9090   18.3710   41.5450 C.2   110  THR110      0.2313
     51  O         22.6030   18.8570   40.4640 O.2   110  THR110     -0.2863
     52  CB        23.3930   19.8440   43.4350 C.3   110  THR110      0.1794
     53  OG1       22.9520   20.2330   44.7300 O.3   110  THR110     -0.2208
     54  CG2       23.6430   21.0980   42.5470 C.3   110  THR110      0.0378
     55  N         20.3850   17.1980   39.0520 N.3   113  HIS113     -0.1226
     56  CA        19.7930   18.3450   38.3720 C.3   113  HIS113      0.1752
     57  C         20.7150   18.8690   37.2770 C.2   113  HIS113      0.2595
     58  O         20.2810   19.0530   36.1480 O.2   113  HIS113     -0.2718
     59  CB        19.4730   19.4580   39.3780 C.3   113  HIS113      0.0759
     60  CG        18.8050   20.6560   38.7690 C.ar  113  HIS113      0.0818
     61  ND1       17.4390   20.8140   38.7550 N.ar  113  HIS113     -0.2268
     62  CD2       19.3160   21.7520   38.1550 C.ar  113  HIS113      0.1154
     63  CE1       17.1340   21.9580   38.1640 C.ar  113  HIS113      0.1986
     64  NE2       18.2560   22.5450   37.7910 N.ar  113  HIS113     -0.2212
     65  N         21.9800   19.0990   37.6140 N.am  114  GLU114     -0.1979
     66  CA        22.9640   19.5870   36.6360 C.3   114  GLU114      0.1602
     67  C         23.1440   18.6560   35.4180 C.2   114  GLU114      0.2287
     68  O         23.1330   19.0990   34.2720 O.2   114  GLU114     -0.2864
     69  CB        24.3000   19.8960   37.3040 C.3   114  GLU114      0.0415
     70  CG        24.2250   20.8730   38.5000 C.3   114  GLU114      0.1163
     71  CD        23.2950   22.0570   38.2750 C.2   114  GLU114      0.3649
     72  OE1       23.2130   22.5830   37.1300 O.co2 114  GLU114     -0.2457
     73  OE2       22.6360   22.4650   39.2580 O.co2 114  GLU114     -0.2457
     74  N         20.6090   18.9840   32.8510 N.3   117  HIS117     -0.1241
     75  CA        21.0050   20.0060   31.8840 C.3   117  HIS117      0.1621
     76  C         22.0520   19.4690   30.9130 C.2   117  HIS117      0.2264
     77  O         21.9480   19.6940   29.7150 O.2   117  HIS117     -0.2867
     78  CB        21.5820   21.2370   32.5710 C.3   117  HIS117      0.0745
     79  CG        20.5810   22.0480   33.3280 C.ar  117  HIS117      0.0817
     80  ND1       19.4300   22.5430   32.7530 N.ar  117  HIS117     -0.2268
     81  CD2       20.5960   22.5140   34.5950 C.ar  117  HIS117      0.1154
     82  CE1       18.7660   23.2530   33.6420 C.ar  117  HIS117      0.1986
     83  NE2       19.4580   23.2540   34.7650 N.ar  117  HIS117     -0.2212
     84  N         14.3620   23.4930   32.6080 N.3   123  HIS123     -0.1241
     85  CA        13.6040   23.4230   33.8550 C.3   123  HIS123      0.1621
     86  C         12.1320   22.9620   33.7600 C.2   123  HIS123      0.2264
     87  O         11.5100   22.9910   32.6970 O.2   123  HIS123     -0.2867
     88  CB        13.6600   24.7740   34.5660 C.3   123  HIS123      0.0745
     89  CG        15.0220   25.1260   35.0560 C.ar  123  HIS123      0.0817
     90  ND1       15.5390   26.4010   34.9780 N.ar  123  HIS123     -0.2268
     91  CD2       16.0030   24.3530   35.5750 C.ar  123  HIS123      0.1154
     92  CE1       16.7730   26.4010   35.4510 C.ar  123  HIS123      0.1986
     93  NE2       17.0760   25.1720   35.8220 N.ar  123  HIS123     -0.2212
     94  N         12.8700   16.8080   39.5750 N.3   130  VAL130     -0.1245
     95  CA        14.2600   17.1580   39.9640 C.3   130  VAL130      0.1561
     96  C         14.7430   18.3330   39.0990 C.2   130  VAL130      0.2260
     97  O         15.6120   19.1060   39.5070 O.2   130  VAL130     -0.2867
     98  CB        15.2720   15.9530   39.9010 C.3   130  VAL130      0.0252
     99  CG1       15.5690   15.5120   38.4380 C.3   130  VAL130      0.0019
    100  CG2       16.5870   16.2980   40.6040 C.3   130  VAL130      0.0019
    101  N         13.0120   20.8790   38.5830 N.3   132  PHE132     -0.1228
    102  CA        12.4940   22.1110   39.2220 C.3   132  PHE132      0.1721
    103  C         13.7550   22.8570   39.6740 C.2   132  PHE132      0.2437
    104  O         14.6680   22.2560   40.2620 O.2   132  PHE132     -0.2733
    105  CB        11.5980   21.7540   40.4020 C.3   132  PHE132      0.0547
    106  CG        10.7400   22.8880   40.9110 C.ar  132  PHE132     -0.0202
    107  CD1        9.6690   23.3550   40.1660 C.ar  132  PHE132     -0.0042
    108  CD2       10.9640   23.4330   42.1650 C.ar  132  PHE132     -0.0042
    109  CE1        8.8520   24.3650   40.6450 C.ar  132  PHE132     -0.0003
    110  CE2       10.1480   24.4520   42.6630 C.ar  132  PHE132     -0.0003
    111  CZ         9.0890   24.9140   41.9100 C.ar  132  PHE132     -0.0000
    112  N         13.8400   24.1680   39.3780 N.am  133  PRO133     -0.2718
    113  CA        15.1210   24.8700   39.6160 C.3   133  PRO133      0.1535
    114  C         15.4030   25.3570   41.0320 C.2   133  PRO133      0.2599
    115  O         16.0460   26.4020   41.2100 O.2   133  PRO133     -0.2715
    116  CB        15.0380   26.0530   38.6540 C.3   133  PRO133      0.0310
    117  CG        13.5500   26.3550   38.6040 C.3   133  PRO133      0.0237
    118  CD        12.8320   25.0410   38.7420 C.3   133  PRO133      0.0939
    119  N         14.9150   24.6490   42.0350 N.am  134  THR134     -0.1937
    120  CA        15.2150   25.0430   43.4160 C.3   134  THR134      0.2028
    121  C         15.6390   23.7910   44.2070 C.2   134  THR134      0.2642
    122  O         15.1940   22.6750   43.9080 O.2   134  THR134     -0.2714
    123  CB        14.0150   25.7180   44.1330 C.3   134  THR134      0.1808
    124  OG1       13.1440   24.7120   44.6250 O.3   134  THR134     -0.2208
    125  CG2       13.2230   26.6720   43.2190 C.3   134  THR134      0.0379
    126  N         16.4860   23.9800   45.2070 N.am  135  TYR135     -0.1959
    127  CA        16.9860   22.8850   46.0260 C.3   135  TYR135      0.1771
    128  C         15.9120   22.1600   46.8430 C.2   135  TYR135      0.2619
    129  O         14.9360   22.7500   47.2860 O.2   135  TYR135     -0.2715
    130  CB        18.0350   23.4330   47.0050 C.3   135  TYR135      0.0574
    131  CG        18.7150   22.3890   47.8940 C.ar  135  TYR135     -0.0198
    132  CD1       18.2020   22.0680   49.1380 C.ar  135  TYR135     -0.0009
    133  CD2       19.8790   21.7320   47.4720 C.ar  135  TYR135     -0.0009
    134  CE1       18.8270   21.1410   49.9610 C.ar  135  TYR135      0.0417
    135  CE2       20.4920   20.7680   48.2490 C.ar  135  TYR135      0.0417
    136  CZ        19.9690   20.4800   49.4980 C.ar  135  TYR135      0.1957
    137  OH        20.6120   19.5490   50.2880 O.3   135  TYR135     -0.2866
    138  N         16.0910   20.8590   47.0080 N.am  136  LYS136     -0.1977
    139  CA        15.3330   20.0980   48.0260 C.3   136  LYS136      0.1596
    140  C         16.2670   19.0200   48.5860 C.2   136  LYS136      0.2287
    141  O         17.2440   18.6190   47.9550 O.2   136  LYS136     -0.2864
    142  CB        14.0540   19.4340   47.5080 C.3   136  LYS136      0.0298
    143  CG        14.2990   18.1760   46.6820 C.3   136  LYS136      0.0038
    144  CD        14.1510   18.4390   45.1900 C.3   136  LYS136      0.0206
    145  CE        12.6670   18.7250   44.8660 C.3   136  LYS136      0.1093
    146  NZ        12.3610   18.7860   43.3840 N.3   136  LYS136     -0.1314
@<TRIPOS>BOND
     1    77    76    2
     2    76    75    1
     3    75    78    1
     4    75    74    1
     5    78    79    1
     6    84    85    1
     7    87    86    2
     8    80    79   ar
     9    80    82   ar
    10    79    81   ar
    11    82    83   ar
    12    86    85    1
    13    85    88    1
    14    68    67    2
    15    88    89    1
    16    81    83   ar
    17    90    89   ar
    18    90    92   ar
    19    89    91   ar
    20    67    66    1
    21    92    93   ar
    22    91    93   ar
    23    32    33    2
    24    32    31    1
    25    37    39   ar
    26    37    35   ar
    27    39    38   ar
    28    35    34    1
    29    35    36   ar
    30    34    31    1
    31    58    57    2
    32    38    36   ar
    33    31    30    1
    34    66    69    1
    35    66    65    1
    36    72    71   ar
    37    57    65   am
    38    57    56    1
    39    69    70    1
    40    64    62   ar
    41    64    63   ar
    42    30    27   am
    43    62    60   ar
    44    63    61   ar
    45    71    70    1
    46    71    73   ar
    47    56    55    1
    48    56    59    1
    49    99    98    1
    50   101   102    1
    51   117   116    1
    52   117   118    1
    53   116   113    1
    54   118   112    1
    55    61    60   ar
    56    60    59    1
    57    28    27    2
    58    27    26    1
    59    96    97    2
    60    96    95    1
    61   102   103    1
    62   102   105    1
    63   112   113    1
    64   112   103   am
    65    94    95    1
    66   113   114    1
    67   103   104    2
    68    16    14    1
    69    98    95    1
    70    98   100    1
    71    15    13    1
    72   107   109   ar
    73   107   106   ar
    74    26    29    1
    75    26    25    1
    76   105   106    1
    77    51    50    2
    78    14    13    1
    79   109   111   ar
    80   106   108   ar
    81   114   115    2
    82   114   119   am
    83    13    10    1
    84    25    19   am
    85    50    49    1
    86   111   110   ar
    87   119   120    1
    88   108   110   ar
    89    43    42    2
    90    10    11    1
    91    10     9    1
    92    54    52    1
    93    19    20    2
    94    19    18    1
    95    49    52    1
    96    49    48    1
    97    17    11   am
    98    17    18    1
    99    11    12    2
   100   125   123    1
   101    42    48   am
   102    42    41    1
   103   146   145    1
   104   120   123    1
   105   120   121    1
   106    52    53    1
   107     9     7   am
   108    18    21    1
   109   122   121    2
   110   123   124    1
   111   121   126   am
   112    41    40    1
   113    41    44    1
   114    21    22    1
   115     7     8    2
   116     7     6    1
   117   145   144    1
   118   144   143    1
   119   126   127    1
   120    22    23    1
   121    22    24    1
   122    44    45    1
   123    47    45    1
   124     6     5    1
   125   127   128    1
   126   127   130    1
   127    45    46    1
   128     4     3    2
   129   143   142    1
   130   128   138   am
   131   128   129    2
   132     5     3   am
   133   130   131    1
   134   138   139    1
   135     3     2    1
   136   133   131   ar
   137   133   135   ar
   138   142   139    1
   139   131   132   ar
   140   141   140    2
   141   139   140    1
   142   135   136   ar
   143     2     1    1
   144   132   134   ar
   145   136   134   ar
   146   136   137    1
