@<TRIPOS>MOLECULE
tmp/2wogB01.pdb
 153 146 0 0 0
SMALL
GASTEIGER

@<TRIPOS>ATOM
      1  N         23.6380  -32.7950  -40.6200 N.3    95  THR95      -0.1218
      2  CA        23.2620  -32.5010  -39.2400 C.3    95  THR95       0.1862
      3  C         22.3880  -33.6400  -38.7370 C.2    95  THR95       0.2287
      4  O         22.6090  -34.1550  -37.6250 O.2    95  THR95      -0.2866
      5  CB        22.5370  -31.1520  -39.1280 C.3    95  THR95       0.1770
      6  OG1       23.4630  -30.1310  -39.5260 O.3    95  THR95      -0.2211
      7  CG2       22.0660  -30.8800  -37.6730 C.3    95  THR95       0.0375
      8  N         24.0470  -35.1520  -35.5020 N.3    99  GLU99      -0.1231
      9  CA        23.2760  -34.8330  -34.2840 C.3    99  GLU99       0.1699
     10  C         21.9580  -35.5620  -34.1950 C.2    99  GLU99       0.2593
     11  O         21.5880  -36.0760  -33.1150 O.2    99  GLU99      -0.2718
     12  CB        22.9800  -33.3440  -34.2070 C.3    99  GLU99       0.0402
     13  CG        24.2580  -32.5220  -34.0610 C.3    99  GLU99       0.1161
     14  CD        23.9890  -31.0460  -33.8580 C.2    99  GLU99       0.3649
     15  OE1       22.8210  -30.6160  -33.9640 O.co2  99  GLU99      -0.2457
     16  OE2       24.9740  -30.3020  -33.6480 O.co2  99  GLU99      -0.2457
     17  N         21.2260  -35.5380  -35.3130 N.am  100  GLY100     -0.1942
     18  CA        19.8660  -36.0150  -35.3600 C.3   100  GLY100      0.2014
     19  C         18.8680  -34.9320  -34.9950 C.2   100  GLY100      0.2639
     20  O         19.2070  -33.7370  -34.9050 O.2   100  GLY100     -0.2714
     21  N         17.6440  -35.3770  -34.7320 N.am  101  GLU101     -0.1963
     22  CA        16.5160  -34.5090  -34.4390 C.3   101  GLU101      0.1733
     23  C         15.7780  -35.1110  -33.2530 C.2   101  GLU101      0.2616
     24  O         15.9080  -36.3090  -33.0100 O.2   101  GLU101     -0.2715
     25  CB        15.6050  -34.4200  -35.6600 C.3   101  GLU101      0.0429
     26  CG        16.3460  -33.7690  -36.8560 C.3   101  GLU101      0.1163
     27  CD        15.4960  -33.6570  -38.1010 C.2   101  GLU101      0.3649
     28  OE1       14.3130  -34.0360  -38.0270 O.co2 101  GLU101     -0.2457
     29  OE2       16.0270  -33.2270  -39.1510 O.co2 101  GLU101     -0.2457
     30  N         15.0190  -34.2960  -32.5170 N.am  102  ARG102     -0.1977
     31  CA        14.1220  -34.8440  -31.4830 C.3   102  ARG102      0.1597
     32  C         12.7790  -35.1360  -32.1080 C.2   102  ARG102      0.2287
     33  O         12.2130  -34.2460  -32.7380 O.2   102  ARG102     -0.2864
     34  CB        13.8920  -33.8220  -30.3480 C.3   102  ARG102      0.0334
     35  CG        15.0720  -33.6540  -29.4470 C.3   102  ARG102      0.0492
     36  CD        14.8320  -34.2020  -28.0390 C.3   102  ARG102      0.2205
     37  NE        14.4210  -35.5760  -28.1120 N.pl3 102  ARG102     -0.0865
     38  CZ        13.7430  -36.2670  -27.1970 C.cat 102  ARG102      0.5346
     39  NH1       13.3530  -35.7650  -26.0450 N.pl3 102  ARG102      0.1354
     40  NH2       13.4240  -37.5060  -27.4930 N.pl3 102  ARG102      0.1354
     41  N         15.2050  -39.2290  -24.7890 N.3   110  TRP110     -0.1241
     42  CA        16.2640  -38.8710  -25.7370 C.3   110  TRP110      0.1605
     43  C         17.1430  -40.0870  -26.0970 C.2   110  TRP110      0.2264
     44  O         17.7020  -40.1330  -27.1840 O.2   110  TRP110     -0.2867
     45  CB        17.1080  -37.6900  -25.2370 C.3   110  TRP110      0.0550
     46  CG        17.9880  -37.9940  -24.0230 C.ar  110  TRP110      0.0003
     47  CD1       17.6550  -37.8330  -22.6840 C.ar  110  TRP110      0.0946
     48  CD2       19.3280  -38.5120  -24.0410 C.ar  110  TRP110      0.0152
     49  NE1       18.7290  -38.1930  -21.8980 N.ar  110  TRP110     -0.2442
     50  CE2       19.7510  -38.6350  -22.6980 C.ar  110  TRP110      0.0810
     51  CE3       20.2080  -38.8940  -25.0660 C.ar  110  TRP110      0.0012
     52  CZ2       21.0280  -39.0730  -22.3610 C.ar  110  TRP110      0.0191
     53  CZ3       21.4440  -39.3420  -24.7490 C.ar  110  TRP110      0.0001
     54  CH2       21.8630  -39.4400  -23.3930 C.ar  110  TRP110      0.0015
     55  N         15.0960  -42.1140  -28.7900 N.3   113  ASP113     -0.1239
     56  CA        14.4740  -41.3990  -29.8930 C.3   113  ASP113      0.1674
     57  C         15.0500  -41.9790  -31.2080 C.2   113  ASP113      0.2266
     58  O         16.2580  -41.9900  -31.3670 O.2   113  ASP113     -0.2867
     59  CB        14.8460  -39.9170  -29.7960 C.3   113  ASP113      0.1410
     60  CG        13.9780  -39.0630  -30.6560 C.2   113  ASP113      0.3668
     61  OD1       13.6540  -39.4870  -31.8030 O.co2 113  ASP113     -0.2456
     62  OD2       13.6080  -37.9680  -30.1700 O.co2 113  ASP113     -0.2456
     63  N         17.4040  -39.6700  -33.0320 N.3   116  ALA116     -0.1245
     64  CA        18.7070  -39.2750  -32.4760 C.3   116  ALA116      0.1562
     65  C         19.8210  -39.6490  -33.4460 C.2   116  ALA116      0.2260
     66  O         19.7860  -40.7530  -34.0260 O.2   116  ALA116     -0.2867
     67  CB        18.9720  -39.9450  -31.1500 C.3   116  ALA116      0.0290
     68  N         25.9350  -37.9980  -32.1080 N.3   119  ILE119     -0.1231
     69  CA        26.4050  -37.3170  -30.8880 C.3   119  ILE119      0.1678
     70  C         25.6710  -37.8310  -29.6300 C.2   119  ILE119      0.2434
     71  O         26.3180  -38.3080  -28.6980 O.2   119  ILE119     -0.2733
     72  CB        26.3300  -35.7760  -31.0330 C.3   119  ILE119      0.0265
     73  CG1       27.5380  -35.2950  -31.8240 C.3   119  ILE119      0.0019
     74  CG2       26.3570  -35.0680  -29.6330 C.3   119  ILE119      0.0020
     75  CD1       27.4320  -33.8590  -32.3490 C.3   119  ILE119      0.0001
     76  N         24.3300  -37.8340  -29.6290 N.am  120  PRO120     -0.2729
     77  CA        23.6610  -38.3020  -28.3720 C.3   120  PRO120      0.1401
     78  C         23.7830  -39.8220  -28.1680 C.2   120  PRO120      0.2269
     79  O         23.9500  -40.2840  -27.0340 O.2   120  PRO120     -0.2865
     80  CB        22.1950  -37.9260  -28.5890 C.3   120  PRO120      0.0296
     81  CG        22.0770  -37.7090  -30.1870 C.3   120  PRO120      0.0237
     82  CD        23.4020  -37.0770  -30.4870 C.3   120  PRO120      0.0939
     83  N         31.5390  -27.8950  -27.5620 N.3   143  LEU143     -0.1245
     84  CA        30.8770  -27.7220  -28.8510 C.3   143  LEU143      0.1561
     85  C         31.1040  -26.2950  -29.3010 C.2   143  LEU143      0.2260
     86  O         30.5490  -25.3480  -28.7160 O.2   143  LEU143     -0.2867
     87  CB        29.3900  -28.0610  -28.7410 C.3   143  LEU143      0.0270
     88  CG        28.5080  -27.8220  -29.9970 C.3   143  LEU143      0.0019
     89  CD1       29.0970  -28.3980  -31.2730 C.3   143  LEU143      0.0001
     90  CD2       27.0780  -28.2590  -29.7650 C.3   143  LEU143      0.0001
     91  N         21.2830  -34.5500  -21.6440 N.3   194  TYR194     -0.1241
     92  CA        20.2850  -33.9290  -22.4790 C.3   194  TYR194      0.1605
     93  C         20.1950  -32.4110  -22.3080 C.2   194  TYR194      0.2264
     94  O         20.0910  -31.6860  -23.2860 O.2   194  TYR194     -0.2867
     95  CB        18.9310  -34.5180  -22.1940 C.3   194  TYR194      0.0534
     96  CG        17.8890  -33.9950  -23.1370 C.ar  194  TYR194     -0.0201
     97  CD1       16.9860  -33.0180  -22.7420 C.ar  194  TYR194     -0.0009
     98  CD2       17.8460  -34.4540  -24.4430 C.ar  194  TYR194     -0.0009
     99  CE1       15.9880  -32.5840  -23.6130 C.ar  194  TYR194      0.0417
    100  CE2       16.8590  -34.0510  -25.3100 C.ar  194  TYR194      0.0417
    101  CZ        15.9640  -33.0850  -24.9170 C.ar  194  TYR194      0.1957
    102  OH        15.0290  -32.6650  -25.8330 O.3   194  TYR194     -0.2866
    103  N         22.9750  -30.6510  -24.1660 N.3   197  LEU197     -0.1231
    104  CA        22.6930  -30.6140  -25.6150 C.3   197  LEU197      0.1693
    105  C         21.5800  -29.6310  -25.9780 C.2   197  LEU197      0.2591
    106  O         21.6460  -28.8910  -26.9970 O.2   197  LEU197     -0.2718
    107  CB        22.3720  -32.0190  -26.1210 C.3   197  LEU197      0.0284
    108  CG        23.4750  -33.0800  -25.9830 C.3   197  LEU197      0.0019
    109  CD1       23.0500  -34.4170  -26.5960 C.3   197  LEU197      0.0001
    110  CD2       24.8230  -32.6140  -26.6130 C.3   197  LEU197      0.0001
    111  N         20.5460  -29.6260  -25.1480 N.am  198  GLU198     -0.1979
    112  CA        19.4140  -28.7220  -25.3000 C.3   198  GLU198      0.1602
    113  C         19.8180  -27.2400  -25.2530 C.2   198  GLU198      0.2287
    114  O         19.3190  -26.4260  -26.0310 O.2   198  GLU198     -0.2864
    115  CB        18.3910  -29.0170  -24.2000 C.3   198  GLU198      0.0415
    116  CG        17.0630  -28.2960  -24.3530 C.3   198  GLU198      0.1163
    117  CD        16.1130  -28.6660  -23.2170 C.2   198  GLU198      0.3649
    118  OE1       14.9150  -28.8620  -23.4920 O.co2 198  GLU198     -0.2457
    119  OE2       16.5970  -28.8680  -22.0770 O.co2 198  GLU198     -0.2457
    120  N         21.8370  -26.3380  -28.3630 N.3   201  ALA201     -0.1245
    121  CA        20.9180  -26.1790  -29.4760 C.3   201  ALA201      0.1562
    122  C         20.1980  -24.8280  -29.4350 C.2   201  ALA201      0.2260
    123  O         20.0060  -24.1790  -30.4750 O.2   201  ALA201     -0.2867
    124  CB        19.9270  -27.3190  -29.5410 C.3   201  ALA201      0.0290
    125  N         22.4580  -22.1000  -30.6070 N.3   204  ARG204     -0.1231
    126  CA        22.7080  -22.1610  -32.0390 C.3   204  ARG204      0.1694
    127  C         21.5110  -21.5400  -32.7370 C.2   204  ARG204      0.2592
    128  O         21.6780  -20.7840  -33.7020 O.2   204  ARG204     -0.2718
    129  CB        22.8950  -23.5980  -32.5180 C.3   204  ARG204      0.0321
    130  CG        22.9920  -23.6350  -34.0890 C.3   204  ARG204      0.0489
    131  CD        22.9290  -25.0520  -34.5880 C.3   204  ARG204      0.2205
    132  NE        24.0810  -25.8190  -34.1270 N.pl3 204  ARG204     -0.0865
    133  CZ        23.9890  -27.0670  -33.6860 C.cat 204  ARG204      0.5346
    134  NH1       22.7970  -27.6360  -33.5780 N.pl3 204  ARG204      0.1354
    135  NH2       25.0790  -27.7490  -33.3800 N.pl3 204  ARG204      0.1354
    136  N         20.3200  -21.7790  -32.2000 N.am  205  THR205     -0.1953
    137  CA        19.1180  -21.1170  -32.7290 C.3   205  THR205      0.1897
    138  C         19.2120  -19.6080  -32.6610 C.2   205  THR205      0.2313
    139  O         18.8930  -18.9060  -33.6310 O.2   205  THR205     -0.2863
    140  CB        17.8680  -21.5890  -31.9880 C.3   205  THR205      0.1794
    141  OG1       17.7770  -22.9980  -32.1530 O.3   205  THR205     -0.2208
    142  CG2       16.5880  -20.9130  -32.4960 C.3   205  THR205      0.0378
    143  N         32.0050  -30.8840  -32.3870 N.3   222  PHE222     -0.1241
    144  CA        31.7020  -31.4220  -31.0540 C.3   222  PHE222      0.1605
    145  C         32.8800  -32.3210  -30.6450 C.2   222  PHE222      0.2264
    146  O         33.3270  -33.1780  -31.4390 O.2   222  PHE222     -0.2867
    147  CB        30.4080  -32.2230  -31.1070 C.3   222  PHE222      0.0534
    148  CG        29.9280  -32.7130  -29.7460 C.ar  222  PHE222     -0.0203
    149  CD1       30.4540  -33.8590  -29.1750 C.ar  222  PHE222     -0.0042
    150  CD2       28.9740  -31.9990  -29.0420 C.ar  222  PHE222     -0.0042
    151  CE1       30.0230  -34.2820  -27.9040 C.ar  222  PHE222     -0.0003
    152  CE2       28.5530  -32.4120  -27.7730 C.ar  222  PHE222     -0.0003
    153  CZ        29.1020  -33.5310  -27.2130 C.ar  222  PHE222     -0.0000
@<TRIPOS>BOND
     1     1     2    1
     2     6     5    1
     3     2     5    1
     4     2     3    1
     5    29    27   ar
     6     5     7    1
     7     3     4    2
     8    27    28   ar
     9    27    26    1
    10    26    25    1
    11    25    22    1
    12     8     9    1
    13    18    17    1
    14    18    19    1
    15    17    10   am
    16    19    20    2
    17    19    21   am
    18    21    22    1
    19   131   132    1
    20   131   130    1
    21    22    23    1
    22     9    12    1
    23     9    10    1
    24    12    13    1
    25    10    11    2
    26   132   133    2
    27   130   129    1
    28    13    14    1
    29    66    65    2
    30    15    14   ar
    31    14    16   ar
    32   128   127    2
    33   133   134    1
    34   133   135    1
    35   139   138    2
    36    65    64    1
    37    23    24    2
    38    23    30   am
    39    63    64    1
    40    33    32    2
    41   127   136   am
    42   127   126    1
    43   137   138    1
    44   137   136    1
    45   137   140    1
    46   129   126    1
    47    30    31    1
    48   142   140    1
    49    64    67    1
    50   143   144    1
    51    75    73    1
    52   141   140    1
    53    32    31    1
    54    68    69    1
    55   126   125    1
    56    73    72    1
    57    61    60   ar
    58    31    34    1
    59   146   145    2
    60    58    57    2
    61    89    88    1
    62    57    56    1
    63   147   144    1
    64   147   148    1
    65   144   145    1
    66    72    69    1
    67    72    74    1
    68    69    70    1
    69    60    62   ar
    70    60    59    1
    71    82    81    1
    72    82    76    1
    73   123   122    2
    74    34    35    1
    75    81    80    1
    76    88    90    1
    77    88    87    1
    78    56    59    1
    79    56    55    1
    80   148   149   ar
    81   148   150   ar
    82    70    76   am
    83    70    71    2
    84    76    77    1
    85   124   121    1
    86   121   122    1
    87   121   120    1
    88    35    36    1
    89    85    84    1
    90    85    86    2
    91   149   151   ar
    92   150   152   ar
    93    84    87    1
    94    84    83    1
    95    80    77    1
    96    77    78    1
    97    78    79    2
    98    37    36    1
    99    37    38    2
   100   151   153   ar
   101   152   153   ar
   102    40    38    1
   103    38    39    1
   104    44    43    2
   105   106   105    2
   106   110   108    1
   107   109   108    1
   108   107   108    1
   109   107   104    1
   110    43    42    1
   111   114   113    2
   112   105   104    1
   113   105   111   am
   114   102   101    1
   115    42    45    1
   116    42    41    1
   117   104   103    1
   118   100   101   ar
   119   100    98   ar
   120   112   113    1
   121   112   111    1
   122   112   115    1
   123    45    46    1
   124    51    53   ar
   125    51    48   ar
   126   101    99   ar
   127    53    54   ar
   128    98    96   ar
   129   116   115    1
   130   116   117    1
   131    48    46   ar
   132    48    50   ar
   133    46    47   ar
   134    99    97   ar
   135   118   117   ar
   136    54    52   ar
   137    94    93    2
   138   117   119   ar
   139    96    97   ar
   140    96    95    1
   141    50    52   ar
   142    50    49   ar
   143    47    49   ar
   144    92    93    1
   145    92    95    1
   146    92    91    1
