@<TRIPOS>MOLECULE
tmp/2wokA00.pdb
 178 178 0 0 0
SMALL
GASTEIGER

@<TRIPOS>ATOM
      1  N          2.8430   -6.1920   18.6430 N.3    45  TYR45      -0.1227
      2  CA         3.8900   -5.3220   19.1620 C.3    45  TYR45       0.1736
      3  C          5.3060   -5.7260   18.7220 C.2    45  TYR45       0.2595
      4  O          6.2170   -4.9040   18.8150 O.2    45  TYR45      -0.2718
      5  CB         3.8410   -5.2330   20.7030 C.3    45  TYR45       0.0548
      6  CG         3.7470   -3.8000   21.1930 C.ar   45  TYR45      -0.0200
      7  CD1        2.6340   -3.3790   21.9160 C.ar   45  TYR45      -0.0009
      8  CD2        4.7180   -2.8670   20.8620 C.ar   45  TYR45      -0.0009
      9  CE1        2.5210   -2.0510   22.3620 C.ar   45  TYR45       0.0417
     10  CE2        4.6270   -1.5300   21.3090 C.ar   45  TYR45       0.0417
     11  CZ         3.5270   -1.1430   22.0450 C.ar   45  TYR45       0.1957
     12  OH         3.4040    0.1630   22.4460 O.3    45  TYR45      -0.2866
     13  N          5.4930   -6.9530   18.2460 N.am   46  TYR46      -0.1962
     14  CA         6.8320   -7.4040   17.8450 C.3    46  TYR46       0.1771
     15  C          7.3590   -6.5560   16.7120 C.2    46  TYR46       0.2619
     16  O          6.6710   -6.3640   15.6990 O.2    46  TYR46      -0.2715
     17  CB         6.7980   -8.8540   17.3470 C.3    46  TYR46       0.0574
     18  CG         6.5940   -9.9250   18.3920 C.ar   46  TYR46      -0.0198
     19  CD1        6.7220   -9.6610   19.7610 C.ar   46  TYR46      -0.0009
     20  CD2        6.3400  -11.2250   17.9910 C.ar   46  TYR46      -0.0009
     21  CE1        6.5340  -10.6820   20.6910 C.ar   46  TYR46       0.0417
     22  CE2        6.1780  -12.2560   18.9100 C.ar   46  TYR46       0.0417
     23  CZ         6.2660  -11.9760   20.2430 C.ar   46  TYR46       0.1957
     24  OH         6.1030  -13.0270   21.1110 O.3    46  TYR46      -0.2866
     25  N          8.5990   -6.0800   16.8450 N.am   47  VAL47      -0.1977
     26  CA         9.2040   -5.2920   15.7470 C.3    47  VAL47       0.1596
     27  C          9.1520   -6.0190   14.4020 C.2    47  VAL47       0.2287
     28  O          8.8680   -5.3960   13.3720 O.2    47  VAL47      -0.2864
     29  CB        10.6960   -4.8360   16.0380 C.3    47  VAL47       0.0276
     30  CG1       11.1890   -3.8900   14.9630 C.3    47  VAL47       0.0022
     31  CG2       10.8190   -4.1060   17.3210 C.3    47  VAL47       0.0022
     32  N          5.7660   -5.9810   12.8280 N.3    50  TRP50      -0.1241
     33  CA         5.6080   -4.6720   12.1800 C.3    50  TRP50       0.1605
     34  C          6.3020   -4.6010   10.8280 C.2    50  TRP50       0.2264
     35  O          5.7560   -4.0110    9.8890 O.2    50  TRP50      -0.2867
     36  CB         6.1070   -3.5510   13.0620 C.3    50  TRP50       0.0550
     37  CG         5.2680   -3.3300   14.2660 C.ar   50  TRP50       0.0003
     38  CD1        4.4410   -4.2350   14.8860 C.ar   50  TRP50       0.0946
     39  CD2        5.1460   -2.1080   14.9900 C.ar   50  TRP50       0.0152
     40  NE1        3.8430   -3.6480   15.9910 N.ar   50  TRP50      -0.2442
     41  CE2        4.2590   -2.3450   16.0750 C.ar   50  TRP50       0.0810
     42  CE3        5.7110   -0.8260   14.8420 C.ar   50  TRP50       0.0012
     43  CZ2        3.9160   -1.3340   17.0160 C.ar   50  TRP50       0.0191
     44  CZ3        5.3970    0.1760   15.8030 C.ar   50  TRP50       0.0001
     45  CH2        4.4840   -0.0870   16.8520 C.ar   50  TRP50       0.0015
     46  N         16.6700  -11.2960   15.4470 N.3   269  ARG269     -0.1245
     47  CA        17.3010  -11.1200   16.7440 C.3   269  ARG269      0.1563
     48  C         18.8330  -11.2700   16.6670 C.2   269  ARG269      0.2260
     49  O         19.5000  -11.2000   17.6870 O.2   269  ARG269     -0.2867
     50  CB        16.7040  -12.0550   17.8080 C.3   269  ARG269      0.0307
     51  CG        15.3220  -11.6260   18.2540 C.3   269  ARG269      0.0489
     52  CD        14.9600  -12.1680   19.6200 C.3   269  ARG269      0.2205
     53  NE        14.5760  -13.5730   19.5740 N.pl3 269  ARG269     -0.0865
     54  CZ        15.1870  -14.5440   20.2460 C.cat 269  ARG269      0.5346
     55  NH1       16.2210  -14.2780   21.0370 N.pl3 269  ARG269      0.1354
     56  NH2       14.7550  -15.7920   20.1400 N.pl3 269  ARG269      0.1354
     57  N         17.9810   -0.0030   20.4110 N.3   296  PHE296     -0.1241
     58  CA        17.6680   -0.3370   21.8240 C.3   296  PHE296      0.1605
     59  C         18.7440    0.1850   22.7570 C.2   296  PHE296      0.2264
     60  O         19.9470    0.1960   22.4230 O.2   296  PHE296     -0.2867
     61  CB        17.5400   -1.8440   22.0290 C.3   296  PHE296      0.0534
     62  CG        16.2080   -2.4130   21.6290 C.ar  296  PHE296     -0.0203
     63  CD1       15.8840   -2.5870   20.2860 C.ar  296  PHE296     -0.0042
     64  CD2       15.2830   -2.8080   22.6040 C.ar  296  PHE296     -0.0042
     65  CE1       14.6300   -3.1220   19.9180 C.ar  296  PHE296     -0.0003
     66  CE2       14.0400   -3.3710   22.2520 C.ar  296  PHE296     -0.0003
     67  CZ        13.7160   -3.5050   20.9000 C.ar  296  PHE296     -0.0000
     68  N         27.4050   -8.1170   28.9760 N.3   331  ARG331     -0.1245
     69  CA        26.4440   -8.0970   27.8670 C.3   331  ARG331      0.1563
     70  C         27.1010   -8.4320   26.4880 C.2   331  ARG331      0.2260
     71  O         26.4720   -8.2550   25.4470 O.2   331  ARG331     -0.2867
     72  CB        25.7120   -6.7340   27.8850 C.3   331  ARG331      0.0307
     73  CG        24.6740   -6.4710   26.7870 C.3   331  ARG331      0.0489
     74  CD        23.2650   -6.5600   27.2780 C.3   331  ARG331      0.2205
     75  NE        22.3480   -6.0540   26.2650 N.pl3 331  ARG331     -0.0865
     76  CZ        21.1250   -6.5230   26.0530 C.cat 331  ARG331      0.5346
     77  NH1       20.6390   -7.5280   26.7750 N.pl3 331  ARG331      0.1354
     78  NH2       20.3880   -5.9950   25.0920 N.pl3 331  ARG331      0.1354
     79  N         16.2290  -10.6240   35.4480 N.3   391  GLN391     -0.1245
     80  CA        15.6990  -11.9290   35.0800 C.3   391  GLN391      0.1566
     81  C         16.8440  -12.8290   34.6610 C.2   391  GLN391      0.2260
     82  O         17.9540  -12.3460   34.4080 O.2   391  GLN391     -0.2867
     83  CB        14.6220  -11.7840   34.0160 C.3   391  GLN391      0.0367
     84  CG        15.0580  -11.0840   32.7530 C.3   391  GLN391      0.0905
     85  CD        14.1010  -11.3460   31.6150 C.2   391  GLN391      0.2608
     86  OE1       13.6890  -12.5120   31.4590 O.2   391  GLN391     -0.2717
     87  NE2       13.7790  -10.4080   30.8610 N.am  391  GLN391     -0.0878
     88  N         20.9990  -13.1020   30.1860 N.3   394  LYS394     -0.1231
     89  CA        21.9210  -11.9800   30.0220 C.3   394  LYS394      0.1693
     90  C         21.6880  -10.8710   31.0540 C.2   394  LYS394      0.2592
     91  O         22.6420  -10.2130   31.4820 O.2   394  LYS394     -0.2718
     92  CB        21.8420  -11.3990   28.6060 C.3   394  LYS394      0.0285
     93  CG        22.2560  -12.4750   27.5510 C.3   394  LYS394      0.0035
     94  CD        23.7860  -12.4350   27.5440 C.3   394  LYS394      0.0206
     95  CE        24.4290  -11.5110   26.5400 C.3   394  LYS394      0.1093
     96  NZ        25.8330  -11.8660   26.1610 N.3   394  LYS394     -0.1314
     97  N         20.4240  -10.6430   31.4180 N.am  395  PHE395     -0.1976
     98  CA        20.0980   -9.6020   32.4030 C.3   395  PHE395      0.1639
     99  C         20.7320   -9.9730   33.7480 C.2   395  PHE395      0.2290
    100  O         21.1400   -9.0830   34.5090 O.2   395  PHE395     -0.2864
    101  CB        18.5810   -9.4310   32.5650 C.3   395  PHE395      0.0560
    102  CG        17.9320   -8.5560   31.5320 C.ar  395  PHE395     -0.0200
    103  CD1       18.5500   -8.2930   30.2930 C.ar  395  PHE395     -0.0042
    104  CD2       16.6680   -8.0210   31.7740 C.ar  395  PHE395     -0.0042
    105  CE1       17.9230   -7.4880   29.3340 C.ar  395  PHE395     -0.0003
    106  CE2       16.0350   -7.2380   30.8210 C.ar  395  PHE395     -0.0003
    107  CZ        16.6590   -6.9720   29.5930 C.ar  395  PHE395     -0.0000
    108  N         10.3360  -14.5180   34.0880 N.3   420  VAL420     -0.1245
    109  CA        10.7750  -14.1180   32.7490 C.3   420  VAL420      0.1561
    110  C          9.6200  -13.6680   31.8450 C.2   420  VAL420      0.2260
    111  O          9.7000  -12.6180   31.2070 O.2   420  VAL420     -0.2867
    112  CB        11.5920  -15.2530   32.0830 C.3   420  VAL420      0.0252
    113  CG1       11.8970  -14.9380   30.6150 C.3   420  VAL420      0.0019
    114  CG2       12.8730  -15.5180   32.8750 C.3   420  VAL420      0.0019
    115  N          8.4230   -7.6660   31.9930 N.3   424  PHE424     -0.1241
    116  CA         8.1730   -6.3070   31.5130 C.3   424  PHE424      0.1605
    117  C          6.7750   -5.8070   31.8320 C.2   424  PHE424      0.2264
    118  O          6.5250   -4.5980   31.7750 O.2   424  PHE424     -0.2867
    119  CB         8.5030   -6.1840   30.0170 C.3   424  PHE424      0.0534
    120  CG         9.9420   -6.5020   29.6960 C.ar  424  PHE424     -0.0203
    121  CD1       10.2970   -7.7260   29.1330 C.ar  424  PHE424     -0.0042
    122  CD2       10.9560   -5.5890   30.0230 C.ar  424  PHE424     -0.0042
    123  CE1       11.6370   -8.0200   28.8450 C.ar  424  PHE424     -0.0003
    124  CE2       12.2740   -5.8650   29.7540 C.ar  424  PHE424     -0.0003
    125  CZ        12.6330   -7.0870   29.1760 C.ar  424  PHE424     -0.0000
    126  N         16.0010   -3.3010   29.1040 N.3   445  ASP445     -0.1225
    127  CA        16.3200   -2.9460   27.7210 C.3   445  ASP445      0.1805
    128  C         15.0850   -2.2930   27.1250 C.2   445  ASP445      0.2598
    129  O         13.9620   -2.7570   27.3620 O.2   445  ASP445     -0.2718
    130  CB        16.5440   -4.2120   26.9110 C.3   445  ASP445      0.1424
    131  CG        17.9460   -4.3790   26.4560 C.2   445  ASP445      0.3668
    132  OD1       18.1120   -4.5370   25.2230 O.co2 445  ASP445     -0.2456
    133  OD2       18.8640   -4.3940   27.3050 O.co2 445  ASP445     -0.2456
    134  N         15.2650   -1.2500   26.3260 N.am  446  TRP446     -0.1962
    135  CA        14.1240   -0.5090   25.7920 C.3   446  TRP446      0.1771
    136  C         14.4260   -0.0620   24.3600 C.2   446  TRP446      0.2620
    137  O         15.5210    0.4650   24.0970 O.2   446  TRP446     -0.2715
    138  CB        13.8840    0.7470   26.6380 C.3   446  TRP446      0.0590
    139  CG        13.0170    1.7830   26.0030 C.ar  446  TRP446      0.0006
    140  CD1       13.4160    2.9470   25.4440 C.ar  446  TRP446      0.0946
    141  CD2       11.5910    1.7450   25.8810 C.ar  446  TRP446      0.0152
    142  NE1       12.3450    3.6550   24.9900 N.ar  446  TRP446     -0.2442
    143  CE2       11.2000    2.9450   25.2360 C.ar  446  TRP446      0.0810
    144  CE3       10.6090    0.8130   26.2320 C.ar  446  TRP446      0.0012
    145  CZ2        9.8550    3.2420   24.9440 C.ar  446  TRP446      0.0191
    146  CZ3        9.2720    1.1140   25.9700 C.ar  446  TRP446      0.0001
    147  CH2        8.9130    2.3150   25.3070 C.ar  446  TRP446      0.0015
    148  N         13.4440   -0.2620   23.4910 N.am  447  GLY447     -0.1940
    149  CA        13.4250    0.2510   22.1090 C.3   447  GLY447      0.2014
    150  C         12.2090    1.1600   21.9220 C.2   447  GLY447      0.2639
    151  O         11.1150    0.8250   22.3620 O.2   447  GLY447     -0.2714
    152  N         12.3880    2.3080   21.2760 N.am  448  ALA448     -0.1963
    153  CA        11.2540    3.2140   20.9880 C.3   448  ALA448      0.1728
    154  C         10.2080    2.5670   20.0760 C.2   448  ALA448      0.2616
    155  O         10.5460    1.8320   19.1570 O.2   448  ALA448     -0.2715
    156  CB        11.7590    4.4970   20.3110 C.3   448  ALA448      0.0334
    157  N          8.9380    2.9100   20.2900 N.am  449  ASP449     -0.1971
    158  CA         7.8640    2.4240   19.4300 C.3   449  ASP449      0.1709
    159  C          7.7040    3.2350   18.1410 C.2   449  ASP449      0.2293
    160  O          6.9170    2.8470   17.2490 O.2   449  ASP449     -0.2864
    161  CB         6.5270    2.3100   20.1730 C.3   449  ASP449      0.1436
    162  CG         6.5720    1.3140   21.3460 C.2   449  ASP449      0.3671
    163  OD1        7.4270    0.3830   21.3620 O.co2 449  ASP449     -0.2456
    164  OD2        5.7280    1.4810   22.2500 O.co2 449  ASP449     -0.2456
    165  N          7.0050    1.7170   32.0510 N.3   473  TRP473     -0.1241
    166  CA         8.3540    1.9250   31.5150 C.3   473  TRP473      0.1605
    167  C          9.0730    3.1120   32.1270 C.2   473  TRP473      0.2264
    168  O         10.2910    3.2800   31.9240 O.2   473  TRP473     -0.2867
    169  CB         8.3410    2.0170   29.9820 C.3   473  TRP473      0.0550
    170  CG         8.2900    0.6750   29.3590 C.ar  473  TRP473      0.0003
    171  CD1        7.1760    0.0080   28.9130 C.ar  473  TRP473      0.0946
    172  CD2        9.3990   -0.2190   29.1830 C.ar  473  TRP473      0.0152
    173  NE1        7.5440   -1.2500   28.4450 N.ar  473  TRP473     -0.2442
    174  CE2        8.8980   -1.3990   28.5920 C.ar  473  TRP473      0.0810
    175  CE3       10.7780   -0.1290   29.4600 C.ar  473  TRP473      0.0012
    176  CZ2        9.7280   -2.4890   28.2600 C.ar  473  TRP473      0.0191
    177  CZ3       11.6010   -1.2120   29.1020 C.ar  473  TRP473      0.0001
    178  CH2       11.0720   -2.3620   28.5130 C.ar  473  TRP473      0.0015
@<TRIPOS>BOND
     1    35    34    2
     2    34    33    1
     3    33    32    1
     4    33    36    1
     5    36    37    1
     6    28    27    2
     7    37    38   ar
     8    37    39   ar
     9    27    26    1
    10    42    39   ar
    11    42    44   ar
    12    38    40   ar
    13    30    29    1
    14    39    41   ar
    15    46    47    1
    16    16    15    2
    17    26    29    1
    18    26    25    1
    19    44    45   ar
    20    40    41   ar
    21    29    31    1
    22    41    43   ar
    23    48    47    1
    24    48    49    2
    25    15    25   am
    26    15    14    1
    27    47    50    1
    28    45    43   ar
    29   160   159    2
    30    17    14    1
    31    17    18    1
    32    50    51    1
    33    14    13    1
    34    20    18   ar
    35    20    22   ar
    36   159   158    1
    37    13     3   am
    38    51    52    1
    39    18    19   ar
    40     1     2    1
    41     3     4    2
    42     3     2    1
    43    22    23   ar
    44   155   154    2
    45     2     5    1
    46   158   161    1
    47   158   157    1
    48    53    52    1
    49    53    54    2
    50    19    21   ar
    51    65    63   ar
    52    65    67   ar
    53   154   157   am
    54   154   153    1
    55    56    54    1
    56   161   162    1
    57    23    21   ar
    58    23    24    1
    59    54    55    1
    60    63    62   ar
    61   156   153    1
    62    57    58    1
    63     5     6    1
    64     8     6   ar
    65     8    10   ar
    66    67    66   ar
    67   153   152    1
    68     6     7   ar
    69   152   150   am
    70    10    11   ar
    71   162   163   ar
    72   162   164   ar
    73    62    61    1
    74    62    64   ar
    75    58    61    1
    76    58    59    1
    77     7     9   ar
    78   150   149    1
    79   150   151    2
    80    11     9   ar
    81    11    12    1
    82   149   148    1
    83    66    64   ar
    84    60    59    2
    85   148   136   am
    86   137   136    2
    87   136   135    1
    88   145   143   ar
    89   145   147   ar
    90   142   143   ar
    91   142   140   ar
    92    78    76    1
    93   132   131   ar
    94   143   141   ar
    95   147   146   ar
    96   140   139   ar
    97    71    70    2
    98   135   134    1
    99   135   138    1
   100   141   139   ar
   101   141   144   ar
   102   146   144   ar
   103   139   138    1
   104    76    75    2
   105    76    77    1
   106    96    95    1
   107    75    74    1
   108   134   128   am
   109   131   130    1
   110   131   133   ar
   111    70    69    1
   112    95    94    1
   113    73    74    1
   114    73    72    1
   115   130   127    1
   116   128   129    2
   117   128   127    1
   118    94    93    1
   119    93    92    1
   120   127   126    1
   121    69    72    1
   122    69    68    1
   123   176   178   ar
   124   176   174   ar
   125   173   174   ar
   126   173   171   ar
   127   178   177   ar
   128   174   172   ar
   129    92    89    1
   130   123   121   ar
   131   123   125   ar
   132   171   170   ar
   133   177   175   ar
   134   121   120   ar
   135   125   124   ar
   136   172   170   ar
   137   172   175   ar
   138   105   107   ar
   139   105   103   ar
   140   170   169    1
   141   107   106   ar
   142   120   119    1
   143   120   122   ar
   144   124   122   ar
   145   169   166    1
   146   119   116    1
   147    89    88    1
   148    89    90    1
   149   103   102   ar
   150   113   112    1
   151   106   104   ar
   152    87    85   am
   153    90    97   am
   154    90    91    2
   155   111   110    2
   156    97    98    1
   157    86    85    2
   158   116   117    1
   159   116   115    1
   160   166   165    1
   161   166   167    1
   162   102   104   ar
   163   102   101    1
   164    85    84    1
   165   118   117    2
   166   110   109    1
   167   168   167    2
   168   112   109    1
   169   112   114    1
   170    98   101    1
   171    98    99    1
   172   109   108    1
   173    84    83    1
   174    99   100    2
   175    83    80    1
   176    82    81    2
   177    81    80    1
   178    80    79    1
