@<TRIPOS>MOLECULE
tmp/2womA00.pdb
 199 196 0 0 0
SMALL
GASTEIGER

@<TRIPOS>ATOM
      1  N         11.5140   21.8610   22.1730 N.3    95  PRO95      -0.2116
      2  CA        10.7470   21.6220   20.9470 C.3    95  PRO95       0.1372
      3  C          9.2450   21.5770   21.2130 C.2    95  PRO95       0.2244
      4  O          8.8230   21.1080   22.2620 O.2    95  PRO95      -0.2868
      5  CB        11.2820   20.2730   20.4570 C.3    95  PRO95       0.0268
      6  CG        12.6510   20.1930   21.0190 C.3    95  PRO95       0.0207
      7  CD        12.5080   20.7950   22.3860 C.3    95  PRO95       0.0892
      8  N          7.2310   19.4470   15.0840 N.3   100  LEU100     -0.1231
      9  CA         7.7910   18.1530   14.6990 C.3   100  LEU100      0.1693
     10  C          7.3970   17.8120   13.3060 C.2   100  LEU100      0.2592
     11  O          6.2390   17.9890   12.9300 O.2   100  LEU100     -0.2718
     12  CB         7.4510   17.0250   15.6770 C.3   100  LEU100      0.0284
     13  CG         7.9210   17.2460   17.1040 C.3   100  LEU100      0.0019
     14  CD1        7.5610   16.0990   17.9630 C.3   100  LEU100      0.0001
     15  CD2        9.3800   17.4930   17.1760 C.3   100  LEU100      0.0001
     16  N          8.3900   17.4700   12.4900 N.am  101  LYS101     -0.1966
     17  CA         8.1290   17.1470   11.0980 C.3   101  LYS101      0.1728
     18  C          7.5360   15.7690   11.0020 C.2   101  LYS101      0.2616
     19  O          7.7790   14.9440   11.8850 O.2   101  LYS101     -0.2715
     20  CB         9.3940   17.2620   10.2620 C.3   101  LYS101      0.0311
     21  CG         9.6460   18.6970    9.8510 C.3   101  LYS101      0.0038
     22  CD        11.1130   18.9690    9.5760 C.3   101  LYS101      0.0206
     23  CE        11.4050   20.4490    9.4530 C.3   101  LYS101      0.1093
     24  NZ        12.8670   20.7340    9.4590 N.3   101  LYS101     -0.1314
     25  N          6.7090   15.5260    9.9730 N.am  102  LYS102     -0.1963
     26  CA         6.1250   14.2030    9.7670 C.3   102  LYS102      0.1728
     27  C          7.2090   13.2860    9.2050 C.2   102  LYS102      0.2616
     28  O          7.9210   13.6750    8.2750 O.2   102  LYS102     -0.2715
     29  CB         4.8480   14.2280    8.9030 C.3   102  LYS102      0.0311
     30  CG         4.8040   15.2890    7.7880 C.3   102  LYS102      0.0038
     31  CD         3.5060   16.1120    7.8160 C.3   102  LYS102      0.0206
     32  CE         2.3070   15.3760    7.2560 C.3   102  LYS102      0.1093
     33  NZ         1.0380   16.0990    7.5350 N.3   102  LYS102     -0.1314
     34  N          7.4200   12.1410    9.8700 N.am  103  ASN103     -0.1972
     35  CA         8.3980   11.1210    9.5150 C.3   103  ASN103      0.1688
     36  C          7.7220    9.8020    9.7210 C.2   103  ASN103      0.2292
     37  O          6.9260    9.6040   10.6420 O.2   103  ASN103     -0.2864
     38  CB         9.6080   11.1710   10.4250 C.3   103  ASN103      0.1181
     39  CG        10.4850   12.3930   10.2790 C.2   103  ASN103      0.2629
     40  OD1       11.0090   12.7200    9.1870 O.2   103  ASN103     -0.2716
     41  ND2       10.7560   13.0310   11.4260 N.am  103  ASN103     -0.0877
     42  N          9.8470    6.8010   13.7160 N.3   106  VAL106     -0.1245
     43  CA        10.4060    7.5770   14.8240 C.3   106  VAL106      0.1561
     44  C         10.8440    6.6490   15.9610 C.2   106  VAL106      0.2260
     45  O         10.1090    5.7200   16.3260 O.2   106  VAL106     -0.2867
     46  CB         9.3970    8.6360   15.3490 C.3   106  VAL106      0.0252
     47  CG1       10.0190    9.4860   16.4460 C.3   106  VAL106      0.0019
     48  CG2        8.8650    9.5200   14.2240 C.3   106  VAL106      0.0019
     49  N         12.8240    6.7070   20.0440 N.3   108  VAL108     -0.1245
     50  CA        13.3330    7.4190   21.2120 C.3   108  VAL108      0.1561
     51  C         14.4370    6.5570   21.8120 C.2   108  VAL108      0.2260
     52  O         14.2330    5.3640   22.0760 O.2   108  VAL108     -0.2867
     53  CB        12.2600    7.7420   22.2800 C.3   108  VAL108      0.0252
     54  CG1       12.8720    8.5010   23.4670 C.3   108  VAL108      0.0019
     55  CG2       11.0840    8.5030   21.6780 C.3   108  VAL108      0.0019
     56  N         16.6330   13.3010   11.2760 N.3   179  VAL179     -0.1245
     57  CA        16.4560   14.2830   12.3240 C.3   179  VAL179      0.1561
     58  C         16.7270   13.7010   13.6690 C.2   179  VAL179      0.2260
     59  O         16.2170   12.6330   14.0030 O.2   179  VAL179     -0.2867
     60  CB        15.1250   15.0650   12.2550 C.3   179  VAL179      0.0252
     61  CG1       15.0490   15.8920   10.9790 C.3   179  VAL179      0.0019
     62  CG2       13.9220   14.1430   12.3650 C.3   179  VAL179      0.0019
     63  N         16.8830   14.9670   17.6830 N.3   181  TYR181     -0.1241
     64  CA        16.5710   15.9950   18.6510 C.3   181  TYR181      0.1605
     65  C         17.2900   15.6650   19.9370 C.2   181  TYR181      0.2264
     66  O         17.0790   14.5840   20.4920 O.2   181  TYR181     -0.2867
     67  CB        15.0540   16.0240   18.9220 C.3   181  TYR181      0.0534
     68  CG        14.2120   16.7600   17.9040 C.ar  181  TYR181     -0.0201
     69  CD1       13.5420   17.9280   18.2430 C.ar  181  TYR181     -0.0009
     70  CD2       13.9860   16.2250   16.6390 C.ar  181  TYR181     -0.0009
     71  CE1       12.7430   18.5970   17.3200 C.ar  181  TYR181      0.0417
     72  CE2       13.1940   16.8860   15.7050 C.ar  181  TYR181      0.0417
     73  CZ        12.5890   18.0840   16.0420 C.ar  181  TYR181      0.1957
     74  OH        11.8060   18.7400   15.1150 O.3   181  TYR181     -0.2866
     75  N         17.8000   12.5390   26.7170 N.3   186  ASP186     -0.1239
     76  CA        17.0440   11.8380   25.6880 C.3   186  ASP186      0.1674
     77  C         17.5890   12.1600   24.3150 C.2   186  ASP186      0.2266
     78  O         18.3710   13.0950   24.1410 O.2   186  ASP186     -0.2867
     79  CB        15.5510   12.1670   25.7500 C.3   186  ASP186      0.1410
     80  CG        14.8190   11.6040   26.9380 C.2   186  ASP186      0.3668
     81  OD1       15.0430   10.4290   27.2680 O.co2 186  ASP186     -0.2456
     82  OD2       13.9700   12.3180   27.4990 O.co2 186  ASP186     -0.2456
     83  N         15.7730   11.7680   20.3260 N.3   188  TYR188     -0.1227
     84  CA        14.6830   11.3400   19.4290 C.3   188  TYR188      0.1736
     85  C         15.1740   11.3490   18.0160 C.2   188  TYR188      0.2595
     86  O         15.8530   12.2980   17.6110 O.2   188  TYR188     -0.2718
     87  CB        13.4310   12.2070   19.5740 C.3   188  TYR188      0.0548
     88  CG        13.2130   12.6630   20.9980 C.ar  188  TYR188     -0.0200
     89  CD1       13.0240   11.7410   22.0230 C.ar  188  TYR188     -0.0009
     90  CD2       13.3310   14.0040   21.3430 C.ar  188  TYR188     -0.0009
     91  CE1       12.9130   12.1470   23.3480 C.ar  188  TYR188      0.0417
     92  CE2       13.2240   14.4220   22.6660 C.ar  188  TYR188      0.0417
     93  CZ        13.0030   13.4910   23.6650 C.ar  188  TYR188      0.1957
     94  OH        12.8590   13.9080   24.9660 O.3   188  TYR188     -0.2866
     95  N         14.8870   10.2690   17.2750 N.am  189  VAL189     -0.1966
     96  CA        15.3700   10.1060   15.9090 C.3   189  VAL189      0.1727
     97  C         14.2260    9.9060   14.9380 C.2   189  VAL189      0.2616
     98  O         13.3700    9.0550   15.1740 O.2   189  VAL189     -0.2715
     99  CB        16.4040    8.9580   15.8160 C.3   189  VAL189      0.0290
    100  CG1       16.8740    8.7470   14.3810 C.3   189  VAL189      0.0023
    101  CG2       17.5950    9.2170   16.7240 C.3   189  VAL189      0.0023
    102  N         14.2550   10.6420   13.8340 N.am  190  GLY190     -0.1955
    103  CA        13.2420   10.5290   12.7970 C.3   190  GLY190      0.1869
    104  C         13.8220   10.4370   11.4050 C.2   190  GLY190      0.2309
    105  O         14.8340   11.0800   11.1060 O.2   190  GLY190     -0.2863
    106  N         10.9990    2.6510   24.0450 N.3   223  LYS223     -0.1245
    107  CA         9.6150    3.0050   24.3240 C.3   223  LYS223      0.1561
    108  C          8.8110    2.8910   23.0310 C.2   223  LYS223      0.2260
    109  O          9.3860    2.9010   21.9320 O.2   223  LYS223     -0.2867
    110  CB         9.5340    4.4210   24.9250 C.3   223  LYS223      0.0271
    111  CG        10.4510    4.6210   26.1480 C.3   223  LYS223      0.0035
    112  CD        10.5470    6.0790   26.6100 C.3   223  LYS223      0.0206
    113  CE        11.6890    6.3370   27.5740 C.3   223  LYS223      0.1093
    114  NZ        11.2950    6.0670   28.9840 N.3   223  LYS223     -0.1314
    115  N          5.0950    4.2230   20.8980 N.3   225  PRO225     -0.2116
    116  CA         4.0160    5.2330   20.9040 C.3   225  PRO225      0.1372
    117  C          2.7140    4.7170   21.5190 C.2   225  PRO225      0.2244
    118  O          2.3970    3.5430   21.3160 O.2   225  PRO225     -0.2868
    119  CB         3.8070    5.5280   19.4230 C.3   225  PRO225      0.0268
    120  CG         5.0900    5.1950   18.7860 C.3   225  PRO225      0.0207
    121  CD         5.5800    3.9890   19.5230 C.3   225  PRO225      0.0892
    122  N          3.9890    8.3830   23.3050 N.3   227  PHE227     -0.1227
    123  CA         5.1000    8.8540   24.1180 C.3   227  PHE227      0.1736
    124  C          4.5710    9.9290   25.0220 C.2   227  PHE227      0.2595
    125  O          3.9450   10.8690   24.5430 O.2   227  PHE227     -0.2718
    126  CB         6.2260    9.4240   23.2470 C.3   227  PHE227      0.0547
    127  CG         6.8450    8.4470   22.2810 C.ar  227  PHE227     -0.0202
    128  CD1        7.4250    7.2690   22.7350 C.ar  227  PHE227     -0.0042
    129  CD2        6.9070    8.7330   20.9250 C.ar  227  PHE227     -0.0042
    130  CE1        8.0210    6.3730   21.8440 C.ar  227  PHE227     -0.0003
    131  CE2        7.5050    7.8390   20.0360 C.ar  227  PHE227     -0.0003
    132  CZ         8.0610    6.6660   20.5020 C.ar  227  PHE227     -0.0000
    133  N          4.7790    9.7880   26.3190 N.am  228  LEU228     -0.1966
    134  CA         4.3370   10.8070   27.2480 C.3   228  LEU228      0.1728
    135  C          5.5290   11.6980   27.4970 C.2   228  LEU228      0.2616
    136  O          6.3610   11.3920   28.3500 O.2   228  LEU228     -0.2715
    137  CB         3.7950   10.1920   28.5420 C.3   228  LEU228      0.0311
    138  CG         2.5570    9.3080   28.4090 C.3   228  LEU228      0.0022
    139  CD1        2.1340    8.8070   29.7460 C.3   228  LEU228      0.0001
    140  CD2        1.4030   10.0560   27.8030 C.3   228  LEU228      0.0001
    141  N          5.6500   12.7680   26.6920 N.am  229  TRP229     -0.1974
    142  CA         6.7790   13.6970   26.7390 C.3   229  TRP229      0.1640
    143  C          6.3940   15.0660   27.2480 C.2   229  TRP229      0.2290
    144  O          5.4980   15.6850   26.6950 O.2   229  TRP229     -0.2864
    145  CB         7.4110   13.8280   25.3380 C.3   229  TRP229      0.0576
    146  CG         8.5680   14.7790   25.2890 C.ar  229  TRP229      0.0006
    147  CD1        9.7760   14.6230   25.8950 C.ar  229  TRP229      0.0946
    148  CD2        8.6120   16.0500   24.6240 C.ar  229  TRP229      0.0152
    149  NE1       10.5790   15.7080   25.6410 N.ar  229  TRP229     -0.2442
    150  CE2        9.8890   16.6040   24.8660 C.ar  229  TRP229      0.0810
    151  CE3        7.7020   16.7730   23.8320 C.ar  229  TRP229      0.0012
    152  CZ2       10.2810   17.8470   24.3520 C.ar  229  TRP229      0.0191
    153  CZ3        8.0900   18.0090   23.3310 C.ar  229  TRP229      0.0001
    154  CH2        9.3690   18.5260   23.5840 C.ar  229  TRP229      0.0015
    155  N          2.4640   11.9230   22.4720 N.3   234  LEU234     -0.1231
    156  CA         2.8860   11.8670   21.0800 C.3   234  LEU234      0.1693
    157  C          2.5350   10.5580   20.4080 C.2   234  LEU234      0.2592
    158  O          2.8440    9.5010   20.9360 O.2   234  LEU234     -0.2718
    159  CB         4.3860   12.1850   20.9480 C.3   234  LEU234      0.0284
    160  CG         4.8620   13.4780   21.6270 C.3   234  LEU234      0.0019
    161  CD1        6.3500   13.6910   21.4380 C.3   234  LEU234      0.0001
    162  CD2        4.1150   14.6670   21.0960 C.3   234  LEU234      0.0001
    163  N          1.8560   10.6280   19.2630 N.am  235  HIS235     -0.1962
    164  CA         1.4740    9.4710   18.4560 C.3   235  HIS235      0.1772
    165  C          2.2470    9.6470   17.1530 C.2   235  HIS235      0.2462
    166  O          2.7060   10.7620   16.9100 O.2   235  HIS235     -0.2730
    167  CB        -0.0390    9.4730   18.2010 C.3   235  HIS235      0.0785
    168  CG        -0.8650    9.3080   19.4330 C.ar  235  HIS235      0.0821
    169  ND1       -1.2490    8.0570   19.8790 N.ar  235  HIS235     -0.2267
    170  CD2       -1.3790   10.2460   20.2620 C.ar  235  HIS235      0.1154
    171  CE1       -1.9760    8.2720   20.9620 C.ar  235  HIS235      0.1986
    172  NE2       -2.0810    9.5720   21.2330 N.ar  235  HIS235     -0.2212
    173  N          2.4400    8.6270   16.2880 N.am  236  PRO236     -0.2716
    174  CA         3.2440    8.8750   15.0780 C.3   236  PRO236      0.1536
    175  C          2.6960    9.9160   14.1120 C.2   236  PRO236      0.2598
    176  O          3.4830   10.5070   13.3780 O.2   236  PRO236     -0.2715
    177  CB         3.3390    7.4980   14.4180 C.3   236  PRO236      0.0310
    178  CG         3.0210    6.5180   15.5100 C.3   236  PRO236      0.0237
    179  CD         2.0330    7.2080   16.3850 C.3   236  PRO236      0.0939
    180  N          1.3700   10.1360   14.0960 N.am  237  ASP237     -0.1972
    181  CA         0.7550   11.0650   13.1480 C.3   237  ASP237      0.1709
    182  C         -0.0740   12.1910   13.7690 C.2   237  ASP237      0.2293
    183  O         -0.6830   12.9790   13.0350 O.2   237  ASP237     -0.2864
    184  CB        -0.0940   10.2810   12.1330 C.3   237  ASP237      0.1436
    185  CG         0.6580    9.2970   11.2430 C.2   237  ASP237      0.3671
    186  OD1        1.8890    9.4820   11.0430 O.co2 237  ASP237     -0.2456
    187  OD2        0.0060    8.3810   10.6920 O.co2 237  ASP237     -0.2456
    188  N          1.1020   17.0830   12.5370 N.3   318  TYR318     -0.1241
    189  CA         2.5140   17.4630   12.4230 C.3   318  TYR318      0.1605
    190  C          2.8140   18.3670   11.2340 C.2   318  TYR318      0.2264
    191  O          2.0080   18.4800   10.3010 O.2   318  TYR318     -0.2867
    192  CB         3.4220   16.2250   12.4030 C.3   318  TYR318      0.0534
    193  CG         3.4380   15.5040   13.7280 C.ar  318  TYR318     -0.0201
    194  CD1        3.9700   16.1090   14.8680 C.ar  318  TYR318     -0.0009
    195  CD2        2.8920   14.2300   13.8570 C.ar  318  TYR318     -0.0009
    196  CE1        3.9600   15.4630   16.0980 C.ar  318  TYR318      0.0417
    197  CE2        2.8860   13.5720   15.0800 C.ar  318  TYR318      0.0417
    198  CZ         3.4130   14.1980   16.1970 C.ar  318  TYR318      0.1957
    199  OH         3.4040   13.5820   17.4130 O.3   318  TYR318     -0.2866
@<TRIPOS>BOND
     1    32    33    1
     2    32    31    1
     3    30    31    1
     4    30    29    1
     5    28    27    2
     6    29    26    1
     7    40    39    2
     8    27    26    1
     9    27    34   am
    10    23    24    1
    11    23    22    1
    12    35    36    1
    13    35    34    1
    14    35    38    1
    15    22    21    1
    16    36    37    2
    17    26    25    1
    18    21    20    1
    19    25    18   am
    20    20    17    1
    21    39    38    1
    22    39    41   am
    23   191   190    2
    24   187   185   ar
    25    61    60    1
    26    18    17    1
    27    18    19    2
    28   186   185   ar
    29    17    16    1
    30   105   104    2
    31   190   189    1
    32   185   184    1
    33    56    57    1
    34   104   103    1
    35   184   181    1
    36    60    57    1
    37    60    62    1
    38    57    58    1
    39   192   189    1
    40   192   193    1
    41   189   188    1
    42    16    10   am
    43   103   102    1
    44    11    10    2
    45   183   182    2
    46   181   182    1
    47   181   180    1
    48    10     9    1
    49   176   175    2
    50    58    59    2
    51    42    43    1
    52   193   195   ar
    53   193   194   ar
    54   102    97   am
    55   195   197   ar
    56   180   175   am
    57   175   174    1
    58    48    46    1
    59   100    99    1
    60   177   174    1
    61   177   178    1
    62     9     8    1
    63     9    12    1
    64    43    46    1
    65    43    44    1
    66   194   196   ar
    67    97    98    2
    68    97    96    1
    69   174   173    1
    70   197   198   ar
    71    74    73    1
    72    46    47    1
    73   178   179    1
    74    12    13    1
    75    72    73   ar
    76    72    70   ar
    77    99    96    1
    78    99   101    1
    79    96    95    1
    80    44    45    2
    81    73    71   ar
    82   196   198   ar
    83   198   199    1
    84   173   179    1
    85   173   165   am
    86    70    68   ar
    87   166   165    2
    88    13    15    1
    89    13    14    1
    90   165   164    1
    91    95    85   am
    92    71    69   ar
    93    86    85    2
    94    63    64    1
    95    68    69   ar
    96    68    67    1
    97    85    84    1
    98   167   164    1
    99   167   168    1
   100   164   163    1
   101    64    67    1
   102    64    65    1
   103   120   119    1
   104   120   121    1
   105   163   157   am
   106   119   116    1
   107    84    87    1
   108    84    83    1
   109   168   169   ar
   110   168   170   ar
   111   121   115    1
   112    87    88    1
   113   169   171   ar
   114    65    66    2
   115   131   132   ar
   116   131   129   ar
   117    49    50    1
   118   170   172   ar
   119   157   158    2
   120   157   156    1
   121     5     2    1
   122     5     6    1
   123   132   130   ar
   124   115   116    1
   125   116   117    1
   126   129   127   ar
   127     2     3    1
   128     2     1    1
   129   159   156    1
   130   159   160    1
   131   171   172   ar
   132    88    90   ar
   133    88    89   ar
   134     6     7    1
   135   156   155    1
   136   162   160    1
   137    50    51    1
   138    50    53    1
   139     3     4    2
   140   118   117    2
   141    90    92   ar
   142   161   160    1
   143    55    53    1
   144    51    52    2
   145   130   128   ar
   146   109   108    2
   147    89    91   ar
   148     1     7    1
   149    53    54    1
   150   127   128   ar
   151   127   126    1
   152    92    93   ar
   153   108   107    1
   154   126   123    1
   155   122   123    1
   156   153   154   ar
   157   153   151   ar
   158    91    93   ar
   159   154   152   ar
   160    93    94    1
   161   151   148   ar
   162   106   107    1
   163   123   124    1
   164    78    77    2
   165    77    76    1
   166   107   110    1
   167   152   150   ar
   168   125   124    2
   169   148   150   ar
   170   148   146   ar
   171   150   149   ar
   172   110   111    1
   173   124   133   am
   174   146   145    1
   175   146   147   ar
   176   145   142    1
   177   149   147   ar
   178    76    79    1
   179    76    75    1
   180    79    80    1
   181   111   112    1
   182   133   134    1
   183   112   113    1
   184   141   142    1
   185   141   135   am
   186   144   143    2
   187   142   143    1
   188    80    81   ar
   189    80    82   ar
   190   134   135    1
   191   134   137    1
   192   135   136    2
   193   113   114    1
   194   140   138    1
   195   138   137    1
   196   138   139    1
