@<TRIPOS>MOLECULE
tmp/2wopA00.pdb
 120 124 0 0 0
SMALL
GASTEIGER

@<TRIPOS>ATOM
      1  N        -21.8330   -5.6050   18.8880 N.3    46  TYR46      -0.1227
      2  CA       -20.7990   -4.6930   19.3800 C.3    46  TYR46       0.1736
      3  C        -19.3800   -5.1120   18.9480 C.2    46  TYR46       0.2595
      4  O        -18.4430   -4.2970   19.0130 O.2    46  TYR46      -0.2718
      5  CB       -20.8710   -4.5620   20.9160 C.3    46  TYR46       0.0548
      6  CG       -20.9180   -3.1310   21.3880 C.ar   46  TYR46      -0.0200
      7  CD1      -22.0200   -2.6590   22.1020 C.ar   46  TYR46      -0.0009
      8  CD2      -19.8860   -2.2420   21.0960 C.ar   46  TYR46      -0.0009
      9  CE1      -22.0850   -1.3300   22.5290 C.ar   46  TYR46       0.0417
     10  CE2      -19.9380   -0.9180   21.5190 C.ar   46  TYR46       0.0417
     11  CZ       -21.0390   -0.4680   22.2340 C.ar   46  TYR46       0.1957
     12  OH       -21.0970    0.8510   22.6380 O.3    46  TYR46      -0.2866
     13  N        -19.2200   -6.3550   18.4890 N.am   47  TYR47      -0.1962
     14  CA       -17.8950   -6.8650   18.1080 C.3    47  TYR47       0.1771
     15  C        -17.3340   -6.0470   16.9540 C.2    47  TYR47       0.2619
     16  O        -18.0090   -5.8890   15.9230 O.2    47  TYR47      -0.2715
     17  CB       -17.9790   -8.3250   17.6480 C.3    47  TYR47       0.0574
     18  CG       -18.1620   -9.3930   18.7130 C.ar   47  TYR47      -0.0198
     19  CD1      -18.1550   -9.0950   20.0850 C.ar   47  TYR47      -0.0009
     20  CD2      -18.3000  -10.7290   18.3280 C.ar   47  TYR47      -0.0009
     21  CE1      -18.3190  -10.1160   21.0430 C.ar   47  TYR47       0.0417
     22  CE2      -18.4540  -11.7460   19.2640 C.ar   47  TYR47       0.0417
     23  CZ       -18.4540  -11.4380   20.6140 C.ar   47  TYR47       0.1957
     24  OH       -18.6130  -12.4910   21.5170 O.3    47  TYR47      -0.2866
     25  N        -16.1050   -5.5460   17.1120 N.am   48  VAL48      -0.1977
     26  CA       -15.4660   -4.7420   16.0550 C.3    48  VAL48       0.1596
     27  C        -15.4500   -5.5160   14.7340 C.2    48  VAL48       0.2287
     28  O        -15.7420   -4.9620   13.6700 O.2    48  VAL48      -0.2864
     29  CB       -14.0140   -4.3100   16.3770 C.3    48  VAL48       0.0276
     30  CG1      -13.5420   -3.3070   15.3390 C.3    48  VAL48       0.0022
     31  CG2      -13.9250   -3.6590   17.7150 C.3    48  VAL48       0.0022
     32  N        -18.8010   -5.5660   13.0920 N.3    51  TRP51      -0.1241
     33  CA       -19.0410   -4.2670   12.4230 C.3    51  TRP51       0.1605
     34  C        -18.3510   -4.2370   11.0670 C.2    51  TRP51       0.2264
     35  O        -18.8850   -3.7170   10.0880 O.2    51  TRP51      -0.2867
     36  CB       -18.5310   -3.1190   13.2680 C.3    51  TRP51       0.0550
     37  CG       -19.3760   -2.8770   14.4580 C.ar   51  TRP51       0.0003
     38  CD1      -20.2120   -3.7730   15.0940 C.ar   51  TRP51       0.0946
     39  CD2      -19.4760   -1.6560   15.1700 C.ar   51  TRP51       0.0152
     40  NE1      -20.8240   -3.1590   16.1670 N.ar   51  TRP51      -0.2442
     41  CE2      -20.3850   -1.8630   16.2400 C.ar   51  TRP51       0.0810
     42  CE3      -18.8810   -0.3900   15.0100 C.ar   51  TRP51       0.0012
     43  CZ2      -20.7180   -0.8430   17.1570 C.ar   51  TRP51       0.0191
     44  CZ3      -19.2020    0.6160   15.9220 C.ar   51  TRP51       0.0001
     45  CH2      -20.1210    0.3830   16.9780 C.ar   51  TRP51       0.0015
     46  N         -6.4860    0.6120   20.5520 N.3   297  PHE297     -0.1241
     47  CA        -6.8130    0.3110   21.9570 C.3   297  PHE297      0.1605
     48  C         -5.7400    0.8710   22.8770 C.2   297  PHE297      0.2264
     49  O         -4.5570    0.8880   22.5310 O.2   297  PHE297     -0.2867
     50  CB        -6.9560   -1.1960   22.2160 C.3   297  PHE297      0.0534
     51  CG        -8.2840   -1.7690   21.7860 C.ar  297  PHE297     -0.0203
     52  CD1       -8.5910   -1.9170   20.4320 C.ar  297  PHE297     -0.0042
     53  CD2       -9.2210   -2.1530   22.7290 C.ar  297  PHE297     -0.0042
     54  CE1       -9.8340   -2.4530   20.0240 C.ar  297  PHE297     -0.0003
     55  CE2      -10.4580   -2.6940   22.3420 C.ar  297  PHE297     -0.0003
     56  CZ       -10.7680   -2.8380   20.9930 C.ar  297  PHE297     -0.0000
     57  N        -16.7630   -6.3860   32.1500 N.3   425  PHE425     -0.1241
     58  CA       -17.3370   -5.0510   31.8870 C.3   425  PHE425      0.1605
     59  C        -18.7810   -4.8770   32.3910 C.2   425  PHE425      0.2264
     60  O        -19.1690   -3.7950   32.8380 O.2   425  PHE425     -0.2867
     61  CB       -17.2430   -4.7050   30.3930 C.3   425  PHE425      0.0534
     62  CG       -15.8680   -4.9190   29.7970 C.ar  425  PHE425     -0.0203
     63  CD1      -15.7220   -5.5770   28.5760 C.ar  425  PHE425     -0.0042
     64  CD2      -14.7250   -4.4670   30.4500 C.ar  425  PHE425     -0.0042
     65  CE1      -14.4550   -5.7720   28.0110 C.ar  425  PHE425     -0.0003
     66  CE2      -13.4530   -4.6670   29.9020 C.ar  425  PHE425     -0.0003
     67  CZ       -13.3160   -5.3190   28.6790 C.ar  425  PHE425     -0.0000
     68  N         -8.4270   -2.4490   29.3240 N.3   446  ASP446     -0.1225
     69  CA        -8.1090   -1.8500   28.0340 C.3   446  ASP446      0.1805
     70  C         -9.3860   -1.3080   27.4090 C.2   446  ASP446      0.2598
     71  O        -10.4750   -1.6250   27.8720 O.2   446  ASP446     -0.2718
     72  CB        -7.3540   -2.8140   27.1180 C.3   446  ASP446      0.1424
     73  CG        -8.1210   -4.0880   26.8100 C.2   446  ASP446      0.3668
     74  OD1       -9.2610   -4.2820   27.2830 O.co2 446  ASP446     -0.2456
     75  OD2       -7.5430   -4.9320   26.0910 O.co2 446  ASP446     -0.2456
     76  N         -9.2440   -0.4740   26.3900 N.am  447  TRP447     -0.1962
     77  CA       -10.3780    0.2450   25.8220 C.3   447  TRP447      0.1771
     78  C        -10.0950    0.6140   24.3780 C.2   447  TRP447      0.2620
     79  O         -8.9880    1.0250   24.0670 O.2   447  TRP447     -0.2715
     80  CB       -10.5750    1.5350   26.6150 C.3   447  TRP447      0.0590
     81  CG       -11.3960    2.5760   25.9460 C.ar  447  TRP447      0.0006
     82  CD1      -10.9360    3.7370   25.3760 C.ar  447  TRP447      0.0946
     83  CD2      -12.8190    2.5960   25.8120 C.ar  447  TRP447      0.0152
     84  NE1      -11.9900    4.4670   24.8740 N.ar  447  TRP447     -0.2442
     85  CE2      -13.1570    3.7900   25.1170 C.ar  447  TRP447      0.0810
     86  CE3      -13.8400    1.7080   26.1660 C.ar  447  TRP447      0.0012
     87  CZ2      -14.4800    4.1220   24.7930 C.ar  447  TRP447      0.0191
     88  CZ3      -15.1650    2.0480   25.8700 C.ar  447  TRP447      0.0001
     89  CH2      -15.4700    3.2470   25.1830 C.ar  447  TRP447      0.0015
     90  N        -11.1120    0.4910   23.5220 N.am  448  GLY448     -0.1940
     91  CA       -11.0580    1.0370   22.1690 C.3   448  GLY448      0.2014
     92  C        -12.3250    1.8430   21.9330 C.2   448  GLY448      0.2639
     93  O        -13.4050    1.4510   22.3880 O.2   448  GLY448     -0.2714
     94  N        -12.1840    2.9700   21.2410 N.am  449  ALA449     -0.1963
     95  CA       -13.3060    3.8650   20.9580 C.3   449  ALA449      0.1728
     96  C        -14.3120    3.1870   20.0390 C.2   449  ALA449      0.2616
     97  O        -13.9260    2.3870   19.1890 O.2   449  ALA449     -0.2715
     98  CB       -12.8020    5.1290   20.3030 C.3   449  ALA449      0.0334
     99  N        -15.5910    3.5120   20.2070 N.am  450  ASP450     -0.1971
    100  CA       -16.6430    2.9960   19.3060 C.3   450  ASP450      0.1709
    101  C        -16.7560    3.7960   18.0100 C.2   450  ASP450      0.2293
    102  O        -17.4990    3.4300   17.0960 O.2   450  ASP450     -0.2864
    103  CB       -17.9980    2.9400   20.0130 C.3   450  ASP450      0.1436
    104  CG       -17.9860    2.0100   21.2110 C.2   450  ASP450      0.3671
    105  OD1      -17.1700    1.0520   21.2300 O.co2 450  ASP450     -0.2456
    106  OD2      -18.7810    2.2490   22.1310 O.co2 450  ASP450     -0.2456
    107  N        -17.4500    2.5430   31.8490 N.3   474  TRP474     -0.1241
    108  CA       -16.1000    2.7560   31.3530 C.3   474  TRP474      0.1605
    109  C        -15.3800    3.9170   32.0160 C.2   474  TRP474      0.2264
    110  O        -14.1720    4.0910   31.8200 O.2   474  TRP474     -0.2867
    111  CB       -16.1160    2.9210   29.8360 C.3   474  TRP474      0.0550
    112  CG       -16.1640    1.5960   29.1990 C.ar  474  TRP474      0.0003
    113  CD1      -17.2440    0.9810   28.6380 C.ar  474  TRP474      0.0946
    114  CD2      -15.0830    0.6780   29.1200 C.ar  474  TRP474      0.0152
    115  NE1      -16.8900   -0.2770   28.1950 N.ar  474  TRP474     -0.2442
    116  CE2      -15.5630   -0.4790   28.4730 C.ar  474  TRP474      0.0810
    117  CE3      -13.7370    0.7290   29.5180 C.ar  474  TRP474      0.0012
    118  CZ2      -14.7450   -1.5820   28.2110 C.ar  474  TRP474      0.0191
    119  CZ3      -12.9340   -0.3650   29.2640 C.ar  474  TRP474      0.0001
    120  CH2      -13.4410   -1.5030   28.6140 C.ar  474  TRP474      0.0015
@<TRIPOS>BOND
     1    35    34    2
     2    34    33    1
     3    33    32    1
     4    33    36    1
     5    36    37    1
     6    28    27    2
     7    37    38   ar
     8    37    39   ar
     9    27    26    1
    10    42    39   ar
    11    42    44   ar
    12    38    40   ar
    13    39    41   ar
    14    30    29    1
    15    44    45   ar
    16    16    15    2
    17    26    29    1
    18    26    25    1
    19    40    41   ar
    20    41    43   ar
    21    29    31    1
    22    15    25   am
    23    15    14    1
    24    45    43   ar
    25   102   101    2
    26    17    14    1
    27    17    18    1
    28   101   100    1
    29    14    13    1
    30    20    18   ar
    31    20    22   ar
    32    13     3   am
    33    18    19   ar
    34     1     2    1
    35     3     4    2
    36     3     2    1
    37    97    96    2
    38    22    23   ar
    39   100   103    1
    40   100    99    1
    41     2     5    1
    42   103   104    1
    43    54    52   ar
    44    54    56   ar
    45    96    99   am
    46    96    95    1
    47    19    21   ar
    48    98    95    1
    49    52    51   ar
    50    46    47    1
    51    23    21   ar
    52    23    24    1
    53     5     6    1
    54    95    94    1
    55    56    55   ar
    56     8     6   ar
    57     8    10   ar
    58   104   105   ar
    59   104   106   ar
    60    94    92   am
    61     6     7   ar
    62    10    11   ar
    63    51    50    1
    64    51    53   ar
    65    92    91    1
    66    92    93    2
    67    47    50    1
    68    47    48    1
    69     7     9   ar
    70    91    90    1
    71    11     9   ar
    72    11    12    1
    73    55    53   ar
    74    49    48    2
    75    90    78   am
    76    79    78    2
    77    78    77    1
    78    87    85   ar
    79    87    89   ar
    80    84    85   ar
    81    84    82   ar
    82    85    83   ar
    83    89    88   ar
    84    82    81   ar
    85    83    81   ar
    86    83    86   ar
    87    77    76    1
    88    77    80    1
    89    88    86   ar
    90    81    80    1
    91    75    73   ar
    92    76    70   am
    93    73    72    1
    94    73    74   ar
    95    72    69    1
    96    70    71    2
    97    70    69    1
    98    65    63   ar
    99    65    67   ar
   100    69    68    1
   101   115   116   ar
   102   115   113   ar
   103   118   116   ar
   104   118   120   ar
   105   116   114   ar
   106    63    62   ar
   107   120   119   ar
   108   113   112   ar
   109    67    66   ar
   110   114   112   ar
   111   114   117   ar
   112   112   111    1
   113   119   117   ar
   114    62    61    1
   115    62    64   ar
   116   111   108    1
   117    66    64   ar
   118    61    58    1
   119   108   107    1
   120   108   109    1
   121   110   109    2
   122    58    57    1
   123    58    59    1
   124    59    60    2
