@<TRIPOS>MOLECULE
tmp/2woqA00.pdb
 168 157 0 0 0
SMALL
GASTEIGER

@<TRIPOS>ATOM
      1  N        -31.4860   18.2120   21.0470 N.3    82  PHE82      -0.1241
      2  CA       -30.7930   19.4870   21.3710 C.3    82  PHE82       0.1605
      3  C        -31.7510   20.3820   22.1840 C.2    82  PHE82       0.2264
      4  O        -32.6380   20.9940   21.6140 O.2    82  PHE82      -0.2867
      5  CB       -30.3180   20.1870   20.0970 C.3    82  PHE82       0.0534
      6  CG       -29.2370   19.4230   19.4010 C.ar   82  PHE82      -0.0203
      7  CD1      -27.8970   19.5420   19.8370 C.ar   82  PHE82      -0.0042
      8  CD2      -29.5380   18.5510   18.3300 C.ar   82  PHE82      -0.0042
      9  CE1      -26.8970   18.7730   19.2110 C.ar   82  PHE82      -0.0003
     10  CE2      -28.5410   17.7970   17.7070 C.ar   82  PHE82      -0.0003
     11  CZ       -27.2160   17.9140   18.1470 C.ar   82  PHE82      -0.0000
     12  N        -26.8910   15.0670   23.5390 N.3   123  ASP123     -0.1239
     13  CA       -25.7780   15.9420   23.2300 C.3   123  ASP123      0.1674
     14  C        -24.9810   16.1820   24.5150 C.2   123  ASP123      0.2266
     15  O        -25.5030   16.7720   25.4820 O.2   123  ASP123     -0.2867
     16  CB       -26.3120   17.2630   22.6630 C.3   123  ASP123      0.1410
     17  CG       -25.2030   18.1960   22.2190 C.2   123  ASP123      0.3668
     18  OD1      -24.2450   17.7140   21.6010 O.co2 123  ASP123     -0.2456
     19  OD2      -25.3130   19.4370   22.4910 O.co2 123  ASP123     -0.2456
     20  N        -22.1240   24.1920   25.9090 N.3   127  ASP127     -0.1239
     21  CA       -22.5620   25.4880   25.2930 C.3   127  ASP127      0.1674
     22  C        -24.0410   25.8740   25.5110 C.2   127  ASP127      0.2266
     23  O        -24.3110   27.0540   25.6490 O.2   127  ASP127     -0.2867
     24  CB       -22.1550   25.6140   23.8190 C.3   127  ASP127      0.1410
     25  CG       -22.7760   24.5380   22.9690 C.2   127  ASP127      0.3668
     26  OD1      -22.1360   23.4730   22.8640 O.co2 127  ASP127     -0.2456
     27  OD2      -23.9390   24.7170   22.5040 O.co2 127  ASP127     -0.2456
     28  N        -18.1920   26.6370   24.6150 N.3   135  ASP135     -0.1239
     29  CA       -18.2120   25.1580   24.7400 C.3   135  ASP135      0.1674
     30  C        -17.3830   24.5970   25.8670 C.2   135  ASP135      0.2266
     31  O        -16.5680   23.6850   25.6470 O.2   135  ASP135     -0.2867
     32  CB       -17.7430   24.5510   23.4270 C.3   135  ASP135      0.1410
     33  CG       -18.5340   25.0770   22.2600 C.2   135  ASP135      0.3668
     34  OD1      -18.1950   26.1930   21.7560 O.co2 135  ASP135     -0.2456
     35  OD2      -19.4990   24.3840   21.8840 O.co2 135  ASP135     -0.2456
     36  N        -20.0210   16.4900   21.8940 N.3   171  SER171     -0.1217
     37  CA       -19.8430   17.4150   20.7630 C.3   171  SER171      0.1889
     38  C        -18.9470   18.6250   21.0490 C.2   171  SER171      0.2288
     39  O        -18.8520   19.5270   20.1890 O.2   171  SER171     -0.2866
     40  CB       -21.2200   17.9290   20.3160 C.3   171  SER171      0.2089
     41  OG       -21.7830   18.7580   21.3380 O.3   171  SER171     -0.2183
     42  N        -17.9450   13.2810   18.3660 N.3   198  TYR198     -0.1241
     43  CA       -17.7370   14.2850   17.3100 C.3   198  TYR198      0.1605
     44  C        -16.2190   14.4080   17.2780 C.2   198  TYR198      0.2264
     45  O        -15.6250   15.1570   18.0570 O.2   198  TYR198     -0.2867
     46  CB       -18.3350   15.6340   17.7100 C.3   198  TYR198      0.0534
     47  CG       -19.8630   15.7400   17.6530 C.ar  198  TYR198     -0.0201
     48  CD1      -20.7000   14.9330   18.4250 C.ar  198  TYR198     -0.0009
     49  CD2      -20.4360   16.7270   16.8430 C.ar  198  TYR198     -0.0009
     50  CE1      -22.1300   15.1100   18.3680 C.ar  198  TYR198      0.0417
     51  CE2      -21.8380   16.9230   16.7960 C.ar  198  TYR198      0.0417
     52  CZ       -22.6640   16.1150   17.5290 C.ar  198  TYR198      0.1957
     53  OH       -24.0210   16.3990   17.4830 O.3   198  TYR198     -0.2866
     54  N        -14.4670   17.8420   14.3110 N.3   201  LYS201     -0.1245
     55  CA       -15.4320   18.9390   14.2990 C.3   201  LYS201      0.1561
     56  C        -14.6540   20.2320   14.0860 C.2   201  LYS201      0.2260
     57  O        -13.7950   20.6360   14.8910 O.2   201  LYS201     -0.2867
     58  CB       -16.2520   18.9640   15.6030 C.3   201  LYS201      0.0271
     59  CG       -17.1790   20.1700   15.6730 C.3   201  LYS201      0.0035
     60  CD       -18.1240   20.0500   16.8910 C.3   201  LYS201      0.0206
     61  CE       -18.9390   21.3080   16.9490 C.3   201  LYS201      0.1093
     62  NZ       -20.0520   21.0860   17.9460 N.3   201  LYS201     -0.1314
     63  N        -22.3280   26.6850   11.1120 N.3   207  TYR207     -0.1241
     64  CA       -23.2130   26.4700   12.2810 C.3   207  TYR207      0.1605
     65  C        -24.1340   27.6670   12.5800 C.2   207  TYR207      0.2264
     66  O        -24.8850   27.6070   13.5790 O.2   207  TYR207     -0.2867
     67  CB       -22.4180   26.1480   13.5510 C.3   207  TYR207      0.0534
     68  CG       -21.3100   25.1310   13.4100 C.ar  207  TYR207     -0.0201
     69  CD1      -21.5170   23.9170   12.7110 C.ar  207  TYR207     -0.0009
     70  CD2      -20.0880   25.3070   14.0730 C.ar  207  TYR207     -0.0009
     71  CE1      -20.4890   22.9750   12.5910 C.ar  207  TYR207      0.0417
     72  CE2      -19.0630   24.3710   13.9860 C.ar  207  TYR207      0.0417
     73  CZ       -19.2630   23.2090   13.2500 C.ar  207  TYR207      0.1957
     74  OH       -18.2960   22.2850   13.1780 O.3   207  TYR207     -0.2866
     75  N        -27.8170   27.3910   13.8570 N.3   210  PHE210     -0.1241
     76  CA       -27.9180   26.6660   15.1600 C.3   210  PHE210      0.1605
     77  C        -27.9730   27.6410   16.3420 C.2   210  PHE210      0.2264
     78  O        -28.7210   27.3830   17.3200 O.2   210  PHE210     -0.2867
     79  CB       -26.7660   25.6800   15.3110 C.3   210  PHE210      0.0534
     80  CG       -26.9110   24.7130   16.4710 C.ar  210  PHE210     -0.0203
     81  CD1      -26.4240   25.0570   17.7310 C.ar  210  PHE210     -0.0042
     82  CD2      -27.4980   23.4530   16.2710 C.ar  210  PHE210     -0.0042
     83  CE1      -26.5140   24.1380   18.8160 C.ar  210  PHE210     -0.0003
     84  CE2      -27.5570   22.4830   17.3210 C.ar  210  PHE210     -0.0003
     85  CZ       -27.0640   22.8450   18.6200 C.ar  210  PHE210     -0.0000
     86  N        -27.0170   29.4070   21.8560 N.3   216  SER216     -0.1202
     87  CA       -25.6350   29.1890   22.3170 C.3   216  SER216      0.2020
     88  C        -24.7320   30.3340   21.7490 C.2   216  SER216      0.2618
     89  O        -25.2480   31.4160   21.3810 O.2   216  SER216     -0.2717
     90  CB       -25.1460   27.7840   21.9100 C.3   216  SER216      0.2103
     91  OG       -25.2850   27.6100   20.5070 O.3   216  SER216     -0.2182
     92  N        -23.4180   30.1150   21.7370 N.am  217  ALA217     -0.1979
     93  CA       -22.4340   31.1190   21.2800 C.3   217  ALA217      0.1597
     94  C        -22.8060   31.7170   19.9430 C.2   217  ALA217      0.2287
     95  O        -23.1630   30.9800   18.9920 O.2   217  ALA217     -0.2864
     96  CB       -21.0170   30.4970   21.1890 C.3   217  ALA217      0.0319
     97  N        -18.7820   32.2370   15.8550 N.3   220  LEU220     -0.1245
     98  CA       -18.5670   30.9610   15.1480 C.3   220  LEU220      0.1561
     99  C        -17.3510   31.0410   14.2270 C.2   220  LEU220      0.2260
    100  O        -17.1720   32.0260   13.5050 O.2   220  LEU220     -0.2867
    101  CB       -19.8230   30.5940   14.3540 C.3   220  LEU220      0.0270
    102  CG       -21.0820   30.2750   15.1830 C.3   220  LEU220      0.0019
    103  CD1      -22.2860   30.3210   14.2950 C.3   220  LEU220      0.0001
    104  CD2      -20.9760   28.9450   15.9340 C.3   220  LEU220      0.0001
    105  N        -13.3700   29.7010   19.3300 N.3   225  LYS225     -0.1245
    106  CA       -13.6780   28.3670   18.8110 C.3   225  LYS225      0.1561
    107  C        -12.4200   27.7230   18.2490 C.2   225  LYS225      0.2260
    108  O        -12.2680   26.5270   18.3430 O.2   225  LYS225     -0.2867
    109  CB       -14.7590   28.4180   17.7120 C.3   225  LYS225      0.0271
    110  CG       -16.1120   28.9570   18.1940 C.3   225  LYS225      0.0035
    111  CD       -16.6170   28.2010   19.3940 C.3   225  LYS225      0.0206
    112  CE       -17.9190   28.8230   19.9570 C.3   225  LYS225      0.1093
    113  NZ       -19.0420   28.8700   18.9720 N.3   225  LYS225     -0.1314
    114  N        -11.9960   23.7360   18.2920 N.3   229  GLN229     -0.1245
    115  CA       -12.4780   23.2130   16.9840 C.3   229  GLN229      0.1566
    116  C        -11.3570   23.2450   15.9440 C.2   229  GLN229      0.2260
    117  O        -10.4170   24.0870   15.9900 O.2   229  GLN229     -0.2867
    118  CB       -13.7120   24.0110   16.5210 C.3   229  GLN229      0.0367
    119  CG       -14.8720   23.7930   17.4780 C.3   229  GLN229      0.0905
    120  CD       -16.1110   24.6160   17.0750 C.2   229  GLN229      0.2608
    121  OE1      -16.0550   25.4700   16.1810 O.2   229  GLN229     -0.2717
    122  NE2      -17.2240   24.3290   17.7370 N.am  229  GLN229     -0.0878
    123  N        -17.8190   16.7950   11.2790 N.3   256  LYS256     -0.1245
    124  CA       -18.8060   17.9160   11.2860 C.3   256  LYS256      0.1561
    125  C        -18.0690   19.2090   10.9720 C.2   256  LYS256      0.2260
    126  O        -16.9720   19.4300   11.4810 O.2   256  LYS256     -0.2867
    127  CB       -19.4850   17.9770   12.6950 C.3   256  LYS256      0.0271
    128  CG       -20.3060   19.2420   12.9050 C.3   256  LYS256      0.0035
    129  CD       -20.9600   19.1750   14.2960 C.3   256  LYS256      0.0206
    130  CE       -21.8260   20.4310   14.4560 C.3   256  LYS256      0.1093
    131  NZ       -22.3400   20.4890   15.8380 N.3   256  LYS256     -0.1314
    132  N        -22.4130   15.0920    9.9980 N.3   279  TYR279     -0.1241
    133  CA       -23.5150   16.0070   10.3450 C.3   279  TYR279      0.1605
    134  C        -23.7060   17.0170    9.2070 C.2   279  TYR279      0.2264
    135  O        -22.8290   17.8200    8.9530 O.2   279  TYR279     -0.2867
    136  CB       -23.1400   16.7470   11.6570 C.3   279  TYR279      0.0534
    137  CG       -24.3120   17.2900   12.4640 C.ar  279  TYR279     -0.0201
    138  CD1      -25.4200   17.9320   11.8440 C.ar  279  TYR279     -0.0009
    139  CD2      -24.3150   17.1850   13.8850 C.ar  279  TYR279     -0.0009
    140  CE1      -26.5040   18.4230   12.5960 C.ar  279  TYR279      0.0417
    141  CE2      -25.3930   17.6530   14.6460 C.ar  279  TYR279      0.0417
    142  CZ       -26.4780   18.2590   14.0170 C.ar  279  TYR279      0.1957
    143  OH       -27.4950   18.7340   14.7980 O.3   279  TYR279     -0.2866
    144  N        -25.0390   20.1130    8.7240 N.3   281  VAL281     -0.1231
    145  CA       -25.3880   21.1050    9.7610 C.3   281  VAL281      0.1692
    146  C        -26.4550   22.1380    9.3290 C.2   281  VAL281      0.2592
    147  O        -26.8440   22.1860    8.1510 O.2   281  VAL281     -0.2718
    148  CB       -24.1160   21.8230   10.3310 C.3   281  VAL281      0.0266
    149  CG1      -23.1310   20.7830   10.8850 C.3   281  VAL281      0.0020
    150  CG2      -23.4200   22.7150    9.2640 C.3   281  VAL281      0.0020
    151  N        -26.9230   22.8900   10.3150 N.am  282  SER282     -0.1952
    152  CA       -27.9510   23.9420   10.1570 C.3   282  SER282      0.1924
    153  C        -27.7450   24.8360    8.9330 C.2   282  SER282      0.2314
    154  O        -28.6890   25.0890    8.1810 O.2   282  SER282     -0.2863
    155  CB       -28.0440   24.7920   11.4390 C.3   282  SER282      0.2116
    156  OG       -26.7610   25.3050   11.7750 O.3   282  SER282     -0.2180
    157  N        -31.2980   17.5730    9.0970 N.3   320  TYR320     -0.1241
    158  CA       -32.6180   18.1590    9.3430 C.3   320  TYR320      0.1605
    159  C        -33.6100   17.8030    8.2400 C.2   320  TYR320      0.2264
    160  O        -34.8250   18.0340    8.4040 O.2   320  TYR320     -0.2867
    161  CB       -32.4990   19.7080    9.5150 C.3   320  TYR320      0.0534
    162  CG       -31.5540   20.0760   10.6410 C.ar  320  TYR320     -0.0201
    163  CD1      -31.9990   20.0730   11.9830 C.ar  320  TYR320     -0.0009
    164  CD2      -30.2050   20.3910   10.3740 C.ar  320  TYR320     -0.0009
    165  CE1      -31.0950   20.3830   13.0560 C.ar  320  TYR320      0.0417
    166  CE2      -29.2990   20.6860   11.4170 C.ar  320  TYR320      0.0417
    167  CZ       -29.7760   20.6890   12.7590 C.ar  320  TYR320      0.1957
    168  OH       -28.9060   20.9920   13.7780 O.3   320  TYR320     -0.2866
@<TRIPOS>BOND
     1   147   146    2
     2   154   153    2
     3   159   160    2
     4   159   158    1
     5   144   145    1
     6   153   152    1
     7   135   134    2
     8   157   158    1
     9   134   133    1
    10   150   148    1
    11   146   145    1
    12   146   151   am
    13   158   161    1
    14   161   162    1
    15   145   148    1
    16   132   133    1
    17   152   151    1
    18   152   155    1
    19   148   149    1
    20   133   136    1
    21   164   162   ar
    22   164   166   ar
    23   162   163   ar
    24   125   124    1
    25   125   126    2
    26    63    64    1
    27   123   124    1
    28   124   127    1
    29   166   167   ar
    30   155   156    1
    31   136   137    1
    32   138   137   ar
    33   138   140   ar
    34   163   165   ar
    35    64    65    1
    36    64    67    1
    37   137   139   ar
    38    65    66    2
    39    71    69   ar
    40    71    73   ar
    41   140   142   ar
    42   127   128    1
    43    69    68   ar
    44   167   165   ar
    45   167   168    1
    46   128   129    1
    47    74    73    1
    48    73    72   ar
    49    68    67    1
    50    68    70   ar
    51   100    99    2
    52    75    76    1
    53   139   141   ar
    54    72    70   ar
    55   142   141   ar
    56   142   143    1
    57    56    55    1
    58    56    57    2
    59    99    98    1
    60   103   102    1
    61   129   130    1
    62    55    54    1
    63    55    58    1
    64   101    98    1
    65   101   102    1
    66   130   131    1
    67    98    97    1
    68    76    79    1
    69    76    77    1
    70   102   104    1
    71    79    80    1
    72    58    59    1
    73    59    60    1
    74   116   117    2
    75   116   115    1
    76   121   120    2
    77    82    80   ar
    78    82    84   ar
    79    77    78    2
    80    80    81   ar
    81   118   115    1
    82   118   119    1
    83    51    49   ar
    84    51    52   ar
    85    49    47   ar
    86    60    61    1
    87    61    62    1
    88   115   114    1
    89   120   119    1
    90   120   122   am
    91    44    43    1
    92    44    45    2
    93    43    46    1
    94    43    42    1
    95    84    85   ar
    96    53    52    1
    97    52    50   ar
    98    47    46    1
    99    47    48   ar
   100    10    11   ar
   101    10     8   ar
   102   109   110    1
   103   109   106    1
   104    81    83   ar
   105    11     9   ar
   106   110   111    1
   107   107   108    2
   108   107   106    1
   109     8     6   ar
   110    50    48   ar
   111    85    83   ar
   112   106   105    1
   113   113   112    1
   114    95    94    2
   115     9     7   ar
   116   111   112    1
   117     6     7   ar
   118     6     5    1
   119    94    93    1
   120     5     2    1
   121    39    38    2
   122    40    37    1
   123    40    41    1
   124    91    90    1
   125    37    38    1
   126    37    36    1
   127     1     2    1
   128    96    93    1
   129    93    92    1
   130     2     3    1
   131    89    88    2
   132    18    17   ar
   133     4     3    2
   134    92    88   am
   135    88    87    1
   136    34    33   ar
   137    86    87    1
   138    35    33   ar
   139    90    87    1
   140    17    19   ar
   141    17    16    1
   142    33    32    1
   143    27    25   ar
   144    16    13    1
   145    26    25   ar
   146    25    24    1
   147    13    12    1
   148    13    14    1
   149    32    29    1
   150    24    21    1
   151    14    15    2
   152    28    29    1
   153    29    30    1
   154    21    22    1
   155    21    20    1
   156    22    23    2
   157    31    30    2
