@<TRIPOS>MOLECULE
tmp/2wosA00.pdb
 90 84 0 0 0
SMALL
GASTEIGER

@<TRIPOS>ATOM
      1  N         26.1100   20.2700   -5.9730 N.3     4  GLN4       -0.1245
      2  CA        25.1990   20.8280   -4.9580 C.3     4  GLN4        0.1566
      3  C         24.1370   19.7910   -4.5710 C.2     4  GLN4        0.2260
      4  O         23.8300   19.5750   -3.3530 O.2     4  GLN4       -0.2867
      5  CB        24.3750   22.0710   -5.3180 C.3     4  GLN4        0.0367
      6  CG        25.1280   23.2990   -5.4930 C.3     4  GLN4        0.0905
      7  CD        24.1170   24.4500   -5.6440 C.2     4  GLN4        0.2608
      8  OE1       23.2230   24.3890   -6.5160 O.2     4  GLN4       -0.2717
      9  NE2       24.2280   25.4760   -4.7850 N.am    4  GLN4       -0.0878
     10  N         25.8200   17.1310   -2.4020 N.3     7  ARG7       -0.1231
     11  CA        26.0610   17.6800   -1.0570 C.3     7  ARG7        0.1694
     12  C         24.7860   17.7640   -0.2170 C.2     7  ARG7        0.2592
     13  O         24.8000   17.5680    1.0590 O.2     7  ARG7       -0.2718
     14  CB        26.7640   19.0240   -1.1150 C.3     7  ARG7        0.0321
     15  CG        28.1900   18.9670   -1.6350 C.3     7  ARG7        0.0489
     16  CD        28.8890   20.3190   -1.4530 C.3     7  ARG7        0.2205
     17  NE        28.1920   21.4830   -2.0220 N.pl3   7  ARG7       -0.0865
     18  CZ        28.3150   21.9300   -3.3090 C.cat   7  ARG7        0.5346
     19  NH1       29.1180   21.3270   -4.1890 N.pl3   7  ARG7        0.1354
     20  NH2       27.6200   22.9980   -3.7290 N.pl3   7  ARG7        0.1354
     21  N         23.6550   18.0770   -0.8550 N.am    8  SER8       -0.1952
     22  CA        22.3750   18.1940   -0.1560 C.3     8  SER8        0.1924
     23  C         21.9350   16.8240    0.3330 C.2     8  SER8        0.2314
     24  O         21.4700   16.7260    1.5030 O.2     8  SER8       -0.2863
     25  CB        21.2800   18.8550   -0.9900 C.3     8  SER8        0.2116
     26  OG        21.6030   20.2190   -1.1100 O.3     8  SER8       -0.2180
     27  N         24.2630   15.9570    3.2370 N.3    11  GLY11      -0.1210
     28  CA        23.9020   16.7590    4.4030 C.3    11  GLY11       0.1956
     29  C         22.6090   16.3000    5.0350 C.2    11  GLY11       0.2611
     30  O         22.4390   16.4970    6.2650 O.2    11  GLY11      -0.2717
     31  N         21.6560   15.7550    4.2610 N.am   12  MET12      -0.1979
     32  CA        20.4240   15.2560    4.8370 C.3    12  MET12       0.1605
     33  C         20.6580   14.0650    5.8070 C.2    12  MET12       0.2287
     34  O         20.0370   13.9670    6.8860 O.2    12  MET12      -0.2864
     35  CB        19.5190   14.7060    3.6340 C.3    12  MET12       0.0413
     36  CG        18.1190   14.4500    4.0910 C.3    12  MET12       0.0598
     37  SD        17.3820   13.1780    2.8120 S.3    12  MET12      -0.1393
     38  CE        17.3880   14.1610    1.3230 C.3    12  MET12       0.0692
     39  N         23.5540   13.4810    7.2240 N.3    14  ASP14      -0.1225
     40  CA        24.2960   14.0380    8.4220 C.3    14  ASP14       0.1805
     41  C         23.3430   14.7460    9.3760 C.2    14  ASP14       0.2597
     42  O         23.5690   14.7030   10.6110 O.2    14  ASP14      -0.2718
     43  CB        25.4190   14.9710    7.9180 C.3    14  ASP14       0.1424
     44  CG        26.5460   14.1720    7.2180 C.2    14  ASP14       0.3668
     45  OD1       26.6410   12.8960    7.3480 O.co2  14  ASP14      -0.2456
     46  OD2       27.2970   14.8720    6.4530 O.co2  14  ASP14      -0.2456
     47  N         22.3090   15.4140    8.8430 N.am   15  MET15      -0.1979
     48  CA        21.3350   16.0990    9.6970 C.3    15  MET15       0.1605
     49  C         20.5500   15.0370   10.5010 C.2    15  MET15       0.2287
     50  O         20.4080   15.2520   11.7320 O.2    15  MET15      -0.2864
     51  CB        20.3730   16.9410    8.8490 C.3    15  MET15       0.0413
     52  CG        19.4140   17.7490    9.7720 C.3    15  MET15       0.0598
     53  SD        18.3030   18.8070    8.7160 S.3    15  MET15      -0.1393
     54  CE        17.1440   17.6310    8.0680 C.3    15  MET15       0.0692
     55  N         22.5020   14.0170   13.4840 N.3    18  LYS18      -0.1245
     56  CA        22.6860   14.9820   14.5980 C.3    18  LYS18       0.1561
     57  C         21.6590   14.6190   15.6990 C.2    18  LYS18       0.2260
     58  O         21.8510   15.0490   16.8670 O.2    18  LYS18      -0.2867
     59  CB        22.5420   16.3760   14.1030 C.3    18  LYS18       0.0271
     60  CG        23.8250   16.7680   13.2890 C.3    18  LYS18       0.0035
     61  CD        23.7970   18.2590   12.8070 C.3    18  LYS18       0.0206
     62  CE        25.0160   18.5090   11.8850 C.3    18  LYS18       0.1093
     63  NZ        25.0820   19.9680   11.3140 N.3    18  LYS18      -0.1314
     64  N         16.0920   23.4520   12.1680 N.3    38  ASN38      -0.1225
     65  CA        16.3590   23.3280   10.6570 C.3    38  ASN38       0.1785
     66  C         15.2890   23.9160    9.7670 C.2    38  ASN38       0.2597
     67  O         15.5680   24.2370    8.5760 O.2    38  ASN38      -0.2718
     68  CB        16.6640   21.8560   10.2780 C.3    38  ASN38       0.1169
     69  CG        17.9380   21.4140   10.9330 C.2    38  ASN38       0.2627
     70  OD1       19.0340   21.7470   10.4800 O.2    38  ASN38      -0.2716
     71  ND2       17.8330   20.7230   12.1080 N.am   38  ASN38      -0.0877
     72  N         14.0200   24.0170   10.3040 N.am   39  PHE39      -0.1976
     73  CA        12.9420   24.5020    9.4170 C.3    39  PHE39       0.1639
     74  C         12.1850   25.6310   10.1230 C.2    39  PHE39       0.2290
     75  O         10.9480   25.6650   10.1400 O.2    39  PHE39      -0.2864
     76  CB        11.9550   23.3290    9.1290 C.3    39  PHE39       0.0560
     77  CG        12.6160   22.2380    8.2740 C.ar   39  PHE39      -0.0200
     78  CD1       12.8500   22.5680    6.9340 C.ar   39  PHE39      -0.0042
     79  CD2       13.1620   21.0890    8.8390 C.ar   39  PHE39      -0.0042
     80  CE1       13.5350   21.6590    6.1170 C.ar   39  PHE39      -0.0003
     81  CE2       13.8370   20.1420    7.9630 C.ar   39  PHE39      -0.0003
     82  CZ        14.0130   20.4720    6.6010 C.ar   39  PHE39      -0.0000
     83  N         10.5120   14.7380    5.2670 N.3    78  LEU78      -0.1245
     84  CA        11.1160   15.7120    4.2840 C.3    78  LEU78       0.1561
     85  C         10.3000   15.7830    3.0040 C.2    78  LEU78       0.2260
     86  O         10.2120   16.9040    2.4230 O.2    78  LEU78      -0.2867
     87  CB        12.5350   15.2520    3.9430 C.3    78  LEU78       0.0270
     88  CG        13.4840   15.3470    5.1640 C.3    78  LEU78       0.0019
     89  CD1       14.8390   14.9250    4.5340 C.3    78  LEU78       0.0001
     90  CD2       13.4820   16.6670    5.8050 C.3    78  LEU78       0.0001
@<TRIPOS>BOND
     1     8     7    2
     2     1     2    1
     3     7     6    1
     4     7     9   am
     5     6     5    1
     6     5     2    1
     7     2     3    1
     8     3     4    2
     9    19    18    1
    10    20    18    1
    11    18    17    2
    12    10    11    1
    13    17    16    1
    14    15    16    1
    15    15    14    1
    16    14    11    1
    17    26    25    1
    18    11    12    1
    19    25    22    1
    20    21    12   am
    21    21    22    1
    22    12    13    2
    23    22    23    1
    24    23    24    2
    25    38    37    1
    26    86    85    2
    27    37    36    1
    28    85    84    1
    29    27    28    1
    30    35    36    1
    31    35    32    1
    32    87    84    1
    33    87    88    1
    34    31    32    1
    35    31    29   am
    36    84    83    1
    37    28    29    1
    38    89    88    1
    39    32    33    1
    40    29    30    2
    41    88    90    1
    42    33    34    2
    43    80    82   ar
    44    80    78   ar
    45    46    44   ar
    46    82    81   ar
    47    78    77   ar
    48    44    45   ar
    49    44    43    1
    50    39    40    1
    51    43    40    1
    52    81    79   ar
    53    54    53    1
    54    77    79   ar
    55    77    76    1
    56    40    41    1
    57    67    66    2
    58    53    52    1
    59    47    41   am
    60    47    48    1
    61    51    48    1
    62    51    52    1
    63    76    73    1
    64    41    42    2
    65    73    74    1
    66    73    72    1
    67    48    49    1
    68    66    72   am
    69    66    65    1
    70    74    75    2
    71    68    65    1
    72    68    69    1
    73    70    69    2
    74    49    50    2
    75    65    64    1
    76    69    71   am
    77    63    62    1
    78    62    61    1
    79    61    60    1
    80    60    59    1
    81    55    56    1
    82    59    56    1
    83    56    57    1
    84    57    58    2
