@<TRIPOS>MOLECULE
tmp/2wotA00.pdb
 219 208 0 0 0
SMALL
GASTEIGER

@<TRIPOS>ATOM
      1  N         -3.6430   15.2150   -2.0080 N.3    12  GLU12      -0.1245
      2  CA        -4.4060   14.3920   -1.0800 C.3    12  GLU12       0.1567
      3  C         -3.7910   14.4330    0.3160 C.2    12  GLU12       0.2260
      4  O         -2.5900   14.2210    0.4700 O.2    12  GLU12      -0.2867
      5  CB        -4.4430   12.9620   -1.6310 C.3    12  GLU12       0.0388
      6  CG        -5.0990   11.9050   -0.7550 C.3    12  GLU12       0.1160
      7  CD        -5.0840   10.5300   -1.4110 C.2    12  GLU12       0.3649
      8  OE1       -5.9440    9.7010   -1.0760 O.co2  12  GLU12      -0.2457
      9  OE2       -4.2130   10.2680   -2.2650 O.co2  12  GLU12      -0.2457
     10  N         -2.9650   12.8970    3.7910 N.3    14  ILE14      -0.1245
     11  CA        -2.7590   11.5420    4.3130 C.3    14  ILE14       0.1561
     12  C         -3.0330   11.4990    5.8150 C.2    14  ILE14       0.2260
     13  O         -3.7190   10.5970    6.2890 O.2    14  ILE14      -0.2867
     14  CB        -1.3330   11.0250    4.0170 C.3    14  ILE14       0.0252
     15  CG1       -1.0860   10.9780    2.5050 C.3    14  ILE14       0.0019
     16  CG2       -1.1170    9.6360    4.6180 C.3    14  ILE14       0.0019
     17  CD1       -2.0500   10.0770    1.7500 C.3    14  ILE14       0.0001
     18  N          1.0740   13.0500   11.7820 N.3    17  GLY17      -0.1225
     19  CA         1.9140   12.1880   12.6040 C.3    17  GLY17       0.1811
     20  C          2.2420   12.8630   13.9240 C.2    17  GLY17       0.2280
     21  O          1.4470   13.6520   14.4480 O.2    17  GLY17      -0.2866
     22  N          1.2260   14.7540    6.6470 N.3    22  VAL22      -0.1245
     23  CA         1.6270   14.0600    5.4240 C.3    22  VAL22       0.1561
     24  C          0.6140   14.2550    4.2910 C.2    22  VAL22       0.2260
     25  O         -0.5920   14.2570    4.5250 O.2    22  VAL22      -0.2867
     26  CB         1.8330   12.5560    5.6940 C.3    22  VAL22       0.0252
     27  CG1        2.2470   11.8290    4.4270 C.3    22  VAL22       0.0019
     28  CG2        2.8720   12.3630    6.7920 C.3    22  VAL22       0.0019
     29  N          5.5840   11.5800   -1.6350 N.3    33  ALA33      -0.1245
     30  CA         5.0020   11.8770   -0.3340 C.3    33  ALA33       0.1562
     31  C          5.6420   13.1510    0.1980 C.2    33  ALA33       0.2260
     32  O          6.8400   13.3650    0.0250 O.2    33  ALA33      -0.2867
     33  CB         5.2280   10.7220    0.6250 C.3    33  ALA33       0.0290
     34  N          5.8280   15.6140    3.7820 N.3    35  LYS35      -0.1245
     35  CA         5.5110   15.9170    5.1770 C.3    35  LYS35       0.1561
     36  C          5.7680   17.4000    5.3950 C.2    35  LYS35       0.2260
     37  O          6.8730   17.8920    5.1540 O.2    35  LYS35      -0.2867
     38  CB         6.3550   15.0810    6.1420 C.3    35  LYS35       0.0271
     39  CG         5.9100   15.1850    7.5960 C.3    35  LYS35       0.0035
     40  CD         6.7830   14.3560    8.5200 C.3    35  LYS35       0.0206
     41  CE         6.4350   12.8900    8.4530 C.3    35  LYS35       0.1093
     42  NZ         7.2510   12.0780    9.4040 N.3    35  LYS35      -0.1314
     43  N         14.5260   15.3800   11.5830 N.3    48  GLU48      -0.1245
     44  CA        14.1670   14.2950   10.6720 C.3    48  GLU48       0.1567
     45  C         14.9400   14.4210    9.3620 C.2    48  GLU48       0.2260
     46  O         15.4530   13.4320    8.8510 O.2    48  GLU48      -0.2867
     47  CB        12.6580   14.2270   10.4160 C.3    48  GLU48       0.0388
     48  CG        12.2660   13.0250    9.5670 C.3    48  GLU48       0.1160
     49  CD        10.8410   12.5470    9.8000 C.2    48  GLU48       0.3649
     50  OE1       10.6140   11.3200    9.7240 O.co2  48  GLU48      -0.2457
     51  OE2        9.9560   13.3830   10.0590 O.co2  48  GLU48      -0.2457
     52  N         17.6640   11.5590    7.8800 N.3    52  TYR52      -0.1241
     53  CA        17.4920   11.0090    6.5290 C.3    52  TYR52       0.1605
     54  C         18.6540   11.3040    5.5820 C.2    52  TYR52       0.2264
     55  O         18.8330   10.5960    4.5940 O.2    52  TYR52      -0.2867
     56  CB        16.1830   11.4850    5.8950 C.3    52  TYR52       0.0534
     57  CG        15.0030   10.5900    6.2040 C.ar   52  TYR52      -0.0201
     58  CD1       14.9060    9.3150    5.6530 C.ar   52  TYR52      -0.0009
     59  CD2       13.9860   11.0160    7.0450 C.ar   52  TYR52      -0.0009
     60  CE1       13.8210    8.4920    5.9350 C.ar   52  TYR52       0.0417
     61  CE2       12.9020   10.1990    7.3310 C.ar   52  TYR52       0.0417
     62  CZ        12.8280    8.9410    6.7750 C.ar   52  TYR52       0.1957
     63  OH        11.7520    8.1380    7.0590 O.3    52  TYR52      -0.2866
     64  N         12.5610    4.0420    4.2110 N.3    63  LEU63      -0.1245
     65  CA        11.8830    4.9990    3.3310 C.3    63  LEU63       0.1561
     66  C         12.9020    5.8220    2.5390 C.2    63  LEU63       0.2260
     67  O         13.8300    6.3960    3.1150 O.2    63  LEU63      -0.2867
     68  CB        10.9680    5.9310    4.1350 C.3    63  LEU63       0.0270
     69  CG        10.2170    7.0150    3.3490 C.3    63  LEU63       0.0019
     70  CD1        9.2540    6.4180    2.3180 C.3    63  LEU63       0.0001
     71  CD2        9.4600    7.9300    4.3160 C.3    63  LEU63       0.0001
     72  N         14.3720    8.8060    0.8670 N.3    65  PHE65      -0.1241
     73  CA        14.2720   10.2320    1.1100 C.3    65  PHE65       0.1605
     74  C         14.7080   11.0090   -0.1240 C.2    65  PHE65       0.2264
     75  O         15.7410   10.7030   -0.7120 O.2    65  PHE65      -0.2867
     76  CB        15.1670   10.5950    2.2900 C.3    65  PHE65       0.0534
     77  CG        15.1160   12.0390    2.6700 C.ar   65  PHE65      -0.0203
     78  CD1       14.0590   12.5330    3.4160 C.ar   65  PHE65      -0.0042
     79  CD2       16.1320   12.9040    2.2940 C.ar   65  PHE65      -0.0042
     80  CE1       14.0140   13.8640    3.7780 C.ar   65  PHE65      -0.0003
     81  CE2       16.0940   14.2380    2.6560 C.ar   65  PHE65      -0.0003
     82  CZ        15.0370   14.7160    3.4050 C.ar   65  PHE65      -0.0000
     83  N          9.4610   18.0240    3.9080 N.3    81  LEU81      -0.1231
     84  CA        10.2650   16.8430    3.6060 C.3    81  LEU81       0.1693
     85  C          9.5630   16.1110    2.4710 C.2    81  LEU81       0.2592
     86  O          8.3270   16.0610    2.4240 O.2    81  LEU81      -0.2718
     87  CB        10.4000   15.9190    4.8270 C.3    81  LEU81       0.0284
     88  CG        11.0350   16.5100    6.0880 C.3    81  LEU81       0.0019
     89  CD1       11.0410   15.5000    7.2500 C.3    81  LEU81       0.0001
     90  CD2       12.4470   17.0030    5.7940 C.3    81  LEU81       0.0001
     91  N         10.3480   15.5570    1.5530 N.am   82  VAL82      -0.1966
     92  CA         9.8150   14.8520    0.3960 C.3    82  VAL82       0.1727
     93  C         10.4570   13.4620    0.3130 C.2    82  VAL82       0.2617
     94  O         11.6670   13.3280    0.4960 O.2    82  VAL82      -0.2715
     95  CB        10.0840   15.6420   -0.9050 C.3    82  VAL82       0.0290
     96  CG1        9.3600   15.0010   -2.0940 C.3    82  VAL82       0.0023
     97  CG2        9.6660   17.1100   -0.7430 C.3    82  VAL82       0.0023
     98  N          9.6410   12.4430    0.0510 N.am   83  SER83      -0.1936
     99  CA        10.1000   11.0540   -0.0470 C.3    83  SER83       0.2055
    100  C          9.3420   10.2850   -1.1230 C.2    83  SER83       0.2643
    101  O          8.4020   10.8040   -1.7320 O.2    83  SER83      -0.2714
    102  CB         9.8920   10.3320    1.2900 C.3    83  SER83       0.2130
    103  OG         8.5100   10.1160    1.5550 O.3    83  SER83      -0.2179
    104  N          9.7550    9.0340   -1.3340 N.am   84  ASP84      -0.1957
    105  CA         8.9710    8.0620   -2.0950 C.3    84  ASP84       0.1840
    106  C          7.5570    7.9820   -1.5200 C.2    84  ASP84       0.2622
    107  O          7.3580    8.2060   -0.3280 O.2    84  ASP84      -0.2715
    108  CB         9.5900    6.6570   -2.0070 C.3    84  ASP84       0.1450
    109  CG        11.0000    6.5680   -2.6010 C.2    84  ASP84       0.3671
    110  OD1       11.4390    7.4740   -3.3440 O.co2  84  ASP84      -0.2456
    111  OD2       11.6700    5.5500   -2.3280 O.co2  84  ASP84      -0.2456
    112  N          6.5830    7.6560   -2.3670 N.am   85  TYR85      -0.1960
    113  CA         5.2070    7.4460   -1.9190 C.3    85  TYR85       0.1771
    114  C          4.8370    5.9690   -2.0160 C.2    85  TYR85       0.2620
    115  O          5.0880    5.3260   -3.0370 O.2    85  TYR85      -0.2715
    116  CB         4.2280    8.2700   -2.7570 C.3    85  TYR85       0.0574
    117  CG         2.7930    8.0520   -2.3540 C.ar   85  TYR85      -0.0198
    118  CD1        2.3320    8.5060   -1.1280 C.ar   85  TYR85      -0.0009
    119  CD2        1.9050    7.3710   -3.1820 C.ar   85  TYR85      -0.0009
    120  CE1        1.0230    8.2990   -0.7320 C.ar   85  TYR85       0.0417
    121  CE2        0.5820    7.1580   -2.7930 C.ar   85  TYR85       0.0417
    122  CZ         0.1560    7.6250   -1.5610 C.ar   85  TYR85       0.1957
    123  OH        -1.1440    7.4420   -1.1510 O.3    85  TYR85      -0.2866
    124  N          4.2370    5.4420   -0.9520 N.am   86  HIS86      -0.1959
    125  CA         3.7720    4.0590   -0.9330 C.3    86  HIS86       0.1787
    126  C          2.2630    3.9800   -0.7050 C.2    86  HIS86       0.2620
    127  O          1.7550    4.2730    0.3800 O.2    86  HIS86      -0.2715
    128  CB         4.5560    3.2490    0.0930 C.3    86  HIS86       0.0785
    129  CG         6.0160    3.1760   -0.2190 C.ar   86  HIS86       0.0821
    130  ND1        6.5020    2.5360   -1.3380 N.ar   86  HIS86      -0.2267
    131  CD2        7.0940    3.6900    0.4200 C.ar   86  HIS86       0.1154
    132  CE1        7.8180    2.6500   -1.3690 C.ar   86  HIS86       0.1986
    133  NE2        8.2020    3.3420   -0.3110 N.ar   86  HIS86      -0.2212
    134  N          1.5840    3.5610   -1.7680 N.am   87  GLU87      -0.1963
    135  CA         0.1300    3.5250   -1.8920 C.3    87  GLU87       0.1733
    136  C         -0.5830    2.6980   -0.8140 C.2    87  GLU87       0.2616
    137  O         -1.6840    3.0580   -0.3910 O.2    87  GLU87      -0.2715
    138  CB        -0.1910    2.9540   -3.2810 C.3    87  GLU87       0.0429
    139  CG        -1.5940    3.1160   -3.7750 C.3    87  GLU87       0.1163
    140  CD        -1.7160    2.7060   -5.2360 C.2    87  GLU87       0.3649
    141  OE1       -1.2560    1.5960   -5.5960 O.co2  87  GLU87      -0.2457
    142  OE2       -2.2640    3.5000   -6.0260 O.co2  87  GLU87      -0.2457
    143  N          0.0380    1.5980   -0.3840 N.am   88  HIS88      -0.1959
    144  CA        -0.5520    0.7140    0.6390 C.3    88  HIS88       0.1787
    145  C         -0.5770    1.3210    2.0450 C.2    88  HIS88       0.2621
    146  O         -1.3060    0.8420    2.9190 O.2    88  HIS88      -0.2715
    147  CB         0.2050   -0.6150    0.7150 C.3    88  HIS88       0.0785
    148  CG        -0.1270   -1.5710   -0.3820 C.ar   88  HIS88       0.0821
    149  ND1       -1.4160   -1.7730   -0.8290 N.ar   88  HIS88      -0.2267
    150  CD2        0.6560   -2.4110   -1.0980 C.ar   88  HIS88       0.1154
    151  CE1       -1.4080   -2.6780   -1.7910 C.ar   88  HIS88       0.1986
    152  NE2       -0.1630   -3.0820   -1.9710 N.ar   88  HIS88      -0.2212
    153  N          0.2370    2.3490    2.2720 N.am   89  GLY89      -0.1940
    154  CA         0.3110    2.9860    3.5790 C.3    89  GLY89       0.2014
    155  C          1.0940    2.1660    4.5840 C.2    89  GLY89       0.2639
    156  O          2.0390    1.4630    4.2200 O.2    89  GLY89      -0.2714
    157  N          0.7040    2.2580    5.8520 N.am   90  SER90      -0.1949
    158  CA         1.4660    1.6280    6.9230 C.3    90  SER90       0.1924
    159  C          1.1630    0.1350    7.0160 C.2    90  SER90       0.2314
    160  O          0.1310   -0.3310    6.5200 O.2    90  SER90      -0.2863
    161  CB         1.1840    2.3140    8.2670 C.3    90  SER90       0.2116
    162  OG        -0.0800    1.9440    8.7800 O.3    90  SER90      -0.2180
    163  N         -2.1500   -0.3840    8.5990 N.3    93  ASP93      -0.1239
    164  CA        -3.2790   -0.3180    7.6600 C.3    93  ASP93       0.1674
    165  C         -3.3760   -1.6080    6.8500 C.2    93  ASP93       0.2266
    166  O         -4.4600   -2.1790    6.6900 O.2    93  ASP93      -0.2867
    167  CB        -3.1480    0.8790    6.7100 C.3    93  ASP93       0.1410
    168  CG        -3.1680    2.2160    7.4350 C.2    93  ASP93       0.3668
    169  OD1       -4.0730    2.4350    8.2690 O.co2  93  ASP93      -0.2456
    170  OD2       -2.2620    3.0490    7.1770 O.co2  93  ASP93      -0.2456
    171  N         -6.4230   -4.4440    6.6600 N.3    97  ARG97      -0.1245
    172  CA        -7.1200   -4.7100    5.4020 C.3    97  ARG97       0.1563
    173  C         -7.0140   -6.1660    4.9480 C.2    97  ARG97       0.2260
    174  O         -7.9810   -6.7210    4.4170 O.2    97  ARG97      -0.2867
    175  CB        -6.5800   -3.7990    4.2930 C.3    97  ARG97       0.0307
    176  CG        -6.9000   -2.3210    4.4840 C.3    97  ARG97       0.0489
    177  CD        -6.6200   -1.5220    3.2160 C.3    97  ARG97       0.2205
    178  NE        -7.0150   -0.1160    3.3440 N.pl3  97  ARG97      -0.0865
    179  CZ        -6.1890    0.9100    3.5560 C.cat  97  ARG97       0.5346
    180  NH1       -4.8750    0.7330    3.6770 N.pl3  97  ARG97       0.1354
    181  NH2       -6.6870    2.1410    3.6460 N.pl3  97  ARG97       0.1354
    182  N          2.5130    1.2720   12.6440 N.3   140  LYS140     -0.1231
    183  CA         2.0970    2.5350   12.0110 C.3   140  LYS140      0.1693
    184  C          3.2630    3.3420   11.4140 C.2   140  LYS140      0.2592
    185  O          3.0310    4.2720   10.6330 O.2   140  LYS140     -0.2718
    186  CB         1.3060    3.4000   12.9950 C.3   140  LYS140      0.0285
    187  CG        -0.1130    2.9060   13.2330 C.3   140  LYS140      0.0035
    188  CD        -0.8660    3.7920   14.2000 C.3   140  LYS140      0.0206
    189  CE        -2.2320    3.2040   14.5440 C.3   140  LYS140      0.1093
    190  NZ        -3.0770    4.1660   15.3170 N.3   140  LYS140     -0.1314
    191  N          4.4960    2.9710   11.7690 N.am  141  ASN141     -0.1974
    192  CA         5.7180    3.6220   11.2620 C.3   141  ASN141      0.1688
    193  C          6.4940    2.7910   10.2500 C.2   141  ASN141      0.2292
    194  O          7.6280    3.1180    9.9050 O.2   141  ASN141     -0.2864
    195  CB         6.6460    3.9640   12.4310 C.3   141  ASN141      0.1181
    196  CG         6.2170    5.2080   13.1580 C.2   141  ASN141      0.2629
    197  OD1        5.4220    5.9980   12.6420 O.2   141  ASN141     -0.2716
    198  ND2        6.7440    5.4020   14.3630 N.am  141  ASN141     -0.0877
    199  N          6.0690    1.1950    6.3850 N.3   143  LEU143     -0.1245
    200  CA         5.2590    1.3190    5.1810 C.3   143  LEU143      0.1561
    201  C          5.3640    0.0240    4.3830 C.2   143  LEU143      0.2260
    202  O          6.3920   -0.6400    4.4320 O.2   143  LEU143     -0.2867
    203  CB         5.7450    2.5100    4.3430 C.3   143  LEU143      0.0270
    204  CG         5.6670    3.8700    5.0470 C.3   143  LEU143      0.0019
    205  CD1        6.5370    4.8990    4.3480 C.3   143  LEU143      0.0001
    206  CD2        4.2210    4.3570    5.1410 C.3   143  LEU143      0.0001
    207  N          9.9920    3.9760    8.4600 N.3   153  ALA153     -0.1231
    208  CA         9.8930    5.4330    8.3830 C.3   153  ALA153      0.1694
    209  C          9.8110    6.0200    9.7930 C.2   153  ALA153      0.2592
    210  O         10.0410    5.3040   10.7690 O.2   153  ALA153     -0.2718
    211  CB         8.6740    5.8320    7.5590 C.3   153  ALA153      0.0304
    212  N          9.4990    7.3160    9.8800 N.am  154  ASP154     -0.1974
    213  CA         9.3910    8.0600   11.1420 C.3   154  ASP154      0.1709
    214  C         10.7140    8.0500   11.9150 C.2   154  ASP154      0.2293
    215  O         10.7910    7.5610   13.0410 O.2   154  ASP154     -0.2864
    216  CB         8.2430    7.5120   12.0040 C.3   154  ASP154      0.1436
    217  CG         7.5990    8.5750   12.8880 C.2   154  ASP154      0.3671
    218  OD1        7.2180    8.2430   14.0310 O.co2 154  ASP154     -0.2456
    219  OD2        7.4470    9.7340   12.4500 O.co2 154  ASP154     -0.2456
@<TRIPOS>BOND
     1   142   140   ar
     2   141   140   ar
     3   140   139    1
     4   139   138    1
     5   110   109   ar
     6   138   135    1
     7   119   121   ar
     8   119   117   ar
     9   115   114    2
    10   121   122   ar
    11   116   117    1
    12   116   113    1
    13   109   111   ar
    14   109   108    1
    15   112   113    1
    16   112   106   am
    17   117   118   ar
    18     9     7   ar
    19   105   108    1
    20   105   106    1
    21   105   104    1
    22    96    95    1
    23   114   113    1
    24   114   124   am
    25     1     2    1
    26   152   151   ar
    27   152   150   ar
    28   135   134    1
    29   135   136    1
    30   151   149   ar
    31   134   126   am
    32   101   100    2
    33    29    30    1
    34     5     2    1
    35     5     6    1
    36   122   123    1
    37   122   120   ar
    38   106   107    2
    39     7     8   ar
    40     7     6    1
    41   132   130   ar
    42   132   133   ar
    43   130   129   ar
    44   104   100   am
    45   118   120   ar
    46   100    99    1
    47   150   148   ar
    48     2     3    1
    49   124   125    1
    50   125   126    1
    51   125   128    1
    52    95    97    1
    53    95    92    1
    54   149   148   ar
    55   136   137    2
    56   136   143   am
    57    75    74    2
    58   126   127    2
    59   143   144    1
    60   148   147    1
    61    30    31    1
    62    30    33    1
    63   133   131   ar
    64   129   128    1
    65   129   131   ar
    66    74    73    1
    67    99    98    1
    68    99   102    1
    69    32    31    2
    70    98    93   am
    71    93    92    1
    72    93    94    2
    73     3     4    2
    74    92    91    1
    75   144   147    1
    76   144   145    1
    77    72    73    1
    78    73    76    1
    79   102   103    1
    80    91    85   am
    81    17    15    1
    82   145   153   am
    83   145   146    2
    84   153   154    1
    85    76    77    1
    86    79    81   ar
    87    79    77   ar
    88    70    69    1
    89    86    85    2
    90    85    84    1
    91    15    14    1
    92    66    67    2
    93    66    65    1
    94    81    82   ar
    95    77    78   ar
    96   177   178    1
    97   177   176    1
    98    65    68    1
    99    65    64    1
   100   178   179    2
   101    69    68    1
   102    69    71    1
   103    82    80   ar
   104    78    80   ar
   105   179   181    1
   106   179   180    1
   107   154   155    1
   108    84    83    1
   109    84    87    1
   110    34    35    1
   111    10    11    1
   112    14    11    1
   113    14    16    1
   114   156   155    2
   115    24    25    2
   116    24    23    1
   117   175   176    1
   118   175   172    1
   119    11    12    1
   120   203   204    1
   121   203   200    1
   122   205   204    1
   123   201   202    2
   124   201   200    1
   125   174   173    2
   126    27    26    1
   127   155   157   am
   128    55    54    2
   129    87    88    1
   130   173   172    1
   131   204   206    1
   132    37    36    2
   133    35    36    1
   134    35    38    1
   135   200   199    1
   136   172   171    1
   137    23    26    1
   138    23    22    1
   139    54    53    1
   140    58    60   ar
   141    58    57   ar
   142    26    28    1
   143    90    88    1
   144    12    13    2
   145   157   158    1
   146    56    57    1
   147    56    53    1
   148    60    62   ar
   149    88    89    1
   150    38    39    1
   151    57    59   ar
   152   160   159    2
   153    53    52    1
   154   166   165    2
   155   167   168    1
   156   167   164    1
   157    62    63    1
   158    62    61   ar
   159   165   164    1
   160   158   159    1
   161   158   161    1
   162    59    61   ar
   163   170   168   ar
   164   168   169   ar
   165   211   208    1
   166    39    40    1
   167   164   163    1
   168   161   162    1
   169   208   207    1
   170   208   209    1
   171    41    40    1
   172    41    42    1
   173    46    45    2
   174    45    44    1
   175    48    49    1
   176    48    47    1
   177    50    49   ar
   178   209   212   am
   179   209   210    2
   180    49    51   ar
   181   212   213    1
   182   194   193    2
   183   193   192    1
   184    47    44    1
   185   185   184    2
   186    44    43    1
   187   213   214    1
   188   213   216    1
   189   192   191    1
   190   192   195    1
   191   184   191   am
   192   184   183    1
   193    18    19    1
   194   214   215    2
   195   216   217    1
   196   183   182    1
   197   183   186    1
   198   195   196    1
   199   219   217   ar
   200    19    20    1
   201   197   196    2
   202   217   218   ar
   203   186   187    1
   204   196   198   am
   205   187   188    1
   206    20    21    2
   207   188   189    1
   208   189   190    1
