@<TRIPOS>MOLECULE
tmp/2wouA00.pdb
 189 181 0 0 0
SMALL
GASTEIGER

@<TRIPOS>ATOM
      1  N         -3.8690   12.7000    3.9100 N.3    14  ILE14      -0.1245
      2  CA        -3.7140   11.3450    4.4640 C.3    14  ILE14       0.1561
      3  C         -3.9340   11.3210    5.9730 C.2    14  ILE14       0.2260
      4  O         -4.4980   10.3620    6.5190 O.2    14  ILE14      -0.2867
      5  CB        -2.3220   10.7720    4.1860 C.3    14  ILE14       0.0252
      6  CG1       -2.0720   10.6270    2.6810 C.3    14  ILE14       0.0019
      7  CG2       -2.1530    9.4210    4.8920 C.3    14  ILE14       0.0019
      8  CD1       -3.0730    9.7640    1.9750 C.3    14  ILE14       0.0001
      9  N          0.3290   14.5290    6.8240 N.3    22  VAL22      -0.1245
     10  CA         0.7260   13.7820    5.6360 C.3    22  VAL22       0.1561
     11  C         -0.2100   14.0620    4.4810 C.2    22  VAL22       0.2260
     12  O         -1.4140   14.0950    4.6550 O.2    22  VAL22      -0.2867
     13  CB         0.7550   12.2780    5.9040 C.3    22  VAL22       0.0252
     14  CG1        1.2790   11.5490    4.6800 C.3    22  VAL22       0.0019
     15  CG2        1.6330   11.9800    7.1300 C.3    22  VAL22       0.0019
     16  N          4.6660   11.3750   -1.4950 N.3    33  ALA33      -0.1231
     17  CA         4.0970   11.5620   -0.1750 C.3    33  ALA33       0.1694
     18  C          4.8390   12.7180    0.4570 C.2    33  ALA33       0.2592
     19  O          6.0460   12.8540    0.2910 O.2    33  ALA33      -0.2718
     20  CB         4.2360   10.2640    0.6890 C.3    33  ALA33       0.0304
     21  N          4.1180   13.5630    1.1680 N.am   34  VAL34      -0.1966
     22  CA         4.6960   14.7860    1.6890 C.3    34  VAL34       0.1727
     23  C          4.2650   14.9330    3.1300 C.2    34  VAL34       0.2616
     24  O          3.0650   14.8500    3.4400 O.2    34  VAL34      -0.2715
     25  CB         4.1930   16.0270    0.9220 C.3    34  VAL34       0.0290
     26  CG1        4.8170   17.2870    1.4980 C.3    34  VAL34       0.0023
     27  CG2        4.4680   15.9060   -0.5700 C.3    34  VAL34       0.0023
     28  N          5.2350   15.1460    4.0090 N.am   35  LYS35      -0.1977
     29  CA         4.9480   15.4450    5.3980 C.3    35  LYS35       0.1596
     30  C          5.0850   16.9390    5.4960 C.2    35  LYS35       0.2287
     31  O          6.1280   17.4910    5.1210 O.2    35  LYS35      -0.2864
     32  CB         5.9660   14.7880    6.3200 C.3    35  LYS35       0.0298
     33  CG         5.3900   13.9020    7.3890 C.3    35  LYS35       0.0038
     34  CD         6.5140   13.1760    8.0990 C.3    35  LYS35       0.0206
     35  CE         6.0670   11.9270    8.8150 C.3    35  LYS35       0.1093
     36  NZ         7.1950   11.4060    9.6880 N.3    35  LYS35      -0.1314
     37  N         14.1990   14.9590   11.5040 N.3    48  GLU48      -0.1245
     38  CA        13.7980   13.8900   10.5660 C.3    48  GLU48       0.1567
     39  C         14.4710   14.0050    9.1860 C.2    48  GLU48       0.2260
     40  O         14.8660   12.9880    8.5910 O.2    48  GLU48      -0.2867
     41  CB        12.2730   13.8150   10.4210 C.3    48  GLU48       0.0388
     42  CG        11.8050   12.6260    9.6160 C.3    48  GLU48       0.1160
     43  CD        10.3170   12.3300    9.7500 C.2    48  GLU48       0.3649
     44  OE1        9.8740   11.3930    9.0600 O.co2  48  GLU48      -0.2457
     45  OE2        9.5910   12.9950   10.5320 O.co2  48  GLU48      -0.2457
     46  N         17.1880   11.1500    7.5960 N.3    52  TYR52      -0.1241
     47  CA        16.9570   10.6330    6.2530 C.3    52  TYR52       0.1605
     48  C         18.0680   10.9920    5.2880 C.2    52  TYR52       0.2264
     49  O         18.1350   10.4170    4.1930 O.2    52  TYR52      -0.2867
     50  CB        15.6190   11.1230    5.6840 C.3    52  TYR52       0.0534
     51  CG        14.4310   10.2450    6.0140 C.ar   52  TYR52      -0.0201
     52  CD1       14.3050    8.9710    5.4610 C.ar   52  TYR52      -0.0009
     53  CD2       13.4200   10.6920    6.8540 C.ar   52  TYR52      -0.0009
     54  CE1       13.2240    8.1750    5.7540 C.ar   52  TYR52       0.0417
     55  CE2       12.3350    9.9000    7.1480 C.ar   52  TYR52       0.0417
     56  CZ        12.2370    8.6470    6.5970 C.ar   52  TYR52       0.1957
     57  OH        11.1470    7.8600    6.8860 O.3    52  TYR52      -0.2866
     58  N         12.0980    3.7110    3.9270 N.3    63  LEU63      -0.1245
     59  CA        11.3360    4.5890    3.0360 C.3    63  LEU63       0.1561
     60  C         12.2820    5.4580    2.2190 C.2    63  LEU63       0.2260
     61  O         13.2170    6.0490    2.7650 O.2    63  LEU63      -0.2867
     62  CB        10.3480    5.4670    3.7940 C.3    63  LEU63       0.0270
     63  CG         9.5950    6.5510    2.9870 C.3    63  LEU63       0.0019
     64  CD1        8.5530    5.9550    2.0530 C.3    63  LEU63       0.0001
     65  CD2        8.9450    7.5570    3.9410 C.3    63  LEU63       0.0001
     66  N         13.6230    8.4310    0.5370 N.3    65  PHE65      -0.1241
     67  CA        13.4990    9.8360    0.8590 C.3    65  PHE65       0.1605
     68  C         13.8810   10.6610   -0.3630 C.2    65  PHE65       0.2264
     69  O         14.8420   10.3260   -1.0520 O.2    65  PHE65      -0.2867
     70  CB        14.4130   10.1320    2.0400 C.3    65  PHE65       0.0534
     71  CG        14.3830   11.5420    2.4880 C.ar   65  PHE65      -0.0203
     72  CD1       13.3740   11.9900    3.3140 C.ar   65  PHE65      -0.0042
     73  CD2       15.3740   12.4170    2.1120 C.ar   65  PHE65      -0.0042
     74  CE1       13.3350   13.2920    3.7440 C.ar   65  PHE65      -0.0003
     75  CE2       15.3360   13.7200    2.5430 C.ar   65  PHE65      -0.0003
     76  CZ        14.3190   14.1570    3.3590 C.ar   65  PHE65      -0.0000
     77  N          8.7640   17.4840    4.1280 N.3    81  LEU81      -0.1245
     78  CA         9.5490   16.2910    3.8140 C.3    81  LEU81       0.1561
     79  C          8.8280   15.5140    2.7010 C.2    81  LEU81       0.2260
     80  O          7.6630   15.1380    2.8490 O.2    81  LEU81      -0.2867
     81  CB         9.7290   15.4080    5.0440 C.3    81  LEU81       0.0270
     82  CG        10.3340   16.0530    6.2970 C.3    81  LEU81       0.0019
     83  CD1       10.3450   15.0660    7.4530 C.3    81  LEU81       0.0001
     84  CD2       11.7420   16.6020    6.0270 C.3    81  LEU81       0.0001
     85  N          8.7100   12.1920    0.0870 N.3    83  SER83      -0.1202
     86  CA         9.1770   10.8130   -0.0430 C.3    83  SER83       0.2020
     87  C          8.4550   10.0770   -1.1620 C.2    83  SER83       0.2619
     88  O          7.4840   10.5850   -1.7100 O.2    83  SER83      -0.2717
     89  CB         8.9150   10.0620    1.2590 C.3    83  SER83       0.2103
     90  OG         7.5630    9.6100    1.3160 O.3    83  SER83      -0.2182
     91  N          8.9250    8.8680   -1.4820 N.am   84  ASP84      -0.1959
     92  CA         8.1570    7.9070   -2.2860 C.3    84  ASP84       0.1840
     93  C          6.7710    7.7200   -1.6680 C.2    84  ASP84       0.2622
     94  O          6.6190    7.8610   -0.4440 O.2    84  ASP84      -0.2715
     95  CB         8.8250    6.5210   -2.3050 C.3    84  ASP84       0.1450
     96  CG        10.2320    6.5240   -2.9100 C.2    84  ASP84       0.3671
     97  OD1       10.5850    7.4210   -3.7170 O.co2  84  ASP84      -0.2456
     98  OD2       10.9880    5.5900   -2.5690 O.co2  84  ASP84      -0.2456
     99  N          5.7750    7.4040   -2.5050 N.am   85  TYR85      -0.1960
    100  CA         4.4070    7.1500   -2.0260 C.3    85  TYR85       0.1771
    101  C          4.0680    5.6740   -2.1090 C.2    85  TYR85       0.2620
    102  O          4.2850    5.0320   -3.1450 O.2    85  TYR85      -0.2715
    103  CB         3.3800    7.9650   -2.8030 C.3    85  TYR85       0.0574
    104  CG         1.9460    7.6540   -2.4410 C.ar   85  TYR85      -0.0198
    105  CD1        1.4600    7.8860   -1.1500 C.ar   85  TYR85      -0.0009
    106  CD2        1.0620    7.1400   -3.3890 C.ar   85  TYR85      -0.0009
    107  CE1        0.1350    7.5970   -0.8140 C.ar   85  TYR85       0.0417
    108  CE2       -0.2640    6.8620   -3.0650 C.ar   85  TYR85       0.0417
    109  CZ        -0.7140    7.0850   -1.7750 C.ar   85  TYR85       0.1957
    110  OH        -2.0190    6.7950   -1.4470 O.3    85  TYR85      -0.2866
    111  N          3.5430    5.1490   -1.0060 N.am   86  HIS86      -0.1959
    112  CA         3.1340    3.7520   -0.9030 C.3    86  HIS86       0.1787
    113  C          1.6400    3.6380   -0.6400 C.2    86  HIS86       0.2620
    114  O          1.1500    3.9780    0.4450 O.2    86  HIS86      -0.2715
    115  CB         3.9820    3.0410    0.1450 C.3    86  HIS86       0.0785
    116  CG         5.4200    2.9330   -0.2590 C.ar   86  HIS86       0.0821
    117  ND1        5.8130    2.2860   -1.4140 N.ar   86  HIS86      -0.2267
    118  CD2        6.5480    3.4400    0.2940 C.ar   86  HIS86       0.1154
    119  CE1        7.1240    2.3820   -1.5460 C.ar   86  HIS86       0.1986
    120  NE2        7.5970    3.0700   -0.5190 N.ar   86  HIS86      -0.2212
    121  N          0.9360    3.1450   -1.6600 N.am   87  GLU87      -0.1963
    122  CA        -0.5350    3.1510   -1.7270 C.3    87  GLU87       0.1733
    123  C         -1.2320    2.3450   -0.6210 C.2    87  GLU87       0.2616
    124  O         -2.3270    2.7050   -0.1800 O.2    87  GLU87      -0.2715
    125  CB        -0.9830    2.6130   -3.0850 C.3    87  GLU87       0.0429
    126  CG        -2.3860    3.0080   -3.4860 C.3    87  GLU87       0.1163
    127  CD        -2.8580    2.2870   -4.7410 C.2    87  GLU87       0.3649
    128  OE1       -2.0540    1.5380   -5.3590 O.co2  87  GLU87      -0.2457
    129  OE2       -4.0420    2.4630   -5.1000 O.co2  87  GLU87      -0.2457
    130  N         -0.5960    1.2690   -0.1690 N.am   88  HIS88      -0.1959
    131  CA        -1.1810    0.4040    0.8710 C.3    88  HIS88       0.1787
    132  C         -1.1340    1.0170    2.2580 C.2    88  HIS88       0.2621
    133  O         -1.7210    0.4800    3.1720 O.2    88  HIS88      -0.2715
    134  CB        -0.4920   -0.9640    0.9020 C.3    88  HIS88       0.0785
    135  CG        -0.9250   -1.8710   -0.1940 C.ar   88  HIS88       0.0821
    136  ND1       -2.2510   -2.1410   -0.4510 N.ar   88  HIS88      -0.2267
    137  CD2       -0.2120   -2.5790   -1.1010 C.ar   88  HIS88       0.1154
    138  CE1       -2.3380   -2.9710   -1.4750 C.ar   88  HIS88       0.1986
    139  NE2       -1.1140   -3.2500   -1.8910 N.ar   88  HIS88      -0.2212
    140  N         -0.4140    2.1210    2.4290 N.am   89  GLY89      -0.1940
    141  CA        -0.2700    2.7160    3.7480 C.3    89  GLY89       0.2014
    142  C          0.5620    1.8330    4.6680 C.2    89  GLY89       0.2639
    143  O          1.4480    1.0980    4.2150 O.2    89  GLY89      -0.2714
    144  N          0.2690    1.8990    5.9590 N.am   90  SER90      -0.1949
    145  CA         1.1120    1.2620    6.9490 C.3    90  SER90       0.1924
    146  C          0.8450   -0.2390    7.0370 C.2    90  SER90       0.2314
    147  O         -0.1520   -0.7430    6.5270 O.2    90  SER90      -0.2863
    148  CB         0.9140    1.9190    8.3180 C.3    90  SER90       0.2116
    149  OG        -0.3690    1.6240    8.8390 O.3    90  SER90      -0.2180
    150  N         -2.4660   -0.7290    8.5850 N.3    93  ASP93      -0.1239
    151  CA        -3.6330   -0.6270    7.6910 C.3    93  ASP93       0.1674
    152  C         -3.8060   -1.9380    6.9140 C.2    93  ASP93       0.2266
    153  O         -4.9100   -2.4570    6.8030 O.2    93  ASP93      -0.2867
    154  CB        -3.5020    0.5530    6.7080 C.3    93  ASP93       0.1410
    155  CG        -3.2940    1.8990    7.4110 C.2    93  ASP93       0.3668
    156  OD1       -4.0570    2.2420    8.3330 O.co2  93  ASP93      -0.2456
    157  OD2       -2.3520    2.6220    7.0360 O.co2  93  ASP93      -0.2456
    158  N         -6.8390   -4.5940    6.8970 N.3    97  ARG97      -0.1245
    159  CA        -7.5410   -4.8560    5.6350 C.3    97  ARG97       0.1563
    160  C         -7.5100   -6.3240    5.2070 C.2    97  ARG97       0.2260
    161  O         -8.4720   -6.8140    4.6560 O.2    97  ARG97      -0.2867
    162  CB        -6.9190   -4.0540    4.4820 C.3    97  ARG97       0.0307
    163  CG        -7.3040   -2.5880    4.3670 C.3    97  ARG97       0.0489
    164  CD        -6.7860   -2.0190    3.0310 C.3    97  ARG97       0.2205
    165  NE        -6.6230   -0.5590    3.0270 N.pl3  97  ARG97      -0.0865
    166  CZ        -5.4660    0.1010    3.1560 C.cat  97  ARG97       0.5346
    167  NH1       -4.3000   -0.5390    3.3070 N.pl3  97  ARG97       0.1354
    168  NH2       -5.4710    1.4310    3.1290 N.pl3  97  ARG97       0.1354
    169  N          5.6360    0.8880    6.3180 N.3   143  LEU143     -0.1245
    170  CA         4.7560    0.9940    5.1410 C.3   143  LEU143      0.1561
    171  C          4.8530   -0.2810    4.3060 C.2   143  LEU143      0.2260
    172  O          5.8450   -0.9900    4.3920 O.2   143  LEU143     -0.2867
    173  CB         5.1340    2.2050    4.2840 C.3   143  LEU143      0.0270
    174  CG         4.9850    3.5850    4.9390 C.3   143  LEU143      0.0019
    175  CD1        5.9430    4.5770    4.3090 C.3   143  LEU143      0.0001
    176  CD2        3.5550    4.1380    4.8450 C.3   143  LEU143      0.0001
    177  N          9.6400    3.6490    8.1430 N.3   153  ALA153     -0.1231
    178  CA         9.4940    5.0820    7.9610 C.3   153  ALA153      0.1694
    179  C          9.4210    5.7200    9.3350 C.2   153  ALA153      0.2592
    180  O          9.6450    5.0550   10.3240 O.2   153  ALA153     -0.2718
    181  CB         8.2420    5.3900    7.1580 C.3   153  ALA153      0.0304
    182  N          9.0730    6.9990    9.3800 N.am  154  ASP154     -0.1974
    183  CA         8.9590    7.7360   10.6310 C.3   154  ASP154      0.1709
    184  C         10.2230    7.5790   11.5030 C.2   154  ASP154      0.2293
    185  O         10.2010    7.0510   12.6210 O.2   154  ASP154     -0.2864
    186  CB         7.6500    7.3740   11.3480 C.3   154  ASP154      0.1436
    187  CG         6.4380    8.0320   10.6880 C.2   154  ASP154      0.3671
    188  OD1        6.1490    9.2100   11.0020 O.co2 154  ASP154     -0.2456
    189  OD2        5.7890    7.3980    9.8250 O.co2 154  ASP154     -0.2456
@<TRIPOS>BOND
     1   128   127   ar
     2   129   127   ar
     3   127   126    1
     4    97    96   ar
     5   126   125    1
     6   106   108   ar
     7   106   104   ar
     8   102   101    2
     9   125   122    1
    10   108   109   ar
    11    96    98   ar
    12    96    95    1
    13   103   104    1
    14   103   100    1
    15    99   100    1
    16    99    93   am
    17   104   105   ar
    18    95    92    1
    19    92    93    1
    20    92    91    1
    21   101   100    1
    22   101   111   am
    23   139   138   ar
    24   139   137   ar
    25   109   110    1
    26   109   107   ar
    27   122   121    1
    28   122   123    1
    29    88    87    2
    30    93    94    2
    31   121   113   am
    32   119   117   ar
    33   119   120   ar
    34    16    17    1
    35    91    87   am
    36   138   136   ar
    37   117   116   ar
    38    87    86    1
    39   105   107   ar
    40   137   135   ar
    41    69    68    2
    42   111   112    1
    43   112   113    1
    44   112   115    1
    45   113   114    2
    46   123   124    2
    47   123   130   am
    48    27    25    1
    49   120   118   ar
    50   136   135   ar
    51    68    67    1
    52   116   115    1
    53   116   118   ar
    54   135   134    1
    55    17    18    1
    56    17    20    1
    57   130   131    1
    58    86    85    1
    59    86    89    1
    60    19    18    2
    61    18    21   am
    62    66    67    1
    63    67    70    1
    64   131   134    1
    65   131   132    1
    66    25    26    1
    67    25    22    1
    68    21    22    1
    69    89    90    1
    70    22    23    1
    71     8     6    1
    72    70    71    1
    73    64    63    1
    74    73    71   ar
    75    73    75   ar
    76    60    61    2
    77    60    59    1
    78   132   140   am
    79   132   133    2
    80   140   141    1
    81    71    72   ar
    82    75    76   ar
    83     6     5    1
    84    79    80    2
    85    79    78    1
    86    63    62    1
    87    63    65    1
    88   165   164    1
    89   165   166    2
    90   164   163    1
    91    59    62    1
    92    59    58    1
    93   168   166    1
    94    23    24    2
    95    23    28   am
    96   166   167    1
    97    72    74   ar
    98    76    74   ar
    99   141   142    1
   100    78    77    1
   101    78    81    1
   102     1     2    1
   103    28    29    1
   104     5     2    1
   105     5     7    1
   106    49    48    2
   107   143   142    2
   108   173   174    1
   109   173   170    1
   110   171   172    2
   111   171   170    1
   112   175   174    1
   113   163   162    1
   114     2     3    1
   115    11    12    2
   116    11    10    1
   117   162   159    1
   118   161   160    2
   119   142   144   am
   120    14    13    1
   121   176   174    1
   122    81    82    1
   123    31    30    2
   124   170   169    1
   125   160   159    1
   126    48    47    1
   127    29    30    1
   128    29    32    1
   129    52    54   ar
   130    52    51   ar
   131   159   158    1
   132    10    13    1
   133    10     9    1
   134    50    51    1
   135    50    47    1
   136    54    56   ar
   137    13    15    1
   138   144   145    1
   139     3     4    2
   140    51    53   ar
   141    84    82    1
   142    47    46    1
   143    82    83    1
   144    32    33    1
   145   147   146    2
   146    56    57    1
   147    56    55   ar
   148   154   155    1
   149   154   151    1
   150   153   152    2
   151    53    55   ar
   152   152   151    1
   153   145   146    1
   154   145   148    1
   155   157   155   ar
   156   181   178    1
   157    33    34    1
   158   155   156   ar
   159   151   150    1
   160   178   177    1
   161   178   179    1
   162    34    35    1
   163   148   149    1
   164    40    39    2
   165    35    36    1
   166    44    43   ar
   167    39    38    1
   168   179   182   am
   169   179   180    2
   170   182   183    1
   171    42    43    1
   172    42    41    1
   173    43    45   ar
   174   189   187   ar
   175    41    38    1
   176    38    37    1
   177   183   186    1
   178   183   184    1
   179   187   188   ar
   180   187   186    1
   181   184   185    2
