@<TRIPOS>MOLECULE
tmp/2wowB02.pdb
 210 200 0 0 0
SMALL
GASTEIGER

@<TRIPOS>ATOM
      1  N          9.8010    6.7920   93.5260 N.3    56  CYS56      -0.1235
      2  CA        10.0780    6.5790   92.0830 C.3    56  CYS56       0.1677
      3  C         10.7000    7.8200   91.4680 C.2    56  CYS56       0.2270
      4  O         11.8540    7.7890   90.9360 O.2    56  CYS56      -0.2867
      5  CB         8.7840    6.2230   91.3770 C.3    56  CYS56       0.0956
      6  SG         7.8220    5.0060   92.3490 S.3    56  CYS56      -0.0801
      7  N         14.0790    9.4710   93.0680 N.3    59  LYS59      -0.1245
      8  CA        15.0890    8.4430   92.9030 C.3    59  LYS59       0.1561
      9  C         15.5590    8.4100   91.4430 C.2    59  LYS59       0.2260
     10  O         16.7930    8.3640   91.1680 O.2    59  LYS59      -0.2867
     11  CB        14.5390    7.0420   93.3360 C.3    59  LYS59       0.0271
     12  CG        15.4980    5.8500   93.2380 C.3    59  LYS59       0.0035
     13  CD        15.5910    5.2940   91.7970 C.3    59  LYS59       0.0206
     14  CE        14.2150    4.9070   91.2970 C.3    59  LYS59       0.1093
     15  NZ        13.7950    3.6540   91.9880 N.3    59  LYS59      -0.1314
     16  N         11.5980   -0.0700  107.5080 N.3   164  GLN164     -0.1245
     17  CA        11.8320   -0.8960  108.6740 C.3   164  GLN164      0.1566
     18  C         13.1970   -0.5320  109.2310 C.2   164  GLN164      0.2260
     19  O         14.1320   -0.3200  108.4650 O.2   164  GLN164     -0.2867
     20  CB        11.8630   -2.3530  108.2660 C.3   164  GLN164      0.0367
     21  CG        11.9030   -3.3170  109.4780 C.3   164  GLN164      0.0905
     22  CD        11.3420   -4.6590  109.1070 C.2   164  GLN164      0.2608
     23  OE1       11.4480   -5.0920  107.9340 O.2   164  GLN164     -0.2717
     24  NE2       10.6560   -5.3100  110.0720 N.am  164  GLN164     -0.0878
     25  N         16.0130   -1.9580  112.1470 N.3   166  PRO166     -0.2116
     26  CA        16.2190   -3.0380  113.1220 C.3   166  PRO166      0.1372
     27  C         16.4090   -2.5450  114.6110 C.2   166  PRO166      0.2244
     28  O         16.6920   -1.3600  114.8760 O.2   166  PRO166     -0.2868
     29  CB        17.4490   -3.7730  112.5510 C.3   166  PRO166      0.0268
     30  CG        18.2630   -2.6040  112.0040 C.3   166  PRO166      0.0207
     31  CD        17.2210   -1.7120  111.3310 C.3   166  PRO166      0.0892
     32  N         22.8060   -0.2400  104.1940 N.3   193  VAL193     -0.1231
     33  CA        22.6300   -1.5100  104.8360 C.3   193  VAL193      0.1692
     34  C         21.4370   -2.2230  104.1580 C.2   193  VAL193      0.2593
     35  O         20.2910   -1.7350  104.2470 O.2   193  VAL193     -0.2718
     36  CB        22.3540   -1.3520  106.3280 C.3   193  VAL193      0.0266
     37  CG1       22.1440   -2.6870  106.9440 C.3   193  VAL193      0.0020
     38  CG2       23.5330   -0.6010  107.0290 C.3   193  VAL193      0.0020
     39  N         21.7610   -3.3130  103.4460 N.am  194  GLY194     -0.1942
     40  CA        20.7500   -4.2160  102.8600 C.3   194  GLY194      0.2014
     41  C         21.1690   -4.5290  101.4360 C.2   194  GLY194      0.2639
     42  O         22.0020   -3.8080  100.8720 O.2   194  GLY194     -0.2714
     43  N         20.5920   -5.5930  100.8290 N.am  195  GLY195     -0.1939
     44  CA        20.9990   -6.0100   99.4580 C.3   195  GLY195      0.2014
     45  C         19.8260   -6.0040   98.5080 C.2   195  GLY195      0.2639
     46  O         19.7920   -6.7600   97.5370 O.2   195  GLY195     -0.2714
     47  N         18.8150   -5.1950   98.7960 N.am  196  GLY196     -0.1939
     48  CA        17.6900   -5.0910   97.8790 C.3   196  GLY196      0.2014
     49  C         17.7660   -3.7840   97.0730 C.2   196  GLY196      0.2639
     50  O         18.8270   -3.1800   96.9880 O.2   196  GLY196     -0.2714
     51  N         16.6000   -3.3220   96.6090 N.am  197  PHE197     -0.1959
     52  CA        16.4670   -2.2510   95.6180 C.3   197  PHE197      0.1771
     53  C         17.0230   -0.9600   96.1910 C.2   197  PHE197      0.2619
     54  O         17.7810   -0.2960   95.5330 O.2   197  PHE197     -0.2715
     55  CB        14.9780   -1.8980   95.3730 C.3   197  PHE197      0.0574
     56  CG        14.1750   -2.8990   94.6100 C.ar  197  PHE197     -0.0200
     57  CD1       13.7850   -2.6190   93.2770 C.ar  197  PHE197     -0.0042
     58  CD2       13.6490   -4.0320   95.2380 C.ar  197  PHE197     -0.0042
     59  CE1       12.9140   -3.5000   92.5340 C.ar  197  PHE197     -0.0003
     60  CE2       12.7950   -4.9750   94.5070 C.ar  197  PHE197     -0.0003
     61  CZ        12.4340   -4.6980   93.1460 C.ar  197  PHE197     -0.0000
     62  N         16.5450   -0.5640   97.3720 N.am  198  ILE198     -0.1977
     63  CA        16.9370    0.7440   97.9080 C.3   198  ILE198      0.1596
     64  C         18.4380    0.8750   98.2250 C.2   198  ILE198      0.2287
     65  O         19.0710    1.7970   97.7970 O.2   198  ILE198     -0.2864
     66  CB        15.9820    1.2380   99.1070 C.3   198  ILE198      0.0276
     67  CG1       14.5250    1.2900   98.6010 C.3   198  ILE198      0.0022
     68  CG2       16.4180    2.6010   99.6280 C.3   198  ILE198      0.0022
     69  CD1       13.4840    1.8030   99.5990 C.3   198  ILE198      0.0001
     70  N         20.1670    0.9720   94.6880 N.3   201  GLU201     -0.1245
     71  CA        19.9690    2.2610   93.9930 C.3   201  GLU201      0.1567
     72  C         20.7550    3.4260   94.6170 C.2   201  GLU201      0.2260
     73  O         21.4320    4.1540   93.8830 O.2   201  GLU201     -0.2867
     74  CB        18.4700    2.5960   93.8050 C.3   201  GLU201      0.0388
     75  CG        17.8060    1.5130   92.8870 C.3   201  GLU201      0.1160
     76  CD        16.3050    1.7530   92.6670 C.2   201  GLU201      0.3649
     77  OE1       15.7130    2.5440   93.4400 O.co2 201  GLU201     -0.2457
     78  OE2       15.7400    1.1700   91.7230 O.co2 201  GLU201     -0.2457
     79  N         25.5030   -6.5760  103.1340 N.3   220  TYR220     -0.1227
     80  CA        24.3280   -7.4650  102.9700 C.3   220  TYR220      0.1736
     81  C         24.5930   -8.6150  103.8600 C.2   220  TYR220      0.2595
     82  O         25.7360   -9.1040  103.8990 O.2   220  TYR220     -0.2718
     83  CB        24.1820   -8.0210  101.5320 C.3   220  TYR220      0.0548
     84  CG        23.1110   -9.1430  101.3860 C.ar  220  TYR220     -0.0200
     85  CD1       21.8110   -8.9750  101.8610 C.ar  220  TYR220     -0.0009
     86  CD2       23.4160  -10.3370  100.7840 C.ar  220  TYR220     -0.0009
     87  CE1       20.8540  -10.0020  101.7470 C.ar  220  TYR220      0.0417
     88  CE2       22.4550  -11.4050  100.6480 C.ar  220  TYR220      0.0417
     89  CZ        21.2020  -11.2220  101.1410 C.ar  220  TYR220      0.1957
     90  OH        20.2800  -12.2370  101.0170 O.3   220  TYR220     -0.2866
     91  N         23.5490   -9.0910  104.5400 N.am  221  ARG221     -0.1966
     92  CA        23.7800  -10.0830  105.5880 C.3   221  ARG221      0.1729
     93  C         24.0820  -11.5160  105.0790 C.2   221  ARG221      0.2616
     94  O         24.5150  -12.3840  105.8780 O.2   221  ARG221     -0.2715
     95  CB        22.5840  -10.1300  106.5280 C.3   221  ARG221      0.0348
     96  CG        21.3600  -10.8070  105.8770 C.3   221  ARG221      0.0492
     97  CD        20.1920  -10.7660  106.8540 C.3   221  ARG221      0.2205
     98  NE        18.8890  -10.9570  106.2080 N.pl3 221  ARG221     -0.0865
     99  CZ        17.7560  -11.1560  106.8690 C.cat 221  ARG221      0.5346
    100  NH1       17.7340  -11.2450  108.2100 N.pl3 221  ARG221      0.1354
    101  NH2       16.6430  -11.2840  106.1770 N.pl3 221  ARG221      0.1354
    102  N         23.8020  -11.7980  103.8020 N.am  222  ASN222     -0.1972
    103  CA        24.0690  -13.1530  103.2860 C.3   222  ASN222      0.1688
    104  C         25.1370  -13.0700  102.2070 C.2   222  ASN222      0.2292
    105  O         25.8650  -12.0870  102.1490 O.2   222  ASN222     -0.2864
    106  CB        22.7860  -13.9120  102.8000 C.3   222  ASN222      0.1181
    107  CG        21.7570  -14.1100  103.9130 C.2   222  ASN222      0.2629
    108  OD1       20.5550  -13.7580  103.7770 O.2   222  ASN222     -0.2716
    109  ND2       22.2140  -14.6380  105.0220 N.am  222  ASN222     -0.0877
    110  N         20.5090   -9.0270   96.3820 N.3   226  LEU226     -0.1231
    111  CA        19.4020   -9.0920   95.4300 C.3   226  LEU226      0.1693
    112  C         18.7460  -10.4640   95.2850 C.2   226  LEU226      0.2591
    113  O         18.3810  -10.8770   94.1620 O.2   226  LEU226     -0.2718
    114  CB        19.7810   -8.5410   94.0700 C.3   226  LEU226      0.0284
    115  CG        19.9210   -6.9980   94.1550 C.3   226  LEU226      0.0019
    116  CD1       20.7890   -6.4210   93.0020 C.3   226  LEU226      0.0001
    117  CD2       18.5340   -6.2280   94.3000 C.3   226  LEU226      0.0001
    118  N         18.5340  -11.1260   96.4270 N.am  227  ARG227     -0.1980
    119  CA        17.7420  -12.3730   96.4750 C.3   227  ARG227      0.1597
    120  C         16.4160  -12.1030   95.7440 C.2   227  ARG227      0.2287
    121  O         15.7430  -11.0340   95.9410 O.2   227  ARG227     -0.2864
    122  CB        17.4850  -12.7850   97.9200 C.3   227  ARG227      0.0334
    123  CG        16.8190  -14.1870   98.0970 C.3   227  ARG227      0.0492
    124  CD        16.8050  -14.5920   99.5840 C.3   227  ARG227      0.2205
    125  NE        16.0960  -13.6420  100.4390 N.pl3 227  ARG227     -0.0865
    126  CZ        14.8630  -13.8370  100.9000 C.cat 227  ARG227      0.5346
    127  NH1       14.1990  -14.9340  100.5490 N.pl3 227  ARG227      0.1354
    128  NH2       14.2930  -12.9470  101.7260 N.pl3 227  ARG227      0.1354
    129  N         26.4700   -7.7280  108.9030 N.3   253  ASN253     -0.1240
    130  CA        25.2760   -7.0210  109.3380 C.3   253  ASN253      0.1653
    131  C         25.6420   -6.1870  110.5740 C.2   253  ASN253      0.2266
    132  O         26.2310   -6.7330  111.5360 O.2   253  ASN253     -0.2867
    133  CB        24.2030   -8.0540  109.7000 C.3   253  ASN253      0.1155
    134  CG        22.8110   -7.4560  109.8240 C.2   253  ASN253      0.2627
    135  OD1       22.4490   -6.5440  109.0700 O.2   253  ASN253     -0.2716
    136  ND2       22.0000   -7.9940  110.7790 N.am  253  ASN253     -0.0877
    137  N         18.4170    0.1220  104.7320 N.3   283  ALA283     -0.1231
    138  CA        17.4590   -0.1340  103.6770 C.3   283  ALA283      0.1694
    139  C         17.1520   -1.6090  103.7260 C.2   283  ALA283      0.2592
    140  O         17.4830   -2.3810  102.7840 O.2   283  ALA283     -0.2718
    141  CB        18.0880    0.2400  102.2860 C.3   283  ALA283      0.0304
    142  N         16.5400   -2.0270  104.8130 N.am  284  ILE284     -0.1966
    143  CA        16.2840   -3.4460  105.0590 C.3   284  ILE284      0.1727
    144  C         14.7970   -3.9090  104.8760 C.2   284  ILE284      0.2617
    145  O         14.3760   -4.9250  105.4540 O.2   284  ILE284     -0.2715
    146  CB        16.8010   -3.8710  106.4830 C.3   284  ILE284      0.0290
    147  CG1       15.9520   -3.2150  107.6060 C.3   284  ILE284      0.0022
    148  CG2       18.3250   -3.5640  106.6060 C.3   284  ILE284      0.0023
    149  CD1       15.8580   -4.0120  108.9410 C.3   284  ILE284      0.0001
    150  N         14.0060   -3.1540  104.1210 N.am  285  GLY285     -0.1940
    151  CA        12.6290   -3.4850  103.9240 C.3   285  GLY285      0.2014
    152  C         11.7110   -2.3060  104.2400 C.2   285  GLY285      0.2638
    153  O         12.0990   -1.3030  104.8390 O.2   285  GLY285     -0.2714
    154  N         10.4860   -2.4170  103.7710 N.am  286  ARG286     -0.1977
    155  CA         9.4710   -1.4440  104.0580 C.3   286  ARG286      0.1597
    156  C          8.2720   -2.2160  104.5730 C.2   286  ARG286      0.2287
    157  O          7.8870   -3.2490  104.0160 O.2   286  ARG286     -0.2864
    158  CB         9.1460   -0.6520  102.8010 C.3   286  ARG286      0.0334
    159  CG        10.1560    0.4250  102.5090 C.3   286  ARG286      0.0492
    160  CD         9.8140    1.1380  101.2270 C.3   286  ARG286      0.2205
    161  NE         8.5970    1.9780  101.3210 N.pl3 286  ARG286     -0.0865
    162  CZ         8.4830    3.1540  101.9140 C.cat 286  ARG286      0.5346
    163  NH1        9.5100    3.7460  102.5270 N.pl3 286  ARG286      0.1354
    164  NH2        7.3120    3.7570  101.8910 N.pl3 286  ARG286      0.1354
    165  N          0.9300   -0.7000   99.0450 N.3   326  ASP326     -0.1239
    166  CA         1.9180   -1.3510   99.9120 C.3   326  ASP326      0.1674
    167  C          1.3080   -1.8620  101.2080 C.2   326  ASP326      0.2266
    168  O          1.7880   -2.8810  101.7560 O.2   326  ASP326     -0.2867
    169  CB         3.1140   -0.4560  100.2280 C.3   326  ASP326      0.1410
    170  CG         3.9450   -0.0580   98.9870 C.2   326  ASP326      0.3668
    171  OD1        3.7290   -0.5220   97.8630 O.co2 326  ASP326     -0.2456
    172  OD2        4.8300    0.7940   99.1370 O.co2 326  ASP326     -0.2456
    173  N          5.1820   -4.4220   96.1780 N.3   332  MET332     -0.1230
    174  CA         5.3280   -2.9830   96.4350 C.3   332  MET332      0.1702
    175  C          5.9340   -2.1500   95.2700 C.2   332  MET332      0.2592
    176  O          7.1590   -1.8340   95.2220 O.2   332  MET332     -0.2718
    177  CB         6.0350   -2.6980   97.7720 C.3   332  MET332      0.0401
    178  CG         5.5200   -3.5010   98.9480 C.3   332  MET332      0.0596
    179  SD         6.1390   -2.7390  100.4540 S.3   332  MET332     -0.1393
    180  CE         5.4660   -3.7410  101.7690 C.3   332  MET332      0.0692
    181  N          5.0600   -1.7870   94.3370 N.am  333  LEU333     -0.1980
    182  CA         5.4510   -1.0950   93.1380 C.3   333  LEU333      0.1596
    183  C          4.3030   -0.1530   92.8630 C.2   333  LEU333      0.2287
    184  O          3.1090   -0.5270   93.0280 O.2   333  LEU333     -0.2864
    185  CB         5.6010   -2.0720   91.9750 C.3   333  LEU333      0.0297
    186  CG         6.6700   -3.1810   91.9610 C.3   333  LEU333      0.0022
    187  CD1        6.4890   -4.2750   90.8890 C.3   333  LEU333      0.0001
    188  CD2        8.1380   -2.6030   91.8900 C.3   333  LEU333      0.0001
    189  N          9.2450   -5.1640   86.0630 N.3   363  SER363     -0.1202
    190  CA         9.7950   -4.1640   86.9970 C.3   363  SER363      0.2020
    191  C         11.2950   -3.9480   86.7360 C.2   363  SER363      0.2618
    192  O         11.8700   -4.6320   85.8810 O.2   363  SER363     -0.2717
    193  CB         9.4930   -4.5660   88.4520 C.3   363  SER363      0.2103
    194  OG        10.4290   -5.5110   88.8960 O.3   363  SER363     -0.2182
    195  N         11.8980   -2.9610   87.4100 N.am  364  ALA364     -0.1979
    196  CA        13.2590   -2.5030   87.1130 C.3   364  ALA364      0.1597
    197  C         13.9520   -2.2480   88.4500 C.2   364  ALA364      0.2287
    198  O         13.2810   -1.8410   89.3950 O.2   364  ALA364     -0.2864
    199  CB        13.2860   -1.2360   86.2730 C.3   364  ALA364      0.0319
    200  N         16.7630    0.5080   89.2670 N.3   366  PHE366     -0.1241
    201  CA        17.5880    1.5930   88.6990 C.3   366  PHE366      0.1605
    202  C         18.9720    1.6720   89.3690 C.2   366  PHE366      0.2264
    203  O         19.4750    2.7430   89.8070 O.2   366  PHE366     -0.2867
    204  CB        16.8220    2.9230   88.6730 C.3   366  PHE366      0.0534
    205  CG        15.5280    2.8350   87.8620 C.ar  366  PHE366     -0.0203
    206  CD1       15.5280    3.1150   86.4850 C.ar  366  PHE366     -0.0042
    207  CD2       14.3570    2.3910   88.4440 C.ar  366  PHE366     -0.0042
    208  CE1       14.3770    3.0100   85.7190 C.ar  366  PHE366     -0.0003
    209  CE2       13.1560    2.2470   87.6750 C.ar  366  PHE366     -0.0003
    210  CZ        13.1830    2.5680   86.2890 C.ar  366  PHE366     -0.0000
@<TRIPOS>BOND
     1   208   210   ar
     2   208   206   ar
     3   192   191    2
     4   189   190    1
     5   199   196    1
     6   210   209   ar
     7   206   205   ar
     8   191   190    1
     9   191   195   am
    10   190   193    1
    11   196   195    1
    12   196   197    1
    13   209   207   ar
    14   205   207   ar
    15   205   204    1
    16   197   198    2
    17   193   194    1
    18   204   201    1
    19   201   200    1
    20   201   202    1
    21   202   203    2
    22   187   186    1
    23     4     3    2
    24    10     9    2
    25    14    13    1
    26    14    15    1
    27     5     2    1
    28     5     6    1
    29     9     8    1
    30     3     2    1
    31    78    76   ar
    32    13    12    1
    33   188   186    1
    34   186   185    1
    35   185   182    1
    36     2     1    1
    37    59    61   ar
    38    59    57   ar
    39    76    75    1
    40    76    77   ar
    41   183   184    2
    42   183   182    1
    43    75    74    1
    44     8     7    1
    45     8    11    1
    46   116   115    1
    47   182   181    1
    48    61    60   ar
    49    12    11    1
    50    57    56   ar
    51    74    71    1
    52    73    72    2
    53    71    72    1
    54    71    70    1
    55   114   115    1
    56   114   111    1
    57   115   117    1
    58   113   112    2
    59   181   175   am
    60    60    58   ar
    61    56    58   ar
    62    56    55    1
    63   176   175    2
    64   175   174    1
    65   112   111    1
    66   112   118   am
    67    55    52    1
    68   111   110    1
    69    54    53    2
    70    52    53    1
    71    52    51    1
    72   120   121    2
    73   120   119    1
    74   173   174    1
    75    53    62   am
    76   118   119    1
    77   174   177    1
    78   119   122    1
    79    51    49   am
    80    50    49    2
    81    49    48    1
    82    62    63    1
    83    46    45    2
    84   177   178    1
    85    65    64    2
    86   171   170   ar
    87    48    47    1
    88    63    64    1
    89    63    66    1
    90   122   123    1
    91   123   124    1
    92    45    47   am
    93    45    44    1
    94    67    66    1
    95    67    69    1
    96   178   179    1
    97   170   172   ar
    98   170   169    1
    99   165   166    1
   100    66    68    1
   101    44    43    1
   102   124   125    1
   103   166   169    1
   104   166   167    1
   105   125   126    2
   106   179   180    1
   107   127   126    1
   108    88    86   ar
   109    88    89   ar
   110    86    84   ar
   111    43    41   am
   112    42    41    2
   113   126   128    1
   114    90    89    1
   115    89    87   ar
   116   167   168    2
   117   160   161    1
   118   160   159    1
   119   161   162    2
   120    84    83    1
   121    84    85   ar
   122    41    40    1
   123    83    80    1
   124    87    85   ar
   125   164   162    1
   126   162   163    1
   127   105   104    2
   128   104   103    1
   129   141   138    1
   130   159   158    1
   131   140   139    2
   132   106   103    1
   133   106   107    1
   134   158   155    1
   135    40    39    1
   136    80    79    1
   137    80    81    1
   138   103   102    1
   139    39    34   am
   140   138   139    1
   141   138   137    1
   142   139   142   am
   143   154   155    1
   144   154   152   am
   145   108   107    2
   146   102    93   am
   147    81    82    2
   148    81    91   am
   149   107   109   am
   150   151   150    1
   151   151   152    1
   152   157   156    2
   153   155   156    1
   154   150   144   am
   155    34    35    2
   156    34    33    1
   157    32    33    1
   158   152   153    2
   159    91    92    1
   160   142   143    1
   161    33    36    1
   162   144   143    1
   163   144   145    2
   164   143   146    1
   165    93    92    1
   166    93    94    2
   167    92    95    1
   168    96    95    1
   169    96    97    1
   170   101    99    1
   171    98    97    1
   172    98    99    2
   173    36    37    1
   174    36    38    1
   175   146   148    1
   176   146   147    1
   177    99   100    1
   178    16    17    1
   179   147   149    1
   180    23    22    2
   181    20    17    1
   182    20    21    1
   183    19    18    2
   184    17    18    1
   185   129   130    1
   186   135   134    2
   187    22    21    1
   188    22    24   am
   189   130   133    1
   190   130   131    1
   191   133   134    1
   192   134   136   am
   193   131   132    2
   194    31    30    1
   195    31    25    1
   196    30    29    1
   197    25    26    1
   198    29    26    1
   199    26    27    1
   200    27    28    2
