@<TRIPOS>MOLECULE
tmp/2wowB03.pdb
 123 116 0 0 0
SMALL
GASTEIGER

@<TRIPOS>ATOM
      1  N         -1.6610    8.5790   97.7970 N.3    12  GLY12      -0.1210
      2  CA        -0.4690    8.1050   97.0910 C.3    12  GLY12       0.1956
      3  C         -0.8900    7.4940   95.7790 C.2    12  GLY12       0.2612
      4  O         -2.0380    7.6440   95.3590 O.2    12  GLY12      -0.2717
      5  N          0.0130    6.7730   95.1510 N.am   13  SER13      -0.1952
      6  CA        -0.2950    6.0100   93.9530 C.3    13  SER13       0.1924
      7  C         -1.6420    5.3320   93.9260 C.2    13  SER13       0.2314
      8  O         -2.3680    5.5330   92.9920 O.2    13  SER13      -0.2863
      9  CB         0.7720    4.9230   93.7040 C.3    13  SER13       0.2116
     10  OG         1.9950    5.5560   93.3640 O.3    13  SER13      -0.2180
     11  N         -4.9000    7.8310   94.9970 N.3    16  LEU16      -0.1231
     12  CA        -5.2040    8.7070   93.8750 C.3    16  LEU16       0.1693
     13  C         -5.9050    8.0420   92.6940 C.2    16  LEU16       0.2591
     14  O         -6.8730    8.5770   92.1820 O.2    16  LEU16      -0.2718
     15  CB        -3.9480    9.3700   93.3840 C.3    16  LEU16       0.0284
     16  CG        -3.6190   10.4560   94.3800 C.3    16  LEU16       0.0019
     17  CD1       -2.2150   10.9220   94.1850 C.3    16  LEU16       0.0001
     18  CD2       -4.5750   11.5440   94.1790 C.3    16  LEU16       0.0001
     19  N         -5.4130    6.8850   92.2480 N.am   17  GLU17      -0.1979
     20  CA        -6.0210    6.1990   91.1120 C.3    17  GLU17       0.1602
     21  C         -7.4720    5.8260   91.3930 C.2    17  GLU17       0.2287
     22  O         -8.3340    6.0330   90.5440 O.2    17  GLU17      -0.2864
     23  CB        -5.2630    4.9450   90.7390 C.3    17  GLU17       0.0415
     24  CG        -5.7230    4.3310   89.4140 C.3    17  GLU17       0.1163
     25  CD        -5.3360    5.1940   88.1770 C.2    17  GLU17       0.3649
     26  OE1       -4.6530    6.2150   88.3420 O.co2  17  GLU17      -0.2457
     27  OE2       -5.6800    4.8250   87.0310 O.co2  17  GLU17      -0.2457
     28  N         -9.6720    9.2850   91.7920 N.3    20  TRP20      -0.1227
     29  CA        -9.9940    9.9210   90.5180 C.3    20  TRP20       0.1737
     30  C        -10.8290    9.0190   89.6310 C.2    20  TRP20       0.2595
     31  O        -11.7230    9.4920   88.9840 O.2    20  TRP20      -0.2718
     32  CB        -8.7420   10.4210   89.7990 C.3    20  TRP20       0.0564
     33  CG        -8.8260   10.6000   88.2980 C.ar   20  TRP20       0.0003
     34  CD1       -8.8440    9.5990   87.3240 C.ar   20  TRP20       0.0946
     35  CD2       -8.7980   11.8420   87.5880 C.ar   20  TRP20       0.0152
     36  NE1       -8.8430   10.1740   86.0540 N.ar   20  TRP20      -0.2442
     37  CE2       -8.8140   11.5400   86.1940 C.ar   20  TRP20       0.0810
     38  CE3       -8.7470   13.1820   87.9910 C.ar   20  TRP20       0.0012
     39  CZ2       -8.7950   12.5320   85.2170 C.ar   20  TRP20       0.0191
     40  CZ3       -8.7360   14.1800   87.0100 C.ar   20  TRP20       0.0001
     41  CH2       -8.7590   13.8490   85.6360 C.ar   20  TRP20       0.0015
     42  N        -10.5780    7.7280   89.5890 N.am   21  ASN21      -0.1974
     43  CA       -11.4810    6.8980   88.8240 C.3    21  ASN21       0.1688
     44  C        -12.9410    6.9540   89.3290 C.2    21  ASN21       0.2292
     45  O        -13.8790    6.9480   88.5210 O.2    21  ASN21      -0.2864
     46  CB       -10.9730    5.4380   88.6880 C.3    21  ASN21       0.1181
     47  CG        -9.7790    5.3120   87.7030 C.2    21  ASN21       0.2629
     48  OD1       -9.1350    6.2970   87.3610 O.2    21  ASN21      -0.2716
     49  ND2       -9.4850    4.0930   87.2860 N.am   21  ASN21      -0.0877
     50  N          0.4040   12.7800   96.5440 N.3    48  GLY48      -0.1225
     51  CA         1.0800   12.0960   95.4350 C.3    48  GLY48       0.1811
     52  C          1.9250   10.9170   95.9070 C.2    48  GLY48       0.2280
     53  O          2.4900   10.1490   95.0840 O.2    48  GLY48      -0.2866
     54  N          5.6860    7.6390   95.7080 N.3    51  CYS51      -0.1221
     55  CA         6.1390    7.7640   94.3060 C.3    51  CYS51       0.1808
     56  C          6.6640    9.1470   93.9760 C.2    51  CYS51       0.2601
     57  O          7.8260    9.2760   93.5700 O.2    51  CYS51      -0.2717
     58  CB         5.0250    7.3730   93.3440 C.3    51  CYS51       0.0970
     59  SG         5.4150    7.5500   91.5980 S.3    51  CYS51      -0.0800
     60  N          5.8320   10.1800   94.1850 N.am   52  VAL52      -0.1979
     61  CA         6.1840   11.5660   93.8870 C.3    52  VAL52       0.1595
     62  C          7.2060   12.1640   94.8350 C.2    52  VAL52       0.2287
     63  O          8.1280   12.8880   94.4260 O.2    52  VAL52      -0.2864
     64  CB         4.8920   12.4180   94.0080 C.3    52  VAL52       0.0276
     65  CG1        5.1970   13.9160   93.9900 C.3    52  VAL52       0.0022
     66  CG2        3.8770   11.9870   92.9010 C.3    52  VAL52       0.0022
     67  N          9.9770    8.9380   91.6070 N.3    57  VAL57      -0.1245
     68  CA        10.3530   10.1640   90.9150 C.3    57  VAL57       0.1561
     69  C         11.6930   10.7570   91.3280 C.2    57  VAL57       0.2260
     70  O         12.5710   10.9240   90.4710 O.2    57  VAL57      -0.2867
     71  CB         9.2250   11.2470   90.9430 C.3    57  VAL57       0.0252
     72  CG1        9.7850   12.6120   90.4200 C.3    57  VAL57       0.0019
     73  CG2        8.0540   10.7490   90.1160 C.3    57  VAL57       0.0019
     74  N          5.0900   18.8600   91.0550 N.3   105  ILE105     -0.1245
     75  CA         4.1770   17.7390   90.9270 C.3   105  ILE105      0.1561
     76  C          3.1770   17.8270   92.0600 C.2   105  ILE105      0.2260
     77  O          2.0040   17.6400   91.8330 O.2   105  ILE105     -0.2867
     78  CB         4.9000   16.3670   90.8550 C.3   105  ILE105      0.0252
     79  CG1        5.7020   16.2660   89.5470 C.3   105  ILE105      0.0019
     80  CG2        3.8960   15.2540   90.9090 C.3   105  ILE105      0.0019
     81  CD1        6.7860   15.2230   89.5730 C.3   105  ILE105      0.0001
     82  N         -0.8230   18.2440   91.5150 N.3   109  TYR109     -0.1241
     83  CA        -1.8510   17.4170   92.1710 C.3   109  TYR109      0.1605
     84  C         -2.9430   18.2130   92.9480 C.2   109  TYR109      0.2264
     85  O         -4.0610   17.7440   93.1560 O.2   109  TYR109     -0.2867
     86  CB        -1.2180   16.3890   93.0840 C.3   109  TYR109      0.0534
     87  CG        -0.8870   15.1150   92.3770 C.ar  109  TYR109     -0.0201
     88  CD1       -1.8890   14.1650   92.1500 C.ar  109  TYR109     -0.0009
     89  CD2        0.4140   14.8430   91.9620 C.ar  109  TYR109     -0.0009
     90  CE1       -1.6290   12.9720   91.4560 C.ar  109  TYR109      0.0417
     91  CE2        0.7080   13.6150   91.2870 C.ar  109  TYR109      0.0417
     92  CZ        -0.3130   12.6940   91.0500 C.ar  109  TYR109      0.1957
     93  OH        -0.0840   11.4970   90.4240 O.3   109  TYR109     -0.2866
     94  N         -5.2560   19.3430   90.5810 N.3   112  MET112     -0.1245
     95  CA        -6.1760   18.3160   90.1360 C.3   112  MET112      0.1570
     96  C         -7.4160   18.2990   91.0020 C.2   112  MET112      0.2261
     97  O         -8.5240   18.1270   90.4830 O.2   112  MET112     -0.2867
     98  CB        -5.5180   16.9510   90.0820 C.3   112  MET112      0.0387
     99  CG        -6.4700   15.8240   89.7870 C.3   112  MET112      0.0595
    100  SD        -5.7060   14.2610   90.2210 S.3   112  MET112     -0.1393
    101  CE        -6.1100   14.1670   91.9590 C.3   112  MET112      0.0692
    102  N          4.6490    1.0730   92.5100 N.3   334  THR334     -0.1204
    103  CA         3.6760    2.0580   92.1320 C.3   334  THR334      0.1979
    104  C          2.6370    1.5500   91.0900 C.2   334  THR334      0.2459
    105  O          1.4230    1.7190   91.3050 O.2   334  THR334     -0.2732
    106  CB         4.3430    3.4110   91.7430 C.3   334  THR334      0.1783
    107  OG1        4.6100    4.1580   92.9430 O.3   334  THR334     -0.2211
    108  CG2        3.4150    4.2600   90.8660 C.3   334  THR334      0.0376
    109  N          3.0880    0.9630   89.9660 N.am  335  PRO335     -0.2728
    110  CA         2.0750    0.5750   88.9590 C.3   335  PRO335      0.1401
    111  C          1.1880   -0.6000   89.4220 C.2   335  PRO335      0.2269
    112  O          0.0790   -0.8380   88.8700 O.2   335  PRO335     -0.2865
    113  CB         2.9110    0.1360   87.7670 C.3   335  PRO335      0.0296
    114  CG         4.2670    0.8370   87.9400 C.3   335  PRO335      0.0237
    115  CD         4.4550    0.9860   89.4170 C.3   335  PRO335      0.0939
    116  N         -1.4840    1.4000   91.4670 N.3   338  ILE338     -0.1245
    117  CA        -2.3880    2.0340   90.4720 C.3   338  ILE338      0.1561
    118  C         -3.4220    1.0370   89.9240 C.2   338  ILE338      0.2260
    119  O         -4.5960    1.3020   90.0060 O.2   338  ILE338     -0.2867
    120  CB        -1.5820    2.7610   89.3410 C.3   338  ILE338      0.0252
    121  CG1       -0.8140    3.9530   89.9400 C.3   338  ILE338      0.0019
    122  CG2       -2.4470    3.1960   88.1110 C.3   338  ILE338      0.0019
    123  CD1        0.2200    4.5410   88.9340 C.3   338  ILE338      0.0001
@<TRIPOS>BOND
     1    39    41   ar
     2    39    37   ar
     3    41    40   ar
     4    36    37   ar
     5    36    34   ar
     6    37    35   ar
     7    40    38   ar
     8    27    25   ar
     9    49    47   am
    10    34    33   ar
    11    48    47    2
    12    35    38   ar
    13    35    33   ar
    14    47    46    1
    15   113   114    1
    16   113   110    1
    17   114   115    1
    18   122   120    1
    19    25    26   ar
    20    25    24    1
    21    33    32    1
    22    45    44    2
    23    46    43    1
    24    43    44    1
    25    43    42    1
    26   112   111    2
    27   123   121    1
    28   110   111    1
    29   110   109    1
    30    31    30    2
    31   120   121    1
    32   120   117    1
    33    24    23    1
    34   115   109    1
    35    79    81    1
    36    79    78    1
    37    42    30   am
    38    30    29    1
    39    99    98    1
    40    99   100    1
    41    32    29    1
    42   118   119    2
    43   118   117    1
    44   109   104   am
    45    98    95    1
    46    73    71    1
    47    95    94    1
    48    95    96    1
    49   100   101    1
    50    72    71    1
    51    93    92    1
    52    70    69    2
    53   117   116    1
    54    97    96    2
    55    29    28    1
    56    22    21    2
    57    23    20    1
    58    78    80    1
    59    78    75    1
    60   108   106    1
    61    68    71    1
    62    68    69    1
    63    68    67    1
    64    75    74    1
    65    75    76    1
    66    92    91   ar
    67    92    90   ar
    68   104   105    2
    69   104   103    1
    70    20    21    1
    71    20    19    1
    72    91    89   ar
    73    90    88   ar
    74    82    83    1
    75    59    58    1
    76   106   103    1
    77   106   107    1
    78    77    76    2
    79    89    87   ar
    80   103   102    1
    81    88    87   ar
    82    83    84    1
    83    83    86    1
    84    14    13    2
    85    19    13   am
    86    87    86    1
    87    13    12    1
    88    66    64    1
    89    84    85    2
    90     8     7    2
    91    58    55    1
    92    10     9    1
    93    15    12    1
    94    15    16    1
    95    57    56    2
    96     9     6    1
    97    12    11    1
    98    61    64    1
    99    61    60    1
   100    61    62    1
   101     7     6    1
   102     6     5    1
   103    56    60   am
   104    56    55    1
   105    65    64    1
   106    18    16    1
   107    17    16    1
   108    55    54    1
   109    63    62    2
   110    53    52    2
   111     5     3   am
   112     4     3    2
   113    51    52    1
   114    51    50    1
   115     3     2    1
   116     2     1    1
