@<TRIPOS>MOLECULE
tmp/2woxB01.pdb
 65 58 0 0 0
SMALL
GASTEIGER

@<TRIPOS>ATOM
      1  N         64.7210  -47.5830  -10.5890 N.3    11  GLY11      -0.1225
      2  CA        63.9350  -47.5650   -9.3690 C.3    11  GLY11       0.1811
      3  C         64.3320  -48.6280   -8.3550 C.2    11  GLY11       0.2280
      4  O         63.4800  -49.3360   -7.8260 O.2    11  GLY11      -0.2866
      5  N         61.1810  -42.0580  -13.2170 N.3    51  SER51      -0.1217
      6  CA        61.6920  -42.6250  -11.9770 C.3    51  SER51       0.1889
      7  C         62.6790  -41.6650  -11.2930 C.2    51  SER51       0.2288
      8  O         62.6000  -41.4220  -10.0860 O.2    51  SER51      -0.2866
      9  CB        62.3480  -43.9810  -12.2680 C.3    51  SER51       0.2089
     10  OG        63.3020  -44.3120  -11.2890 O.3    51  SER51      -0.2183
     11  N         60.9280  -38.6130   -9.6350 N.3    54  GLU54      -0.1231
     12  CA        60.2780  -38.9220   -8.3640 C.3    54  GLU54       0.1699
     13  C         61.2990  -39.2240   -7.2810 C.2    54  GLU54       0.2592
     14  O         61.1470  -38.7860   -6.1430 O.2    54  GLU54      -0.2718
     15  CB        59.2660  -40.0590   -8.5090 C.3    54  GLU54       0.0402
     16  CG        58.0060  -39.6360   -9.2570 C.3    54  GLU54       0.1161
     17  CD        57.4570  -38.2820   -8.7740 C.2    54  GLU54       0.3649
     18  OE1       57.1980  -38.1390   -7.5590 O.co2  54  GLU54      -0.2457
     19  OE2       57.2770  -37.3610   -9.6060 O.co2  54  GLU54      -0.2457
     20  N         62.3490  -39.9530   -7.6440 N.am   55  GLY55      -0.1957
     21  CA        63.4160  -40.2240   -6.7050 C.3    55  GLY55       0.1869
     22  C         64.0960  -38.9490   -6.2310 C.2    55  GLY55       0.2309
     23  O         64.3610  -38.7810   -5.0410 O.2    55  GLY55      -0.2863
     24  N         62.4610  -37.2340   -3.3190 N.3    58  VAL58      -0.1245
     25  CA        62.7090  -37.9000   -2.0440 C.3    58  VAL58       0.1561
     26  C         64.1130  -37.5620   -1.5440 C.2    58  VAL58       0.2260
     27  O         64.3040  -37.2100   -0.3910 O.2    58  VAL58      -0.2867
     28  CB        62.5140  -39.4400   -2.1380 C.3    58  VAL58       0.0252
     29  CG1       62.7560  -40.0840   -0.7870 C.3    58  VAL58       0.0019
     30  CG2       61.0980  -39.7720   -2.6200 C.3    58  VAL58       0.0019
     31  N         65.4320  -34.8100    2.0030 N.3    62  MET62      -0.1245
     32  CA        66.2000  -35.1810    3.1920 C.3    62  MET62       0.1570
     33  C         67.0660  -33.9990    3.6360 C.2    62  MET62       0.2261
     34  O         67.3050  -33.0690    2.8700 O.2    62  MET62      -0.2867
     35  CB        67.1080  -36.3860    2.9080 C.3    62  MET62       0.0387
     36  CG        66.3920  -37.6540    2.5110 C.3    62  MET62       0.0595
     37  SD        67.5430  -38.9940    2.1920 S.3    62  MET62      -0.1393
     38  CE        66.4230  -40.2910    1.7030 C.3    62  MET62       0.0692
     39  N         74.2070  -41.4690    4.0030 N.3    70  ILE70      -0.1245
     40  CA        73.9000  -42.4670    2.9970 C.3    70  ILE70       0.1561
     41  C         75.0600  -42.6310    1.9940 C.2    70  ILE70       0.2260
     42  O         75.4630  -43.7550    1.6870 O.2    70  ILE70      -0.2867
     43  CB        72.5710  -42.1400    2.2980 C.3    70  ILE70       0.0252
     44  CG1       71.4030  -42.5050    3.2270 C.3    70  ILE70       0.0019
     45  CG2       72.4760  -42.8690    0.9700 C.3    70  ILE70       0.0019
     46  CD1       70.0680  -41.8840    2.8280 C.3    70  ILE70       0.0001
     47  N         71.1860  -47.0920    0.8940 N.3   195  GLY195     -0.1225
     48  CA        70.0190  -46.3160    1.2780 C.3   195  GLY195      0.1811
     49  C         69.6780  -45.1960    0.3060 C.2   195  GLY195      0.2280
     50  O         68.7750  -44.3950    0.5720 O.2   195  GLY195     -0.2866
     51  N         67.7140  -43.4760   -2.3420 N.3   197  PRO197     -0.2102
     52  CA        66.3210  -43.7030   -2.7440 C.3   197  PRO197      0.1504
     53  C         66.1780  -44.2360   -4.1700 C.2   197  PRO197      0.2575
     54  O         66.9860  -43.9340   -5.0520 O.2   197  PRO197     -0.2718
     55  CB        65.6950  -42.3070   -2.6190 C.3   197  PRO197      0.0282
     56  CG        66.5430  -41.6160   -1.5830 C.3   197  PRO197      0.0208
     57  CD        67.9390  -42.0920   -1.8930 C.3   197  PRO197      0.0893
     58  N         65.1450  -45.0410   -4.3880 N.am  198  ASP198     -0.1974
     59  CA        64.8630  -45.5880   -5.7080 C.3   198  ASP198      0.1708
     60  C         64.7430  -44.4640   -6.7320 C.2   198  ASP198      0.2293
     61  O         64.0860  -43.4440   -6.4860 O.2   198  ASP198     -0.2864
     62  CB        63.5680  -46.4060   -5.6690 C.3   198  ASP198      0.1436
     63  CG        63.6840  -47.6370   -4.7810 C.2   198  ASP198      0.3671
     64  OD1       64.8250  -48.0330   -4.4340 O.co2 198  ASP198     -0.2456
     65  OD2       62.6380  -48.2090   -4.4270 O.co2 198  ASP198     -0.2456
@<TRIPOS>BOND
     1     5     6    1
     2     9     6    1
     3     9    10    1
     4     6     7    1
     5     7     8    2
     6     1     2    1
     7    11    12    1
     8    19    17   ar
     9     2     3    1
    10    16    17    1
    11    16    15    1
    12    17    18   ar
    13    15    12    1
    14    12    13    1
    15     3     4    2
    16    20    13   am
    17    20    21    1
    18    13    14    2
    19    60    61    2
    20    60    59    1
    21    21    22    1
    22    22    23    2
    23    59    62    1
    24    59    58    1
    25    62    63    1
    26    54    53    2
    27    63    64   ar
    28    63    65   ar
    29    58    53   am
    30    53    52    1
    31    24    25    1
    32    52    55    1
    33    52    51    1
    34    30    28    1
    35    55    56    1
    36    51    57    1
    37    28    25    1
    38    28    29    1
    39    25    26    1
    40    57    56    1
    41    26    27    2
    42    49    50    2
    43    49    48    1
    44    47    48    1
    45    45    43    1
    46    42    41    2
    47    38    37    1
    48    41    40    1
    49    31    32    1
    50    37    36    1
    51    43    40    1
    52    43    44    1
    53    36    35    1
    54    46    44    1
    55    34    33    2
    56    35    32    1
    57    40    39    1
    58    32    33    1
