@<TRIPOS>MOLECULE
tmp/2woxB02.pdb
 105 101 0 0 0
SMALL
GASTEIGER

@<TRIPOS>ATOM
      1  N         93.5850  -48.8690   -7.8560 N.3   103  VAL103     -0.1245
      2  CA        93.2750  -47.5850   -8.4640 C.3   103  VAL103      0.1561
      3  C         91.7750  -47.3600   -8.6700 C.2   103  VAL103      0.2260
      4  O         91.1870  -46.4360   -8.0960 O.2   103  VAL103     -0.2867
      5  CB        94.0010  -47.4230   -9.8230 C.3   103  VAL103      0.0252
      6  CG1       93.6500  -46.0830  -10.4590 C.3   103  VAL103      0.0019
      7  CG2       95.5040  -47.5520   -9.6430 C.3   103  VAL103      0.0019
      8  N         90.1040  -44.9750   -6.0190 N.3   107  THR107     -0.1218
      9  CA        90.0190  -43.5500   -6.3420 C.3   107  THR107      0.1862
     10  C         88.6050  -43.1170   -6.7120 C.2   107  THR107      0.2287
     11  O         88.2680  -41.9380   -6.6090 O.2   107  THR107     -0.2866
     12  CB        91.0090  -43.1300   -7.4420 C.3   107  THR107      0.1770
     13  OG1       90.7120  -43.8220   -8.6620 O.3   107  THR107     -0.2211
     14  CG2       92.4380  -43.4310   -6.9990 C.3   107  THR107      0.0375
     15  N         87.4910  -46.7920  -20.4490 N.3   152  ASN152     -0.1225
     16  CA        88.8170  -47.0620  -19.8970 C.3   152  ASN152      0.1785
     17  C         88.8280  -47.2330  -18.3740 C.2   152  ASN152      0.2597
     18  O         89.6250  -48.0100  -17.8400 O.2   152  ASN152     -0.2718
     19  CB        89.8350  -46.0080  -20.3430 C.3   152  ASN152      0.1169
     20  CG        89.4690  -44.6180  -19.8810 C.2   152  ASN152      0.2627
     21  OD1       88.3080  -44.3420  -19.5880 O.2   152  ASN152     -0.2716
     22  ND2       90.4580  -43.7300  -19.8170 N.am  152  ASN152     -0.0877
     23  N         87.9410  -46.5100  -17.6890 N.am  153  TYR153     -0.1976
     24  CA        87.8230  -46.5720  -16.2260 C.3   153  TYR153      0.1639
     25  C         86.3490  -46.5590  -15.8390 C.2   153  TYR153      0.2290
     26  O         85.8710  -45.5910  -15.2660 O.2   153  TYR153     -0.2864
     27  CB        88.5140  -45.3690  -15.5800 C.3   153  TYR153      0.0560
     28  CG        90.0080  -45.4780  -15.4950 C.ar  153  TYR153     -0.0198
     29  CD1       90.6360  -45.7220  -14.2770 C.ar  153  TYR153     -0.0009
     30  CD2       90.8030  -45.3460  -16.6300 C.ar  153  TYR153     -0.0009
     31  CE1       92.0120  -45.8290  -14.1890 C.ar  153  TYR153      0.0417
     32  CE2       92.1820  -45.4500  -16.5530 C.ar  153  TYR153      0.0417
     33  CZ        92.7830  -45.6900  -15.3300 C.ar  153  TYR153      0.1957
     34  OH        94.1570  -45.7900  -15.2450 O.3   153  TYR153     -0.2866
     35  N         85.1540  -46.1010  -11.9380 N.3   156  GLN156     -0.1231
     36  CA        85.7170  -44.8510  -11.4260 C.3   156  GLN156      0.1698
     37  C         84.9820  -43.6630  -12.0220 C.2   156  GLN156      0.2592
     38  O         84.5760  -42.7500  -11.3090 O.2   156  GLN156     -0.2718
     39  CB        87.2010  -44.7230  -11.7510 C.3   156  GLN156      0.0381
     40  CG        87.8070  -43.4050  -11.2570 C.3   156  GLN156      0.0905
     41  CD        89.0170  -42.9450  -12.0720 C.2   156  GLN156      0.2608
     42  OE1       88.8830  -42.4840  -13.2050 O.2   156  GLN156     -0.2717
     43  NE2       90.1960  -43.0370  -11.4790 N.am  156  GLN156     -0.0878
     44  N         84.8070  -43.6730  -13.3380 N.am  157  ILE157     -0.1980
     45  CA        84.0910  -42.5810  -13.9820 C.3   157  ILE157      0.1595
     46  C         82.6340  -42.4830  -13.5180 C.2   157  ILE157      0.2287
     47  O         82.1490  -41.3880  -13.2560 O.2   157  ILE157     -0.2864
     48  CB        84.1860  -42.6640  -15.5040 C.3   157  ILE157      0.0276
     49  CG1       85.6430  -42.4530  -15.9380 C.3   157  ILE157      0.0022
     50  CG2       83.2390  -41.6550  -16.1590 C.3   157  ILE157      0.0022
     51  CD1       85.8730  -42.6200  -17.4440 C.3   157  ILE157      0.0001
     52  N         82.9240  -40.7430  -10.2440 N.3   160  TRP160     -0.1241
     53  CA        83.3310  -39.3400  -10.3570 C.3   160  TRP160      0.1605
     54  C         82.1910  -38.4550  -10.8440 C.2   160  TRP160      0.2264
     55  O         82.1390  -37.2690  -10.5250 O.2   160  TRP160     -0.2867
     56  CB        84.5390  -39.1900  -11.2800 C.3   160  TRP160      0.0550
     57  CG        85.8490  -39.5560  -10.6220 C.ar  160  TRP160      0.0003
     58  CD1       86.0270  -40.3700   -9.5350 C.ar  160  TRP160      0.0946
     59  CD2       87.1600  -39.1360  -11.0260 C.ar  160  TRP160      0.0152
     60  NE1       87.3640  -40.4740   -9.2350 N.ar  160  TRP160     -0.2442
     61  CE2       88.0810  -39.7230  -10.1330 C.ar  160  TRP160      0.0810
     62  CE3       87.6430  -38.3100  -12.0500 C.ar  160  TRP160      0.0012
     63  CZ2       89.4580  -39.5180  -10.2360 C.ar  160  TRP160      0.0191
     64  CZ3       89.0120  -38.1130  -12.1570 C.ar  160  TRP160      0.0001
     65  CH2       89.9030  -38.7130  -11.2520 C.ar  160  TRP160      0.0015
     66  N         94.7140  -43.8620  -21.1260 N.3   284  VAL284     -0.1245
     67  CA        94.4330  -42.7790  -20.1870 C.3   284  VAL284      0.1561
     68  C         94.3710  -41.4500  -20.9500 C.2   284  VAL284      0.2260
     69  O         95.2970  -41.1020  -21.6840 O.2   284  VAL284     -0.2867
     70  CB        95.5110  -42.6950  -19.0960 C.3   284  VAL284      0.0252
     71  CG1       95.1300  -41.6630  -18.0500 C.3   284  VAL284      0.0019
     72  CG2       95.7340  -44.0620  -18.4540 C.3   284  VAL284      0.0019
     73  N         94.6390  -38.4060  -20.0080 N.3   286  THR286     -0.1218
     74  CA        95.6210  -37.4060  -19.5990 C.3   286  THR286      0.1862
     75  C         97.0560  -37.8390  -19.9030 C.2   286  THR286      0.2287
     76  O         98.0130  -37.2100  -19.4540 O.2   286  THR286     -0.2866
     77  CB        95.5260  -37.1510  -18.0970 C.3   286  THR286      0.1770
     78  OG1       95.6970  -38.3990  -17.4260 O.3   286  THR286     -0.2211
     79  CG2       94.1550  -36.5460  -17.7080 C.3   286  THR286      0.0375
     80  N        100.0070  -38.0860  -13.5030 N.3   444  GLY444     -0.1210
     81  CA        98.8620  -38.9720  -13.3970 C.3   444  GLY444      0.1956
     82  C         98.0660  -38.9440  -12.1070 C.2   444  GLY444      0.2612
     83  O         96.9400  -39.4290  -12.0750 O.2   444  GLY444     -0.2717
     84  N         98.6400  -38.4020  -11.0380 N.am  445  GLU445     -0.1965
     85  CA        97.9220  -38.3320   -9.7740 C.3   445  GLU445      0.1733
     86  C         96.7990  -37.3050   -9.8740 C.2   445  GLU445      0.2617
     87  O         97.0130  -36.1860  -10.3330 O.2   445  GLU445     -0.2715
     88  CB        98.8620  -37.9860   -8.6170 C.3   445  GLU445      0.0429
     89  CG        98.2110  -38.1060   -7.2620 C.3   445  GLU445      0.1163
     90  CD        99.1510  -37.7540   -6.1170 C.2   445  GLU445      0.3649
     91  OE1      100.3660  -37.5840   -6.3680 O.co2 445  GLU445     -0.2457
     92  OE2       98.6670  -37.6520   -4.9650 O.co2 445  GLU445     -0.2457
     93  N         95.6060  -37.6960   -9.4400 N.am  446  SER446     -0.1936
     94  CA        94.4210  -36.8690   -9.6100 C.3   446  SER446      0.2040
     95  C         93.5720  -36.8790   -8.3370 C.2   446  SER446      0.2485
     96  O         92.5400  -37.5390   -8.2740 O.2   446  SER446     -0.2729
     97  CB        93.6140  -37.3730  -10.8100 C.3   446  SER446      0.2129
     98  OG        92.6910  -36.3970  -11.2440 O.3   446  SER446     -0.2179
     99  N         94.0200  -36.1520   -7.3130 N.am  447  PRO447     -0.2726
    100  CA        93.3740  -36.1200   -5.9900 C.3   447  PRO447      0.1402
    101  C         91.9260  -35.6070   -6.0460 C.2   447  PRO447      0.2269
    102  O         91.5700  -34.8320   -6.9300 O.2   447  PRO447     -0.2865
    103  CB        94.2470  -35.1370   -5.1880 C.3   447  PRO447      0.0296
    104  CG        95.5270  -35.0090   -5.9480 C.3   447  PRO447      0.0237
    105  CD        95.1890  -35.2570   -7.3910 C.3   447  PRO447      0.0939
@<TRIPOS>BOND
     1    69    68    2
     2    66    67    1
     3    68    67    1
     4    15    16    1
     5    19    16    1
     6    19    20    1
     7    67    70    1
     8    73    74    1
     9    75    74    1
    10    75    76    2
    11    16    17    1
    12    20    22   am
    13    20    21    2
    14    74    77    1
    15    70    72    1
    16    70    71    1
    17    17    18    2
    18    17    23   am
    19    77    79    1
    20    77    78    1
    21    23    24    1
    22    51    49    1
    23    30    32   ar
    24    30    28   ar
    25    32    33   ar
    26    24    25    1
    27    24    27    1
    28    50    48    1
    29    49    48    1
    30    25    26    2
    31    27    28    1
    32    48    45    1
    33    28    29   ar
    34    33    34    1
    35    33    31   ar
    36    29    31   ar
    37    45    46    1
    38    45    44    1
    39    46    47    2
    40    80    81    1
    41    81    82    1
    42    44    37   am
    43    42    41    2
    44    64    62   ar
    45    64    65   ar
    46    82    83    2
    47    82    84   am
    48    41    43   am
    49    41    40    1
    50    62    59   ar
    51    37    36    1
    52    37    38    2
    53    35    36    1
    54    39    36    1
    55    39    40    1
    56    56    57    1
    57    56    53    1
    58    65    63   ar
    59    98    97    1
    60    84    85    1
    61    59    57   ar
    62    59    61   ar
    63    54    55    2
    64    54    53    1
    65    97    94    1
    66    57    58   ar
    67     6     5    1
    68    53    52    1
    69    87    86    2
    70    63    61   ar
    71    61    60   ar
    72    86    85    1
    73    86    93   am
    74     5     7    1
    75     5     2    1
    76    85    88    1
    77    94    93    1
    78    94    95    1
    79    58    60   ar
    80     3     2    1
    81     3     4    2
    82    13    12    1
    83    88    89    1
    84     2     1    1
    85    95    96    2
    86    95    99   am
    87    12    14    1
    88    12     9    1
    89   105    99    1
    90   105   104    1
    91    99   100    1
    92    89    90    1
    93   102   101    2
    94    10    11    2
    95    10     9    1
    96    91    90   ar
    97     9     8    1
    98    90    92   ar
    99   101   100    1
   100   100   103    1
   101   104   103    1
