@<TRIPOS>MOLECULE
tmp/2woxC01.pdb
 99 96 0 0 0
SMALL
GASTEIGER

@<TRIPOS>ATOM
      1  N         69.4640  -34.1690   23.0890 N.3   103  VAL103     -0.1245
      2  CA        70.1560  -32.9160   22.7710 C.3   103  VAL103      0.1561
      3  C         71.6790  -32.9860   22.9360 C.2   103  VAL103      0.2260
      4  O         72.4170  -32.8410   21.9590 O.2   103  VAL103     -0.2867
      5  CB        69.6130  -31.7400   23.6070 C.3   103  VAL103      0.0252
      6  CG1       70.4570  -30.4930   23.4040 C.3   103  VAL103      0.0019
      7  CG2       68.1720  -31.4740   23.2380 C.3   103  VAL103      0.0019
      8  N         76.3480  -27.6100   29.6320 N.3   153  TYR153     -0.1241
      9  CA        76.3260  -28.6410   28.5850 C.3   153  TYR153      0.1605
     10  C         77.7310  -29.2340   28.4590 C.2   153  TYR153      0.2264
     11  O         78.4290  -28.9760   27.4840 O.2   153  TYR153     -0.2867
     12  CB        75.8700  -28.0500   27.2390 C.3   153  TYR153      0.0534
     13  CG        74.3760  -27.8140   27.1240 C.ar  153  TYR153     -0.0201
     14  CD1       73.5860  -28.5950   26.2810 C.ar  153  TYR153     -0.0009
     15  CD2       73.7530  -26.8040   27.8560 C.ar  153  TYR153     -0.0009
     16  CE1       72.2150  -28.3810   26.1750 C.ar  153  TYR153      0.0417
     17  CE2       72.3810  -26.5810   27.7620 C.ar  153  TYR153      0.0417
     18  CZ        71.6190  -27.3710   26.9240 C.ar  153  TYR153      0.1957
     19  OH        70.2640  -27.1500   26.8410 O.3   153  TYR153     -0.2866
     20  N         60.0840  -22.0730   26.1770 N.3   275  MET275     -0.1230
     21  CA        61.2660  -22.7860   25.7040 C.3   275  MET275      0.1702
     22  C         62.5290  -21.9390   25.8880 C.2   275  MET275      0.2592
     23  O         63.5880  -22.4670   26.2150 O.2   275  MET275     -0.2718
     24  CB        61.1150  -23.1820   24.2270 C.3   275  MET275      0.0401
     25  CG        60.2590  -24.4060   23.9940 C.3   275  MET275      0.0596
     26  SD        60.9700  -25.8850   24.7280 S.3   275  MET275     -0.1393
     27  CE        62.2630  -26.2440   23.5380 C.3   275  MET275      0.0692
     28  N         62.4120  -20.6270   25.6700 N.am  276  ALA276     -0.1980
     29  CA        63.5650  -19.7270   25.7600 C.3   276  ALA276      0.1597
     30  C         63.9490  -19.3770   27.2050 C.2   276  ALA276      0.2287
     31  O         64.9230  -18.6510   27.4460 O.2   276  ALA276     -0.2864
     32  CB        63.3130  -18.4390   24.9520 C.3   276  ALA276      0.0319
     33  N         64.0780  -24.3510   29.4060 N.3   279  PHE279     -0.1241
     34  CA        64.8630  -25.5010   28.9850 C.3   279  PHE279      0.1605
     35  C         66.1480  -25.6060   29.8310 C.2   279  PHE279      0.2264
     36  O         66.7200  -24.5940   30.2240 O.2   279  PHE279     -0.2867
     37  CB        65.1580  -25.4690   27.4830 C.3   279  PHE279      0.0534
     38  CG        65.3960  -26.8340   26.8940 C.ar  279  PHE279     -0.0203
     39  CD1       64.3300  -27.6660   26.5980 C.ar  279  PHE279     -0.0042
     40  CD2       66.6850  -27.2920   26.6610 C.ar  279  PHE279     -0.0042
     41  CE1       64.5440  -28.9450   26.0740 C.ar  279  PHE279     -0.0003
     42  CE2       66.9070  -28.5560   26.1420 C.ar  279  PHE279     -0.0003
     43  CZ        65.8270  -29.3850   25.8360 C.ar  279  PHE279     -0.0000
     44  N         70.7490  -22.0040   30.2090 N.3   284  VAL284     -0.1245
     45  CA        71.2160  -21.9110   28.8300 C.3   284  VAL284      0.1561
     46  C         71.6500  -20.4730   28.5970 C.2   284  VAL284      0.2260
     47  O         70.9060  -19.5250   28.8840 O.2   284  VAL284     -0.2867
     48  CB        70.1280  -22.3220   27.8150 C.3   284  VAL284      0.0252
     49  CG1       70.7270  -22.5230   26.4180 C.3   284  VAL284      0.0019
     50  CG2       69.4290  -23.5950   28.2710 C.3   284  VAL284      0.0019
     51  N         72.0730  -18.6730   25.8860 N.3   286  THR286     -0.1203
     52  CA        71.3280  -17.9100   24.9040 C.3   286  THR286      0.1994
     53  C         69.8730  -17.6760   25.2870 C.2   286  THR286      0.2617
     54  O         69.1060  -17.1810   24.4730 O.2   286  THR286     -0.2717
     55  CB        71.3240  -18.6350   23.5490 C.3   286  THR286      0.1784
     56  OG1       70.7930  -19.9500   23.7360 O.3   286  THR286     -0.2211
     57  CG2       72.7410  -18.7430   22.9760 C.3   286  THR286      0.0376
     58  N         69.4810  -18.0360   26.5050 N.am  287  ASN287     -0.1974
     59  CA        68.0860  -17.8410   26.9080 C.3   287  ASN287      0.1688
     60  C         67.5340  -16.4270   26.7620 C.2   287  ASN287      0.2292
     61  O         68.2360  -15.4350   27.0060 O.2   287  ASN287     -0.2864
     62  CB        67.8360  -18.3590   28.3230 C.3   287  ASN287      0.1181
     63  CG        67.5890  -19.8530   28.3350 C.2   287  ASN287      0.2629
     64  OD1       67.5240  -20.4650   27.2710 O.2   287  ASN287     -0.2716
     65  ND2       67.4650  -20.4490   29.5230 N.am  287  ASN287     -0.0877
     66  N         61.1810  -18.5970   16.2810 N.3   442  THR442     -0.1203
     67  CA        61.6630  -19.8280   16.8680 C.3   442  THR442      0.1994
     68  C         62.6610  -19.4100   17.9390 C.2   442  THR442      0.2618
     69  O         62.8720  -18.2170   18.1510 O.2   442  THR442     -0.2717
     70  CB        62.3270  -20.7410   15.8020 C.3   442  THR442      0.1784
     71  OG1       62.7710  -21.9500   16.4170 O.3   442  THR442     -0.2211
     72  CG2       63.5190  -20.0370   15.1390 C.3   442  THR442      0.0376
     73  N         63.2450  -20.3730   18.6400 N.am  443  TRP443     -0.1961
     74  CA        64.2810  -20.0590   19.6220 C.3   443  TRP443      0.1771
     75  C         65.0740  -21.3000   19.9230 C.2   443  TRP443      0.2620
     76  O         64.5070  -22.3810   20.0660 O.2   443  TRP443     -0.2715
     77  CB        63.6940  -19.5190   20.9520 C.3   443  TRP443      0.0590
     78  CG        64.7360  -18.8040   21.7850 C.ar  443  TRP443      0.0006
     79  CD1       65.6870  -19.3790   22.5800 C.ar  443  TRP443      0.0946
     80  CD2       64.9700  -17.3820   21.8510 C.ar  443  TRP443      0.0152
     81  NE1       66.4880  -18.4030   23.1520 N.ar  443  TRP443     -0.2442
     82  CE2       66.0650  -17.1720   22.7210 C.ar  443  TRP443      0.0810
     83  CE3       64.3500  -16.2690   21.2690 C.ar  443  TRP443      0.0012
     84  CZ2       66.5550  -15.8980   23.0210 C.ar  443  TRP443      0.0191
     85  CZ3       64.8330  -15.0040   21.5730 C.ar  443  TRP443      0.0001
     86  CH2       65.9250  -14.8300   22.4410 C.ar  443  TRP443      0.0015
     87  N         66.3850  -21.1430   20.0540 N.am  444  GLY444     -0.1940
     88  CA        67.1840  -22.1820   20.6840 C.3   444  GLY444      0.2014
     89  C         67.8950  -23.1610   19.7730 C.2   444  GLY444      0.2638
     90  O         68.8720  -23.7690   20.1810 O.2   444  GLY444     -0.2714
     91  N         67.4180  -23.3140   18.5420 N.am  445  GLU445     -0.1977
     92  CA        68.0510  -24.2310   17.6000 C.3   445  GLU445      0.1602
     93  C         69.4080  -23.6850   17.1670 C.2   445  GLU445      0.2287
     94  O         69.5480  -22.4940   16.8710 O.2   445  GLU445     -0.2864
     95  CB        67.1560  -24.4620   16.3790 C.3   445  GLU445      0.0415
     96  CG        67.6200  -25.5880   15.4720 C.3   445  GLU445      0.1163
     97  CD        66.6760  -25.8190   14.3060 C.2   445  GLU445      0.3649
     98  OE1       65.5460  -25.2810   14.3360 O.co2 445  GLU445     -0.2457
     99  OE2       67.0590  -26.5470   13.3640 O.co2 445  GLU445     -0.2457
@<TRIPOS>BOND
     1    99    97   ar
     2    97    98   ar
     3    97    96    1
     4    72    70    1
     5    96    95    1
     6    70    71    1
     7    70    67    1
     8    66    67    1
     9    95    92    1
    10    67    68    1
    11    94    93    2
    12    93    92    1
    13    92    91    1
    14    68    69    2
    15    68    73   am
    16    91    89   am
    17    73    74    1
    18    74    75    1
    19    74    77    1
    20    89    90    2
    21    89    88    1
    22    75    87   am
    23    75    76    2
    24    87    88    1
    25    77    78    1
    26    83    85   ar
    27    83    80   ar
    28    85    86   ar
    29    78    80   ar
    30    78    79   ar
    31    80    82   ar
    32     4     3    2
    33    86    84   ar
    34    79    81   ar
    35    82    84   ar
    36    82    81   ar
    37     2     3    1
    38     2     1    1
    39     2     5    1
    40    57    55    1
    41     7     5    1
    42     6     5    1
    43    27    26    1
    44    55    56    1
    45    55    52    1
    46    25    24    1
    47    25    26    1
    48    24    21    1
    49    54    53    2
    50    52    53    1
    51    52    51    1
    52    32    29    1
    53    53    58   am
    54    28    29    1
    55    28    22   am
    56    21    22    1
    57    21    20    1
    58    29    30    1
    59    43    41   ar
    60    43    42   ar
    61    22    23    2
    62    41    39   ar
    63    42    40   ar
    64    16    14   ar
    65    16    18   ar
    66    14    13   ar
    67    49    48    1
    68    58    59    1
    69    39    38   ar
    70    40    38   ar
    71    60    59    1
    72    60    61    2
    73    19    18    1
    74    38    37    1
    75    59    62    1
    76    18    17   ar
    77    13    12    1
    78    13    15   ar
    79    30    31    2
    80    12     9    1
    81    64    63    2
    82    37    34    1
    83    11    10    2
    84    17    15   ar
    85    48    50    1
    86    48    45    1
    87    62    63    1
    88    63    65   am
    89    10     9    1
    90     9     8    1
    91    46    45    1
    92    46    47    2
    93    45    44    1
    94    34    33    1
    95    34    35    1
    96    35    36    2
