@<TRIPOS>MOLECULE
tmp/2wp1A00.pdb
 164 166 0 0 0
SMALL
GASTEIGER

@<TRIPOS>ATOM
      1  N        -29.7490    7.3300  -22.3410 N.3    34  TRP34      -0.1228
      2  CA       -29.6520    8.0820  -23.6000 C.3    34  TRP34       0.1722
      3  C        -28.6110    7.6010  -24.6150 C.2    34  TRP34       0.2437
      4  O        -28.8570    7.6540  -25.8130 O.2    34  TRP34      -0.2733
      5  CB       -29.4770    9.5900  -23.3410 C.3    34  TRP34       0.0563
      6  CG       -28.1500    9.9900  -22.8350 C.ar   34  TRP34       0.0003
      7  CD1      -27.7780   10.1500  -21.5340 C.ar   34  TRP34       0.0946
      8  CD2      -26.9890   10.2600  -23.6250 C.ar   34  TRP34       0.0152
      9  NE1      -26.4520   10.5040  -21.4630 N.ar   34  TRP34      -0.2442
     10  CE2      -25.9450   10.5820  -22.7340 C.ar   34  TRP34       0.0810
     11  CE3      -26.7330   10.2690  -25.0030 C.ar   34  TRP34       0.0012
     12  CZ2      -24.6520   10.9020  -23.1780 C.ar   34  TRP34       0.0191
     13  CZ3      -25.4500   10.5880  -25.4460 C.ar   34  TRP34       0.0001
     14  CH2      -24.4270   10.9030  -24.5330 C.ar   34  TRP34       0.0015
     15  N        -27.4470    7.1120  -24.1590 N.am   35  PRO35      -0.2718
     16  CA       -26.4400    6.6410  -25.1210 C.3    35  PRO35       0.1535
     17  C        -26.8810    5.3980  -25.8930 C.2    35  PRO35       0.2598
     18  O        -26.2060    4.9790  -26.8370 O.2    35  PRO35      -0.2715
     19  CB       -25.2300    6.3360  -24.2390 C.3    35  PRO35       0.0310
     20  CG       -25.4250    7.2320  -23.0550 C.3    35  PRO35       0.0237
     21  CD       -26.8990    7.1020  -22.7930 C.3    35  PRO35       0.0939
     22  N        -28.0120    4.8100  -25.5060 N.am   36  PHE36      -0.1974
     23  CA       -28.4890    3.5840  -26.1620 C.3    36  PHE36       0.1639
     24  C        -29.7900    3.7250  -26.9210 C.2    36  PHE36       0.2290
     25  O        -30.3330    2.7300  -27.4100 O.2    36  PHE36      -0.2864
     26  CB       -28.6430    2.4730  -25.1240 C.3    36  PHE36       0.0560
     27  CG       -27.4650    2.3420  -24.2260 C.ar   36  PHE36      -0.0200
     28  CD1      -27.3670    3.1090  -23.0710 C.ar   36  PHE36      -0.0042
     29  CD2      -26.4180    1.5050  -24.5670 C.ar   36  PHE36      -0.0042
     30  CE1      -26.2300    3.0440  -22.2680 C.ar   36  PHE36      -0.0003
     31  CE2      -25.2800    1.4330  -23.7730 C.ar   36  PHE36      -0.0003
     32  CZ       -25.1850    2.2040  -22.6230 C.ar   36  PHE36      -0.0000
     33  N        -24.9990    3.5480  -32.5060 N.3    40  VAL40      -0.1245
     34  CA       -23.8050    4.3420  -32.2590 C.3    40  VAL40       0.1561
     35  C        -23.3610    4.9360  -33.5940 C.2    40  VAL40       0.2260
     36  O        -23.2950    4.2300  -34.6080 O.2    40  VAL40      -0.2867
     37  CB       -22.6630    3.4830  -31.6920 C.3    40  VAL40       0.0252
     38  CG1      -21.3750    4.2970  -31.6580 C.3    40  VAL40       0.0019
     39  CG2      -23.0250    2.9950  -30.2920 C.3    40  VAL40       0.0019
     40  N        -18.6660   10.1460  -34.5530 N.3    45  LEU45      -0.1231
     41  CA       -17.8600   10.1180  -33.3380 C.3    45  LEU45       0.1693
     42  C        -16.3870    9.8570  -33.6360 C.2    45  LEU45       0.2593
     43  O        -15.5400    9.9220  -32.7420 O.2    45  LEU45      -0.2718
     44  CB       -18.4010    9.0580  -32.3720 C.3    45  LEU45       0.0284
     45  CG       -19.8130    9.2880  -31.8170 C.3    45  LEU45       0.0019
     46  CD1      -20.2280    8.0940  -30.9670 C.3    45  LEU45       0.0001
     47  CD2      -19.8470   10.5700  -30.9940 C.3    45  LEU45       0.0001
     48  N        -16.0840    9.5660  -34.8960 N.am   46  GLY46      -0.1942
     49  CA       -14.7070    9.3120  -35.2730 C.3    46  GLY46       0.2014
     50  C        -14.2580    7.9090  -34.9220 C.2    46  GLY46       0.2639
     51  O        -13.0710    7.5810  -35.0060 O.2    46  GLY46      -0.2714
     52  N        -15.2050    7.0730  -34.5150 N.am   47  LEU47      -0.1963
     53  CA       -14.8810    5.6980  -34.1750 C.3    47  LEU47       0.1728
     54  C        -14.7490    4.9790  -35.5090 C.2    47  LEU47       0.2616
     55  O        -15.6980    4.3510  -35.9820 O.2    47  LEU47      -0.2715
     56  CB       -16.0050    5.0670  -33.3450 C.3    47  LEU47       0.0311
     57  CG       -16.6930    5.9070  -32.2640 C.3    47  LEU47       0.0022
     58  CD1      -17.4590    4.9730  -31.3440 C.3    47  LEU47       0.0001
     59  CD2      -15.6790    6.7090  -31.4620 C.3    47  LEU47       0.0001
     60  N        -13.5780    5.0930  -36.1270 N.am   48  HIS48      -0.1959
     61  CA       -13.3470    4.4550  -37.4140 C.3    48  HIS48       0.1787
     62  C        -13.1760    2.9480  -37.2920 C.2    48  HIS48       0.2620
     63  O        -13.1860    2.2350  -38.2960 O.2    48  HIS48      -0.2715
     64  CB       -12.1170    5.0560  -38.1050 C.3    48  HIS48       0.0785
     65  CG       -10.9190    5.1850  -37.2170 C.ar   48  HIS48       0.0821
     66  ND1      -10.6840    6.2990  -36.4410 N.ar   48  HIS48      -0.2267
     67  CD2       -9.8860    4.3380  -36.9810 C.ar   48  HIS48       0.1154
     68  CE1       -9.5580    6.1370  -35.7670 C.ar   48  HIS48       0.1986
     69  NE2       -9.0560    4.9550  -36.0770 N.ar   48  HIS48      -0.2212
     70  N        -13.0300    2.4640  -36.0620 N.am   49  ASN49      -0.1958
     71  CA       -12.8520    1.0340  -35.8230 C.3    49  ASN49       0.1819
     72  C        -14.0680    0.3920  -35.1560 C.2    49  ASN49       0.2621
     73  O        -13.9960   -0.7550  -34.7070 O.2    49  ASN49      -0.2715
     74  CB       -11.6170    0.8140  -34.9470 C.3    49  ASN49       0.1195
     75  CG       -11.7570    1.4470  -33.5780 C.2    49  ASN49       0.2630
     76  OD1      -12.2430    2.5710  -33.4500 O.2    49  ASN49      -0.2716
     77  ND2      -11.3220    0.7310  -32.5460 N.am   49  ASN49      -0.0877
     78  N        -15.1870    1.1130  -35.1030 N.am   50  TYR50      -0.1974
     79  CA       -16.3760    0.5710  -34.4530 C.3    50  TYR50       0.1639
     80  C        -16.9580   -0.6610  -35.1360 C.2    50  TYR50       0.2290
     81  O        -17.1790   -1.6820  -34.4860 O.2    50  TYR50      -0.2864
     82  CB       -17.4740    1.6350  -34.3110 C.3    50  TYR50       0.0560
     83  CG       -18.5410    1.2280  -33.3070 C.ar   50  TYR50      -0.0198
     84  CD1      -18.2220    1.0590  -31.9550 C.ar   50  TYR50      -0.0009
     85  CD2      -19.8470    0.9480  -33.7130 C.ar   50  TYR50      -0.0009
     86  CE1      -19.1720    0.6150  -31.0360 C.ar   50  TYR50       0.0417
     87  CE2      -20.8080    0.5020  -32.7970 C.ar   50  TYR50       0.0417
     88  CZ       -20.4600    0.3360  -31.4650 C.ar   50  TYR50       0.1957
     89  OH       -21.3940   -0.1250  -30.5680 O.3    50  TYR50      -0.2866
     90  N        -21.2240   -2.5410  -26.0960 N.3    89  CYS89      -0.1235
     91  CA       -20.6750   -1.4530  -25.3080 C.3    89  CYS89       0.1677
     92  C        -19.4920   -1.9070  -24.4610 C.2    89  CYS89       0.2270
     93  O        -18.4550   -1.2410  -24.4110 O.2    89  CYS89      -0.2867
     94  CB       -21.7640   -0.8590  -24.4140 C.3    89  CYS89       0.0956
     95  SG       -21.2080    0.5520  -23.4430 S.3    89  CYS89      -0.0801
     96  N        -16.4370   -2.6690  -26.9520 N.3    92  TYR92      -0.1227
     97  CA       -15.7760   -1.5610  -27.6200 C.3    92  TYR92       0.1736
     98  C        -15.1190   -0.5540  -26.7130 C.2    92  TYR92       0.2595
     99  O        -14.0410   -0.0560  -27.0180 O.2    92  TYR92      -0.2718
    100  CB       -16.7460   -0.8010  -28.5130 C.3    92  TYR92       0.0548
    101  CG       -16.0630    0.3090  -29.2750 C.ar   92  TYR92      -0.0200
    102  CD1      -15.2760    0.0300  -30.3930 C.ar   92  TYR92      -0.0009
    103  CD2      -16.1540    1.6320  -28.8480 C.ar   92  TYR92      -0.0009
    104  CE1      -14.5950    1.0420  -31.0680 C.ar   92  TYR92       0.0417
    105  CE2      -15.4780    2.6510  -29.5110 C.ar   92  TYR92       0.0417
    106  CZ       -14.7010    2.3510  -30.6210 C.ar   92  TYR92       0.1957
    107  OH       -14.0370    3.3670  -31.2740 O.3    92  TYR92      -0.2866
    108  N        -15.7670   -0.2360  -25.6050 N.am   93  ASN93      -0.1961
    109  CA       -15.2220    0.7600  -24.7100 C.3    93  ASN93       0.1804
    110  C        -14.2960    0.2170  -23.6360 C.2    93  ASN93       0.2463
    111  O        -14.3220   -0.9710  -23.3140 O.2    93  ASN93      -0.2730
    112  CB       -16.3730    1.5470  -24.0810 C.3    93  ASN93       0.1195
    113  CG       -17.2220    2.2540  -25.1240 C.2    93  ASN93       0.2630
    114  OD1      -16.8540    3.3170  -25.6220 O.2    93  ASN93      -0.2716
    115  ND2      -18.3560    1.6540  -25.4770 N.am   93  ASN93      -0.0877
    116  N        -13.4340    1.0910  -23.0860 N.am   94  PRO94      -0.2727
    117  CA       -12.4990    0.6920  -22.0370 C.3    94  PRO94       0.1402
    118  C        -13.2880    0.4450  -20.7600 C.2    94  PRO94       0.2269
    119  O        -14.2090    1.1900  -20.4360 O.2    94  PRO94      -0.2865
    120  CB       -11.5700    1.9020  -21.9220 C.3    94  PRO94       0.0296
    121  CG       -12.4760    3.0470  -22.2420 C.3    94  PRO94       0.0237
    122  CD       -13.2440    2.5120  -23.4410 C.3    94  PRO94       0.0939
    123  N        -13.1370    1.2320  -17.7910 N.3    96  ASP96      -0.1225
    124  CA       -13.4010    2.3570  -16.8950 C.3    96  ASP96       0.1805
    125  C        -14.1760    3.4930  -17.5480 C.2    96  ASP96       0.2598
    126  O        -14.4050    4.5300  -16.9220 O.2    96  ASP96      -0.2718
    127  CB       -12.0880    2.9030  -16.3160 C.3    96  ASP96       0.1424
    128  CG       -11.1440    3.4550  -17.3890 C.2    96  ASP96       0.3668
    129  OD1      -11.4650    3.3660  -18.6010 O.co2  96  ASP96      -0.2456
    130  OD2      -10.0700    3.9820  -17.0080 O.co2  96  ASP96      -0.2456
    131  N        -14.5960    3.3000  -18.7940 N.am   97  HIS97      -0.1961
    132  CA       -15.3250    4.3460  -19.4930 C.3    97  HIS97       0.1787
    133  C        -16.6460    4.6470  -18.8040 C.2    97  HIS97       0.2620
    134  O        -17.2700    3.7580  -18.2210 O.2    97  HIS97      -0.2715
    135  CB       -15.5790    3.9490  -20.9460 C.3    97  HIS97       0.0785
    136  CG       -15.9010    5.1110  -21.8360 C.ar   97  HIS97       0.0821
    137  ND1      -16.9960    5.9250  -21.6320 N.ar   97  HIS97      -0.2267
    138  CD2      -15.2560    5.6110  -22.9180 C.ar   97  HIS97       0.1154
    139  CE1      -17.0120    6.8750  -22.5500 C.ar   97  HIS97       0.1986
    140  NE2      -15.9670    6.7070  -23.3430 N.ar   97  HIS97      -0.2212
    141  N        -17.0700    5.9050  -18.8730 N.am   98  GLU98      -0.1963
    142  CA       -18.3160    6.3220  -18.2460 C.3    98  GLU98       0.1733
    143  C        -19.5230    5.6330  -18.8760 C.2    98  GLU98       0.2616
    144  O        -20.5170    5.3800  -18.2000 O.2    98  GLU98      -0.2715
    145  CB       -18.4890    7.8360  -18.3520 C.3    98  GLU98       0.0429
    146  CG       -19.8590    8.3110  -17.8790 C.3    98  GLU98       0.1163
    147  CD       -20.1390    9.7710  -18.2050 C.2    98  GLU98       0.3649
    148  OE1      -19.4680   10.3220  -19.1060 O.co2  98  GLU98      -0.2457
    149  OE2      -21.0460   10.3600  -17.5690 O.co2  98  GLU98      -0.2457
    150  N        -19.4370    5.3260  -20.1650 N.am   99  VAL99      -0.1977
    151  CA       -20.5490    4.6830  -20.8530 C.3    99  VAL99       0.1596
    152  C        -20.7390    3.2470  -20.3790 C.2    99  VAL99       0.2287
    153  O        -21.8470    2.7200  -20.4150 O.2    99  VAL99      -0.2864
    154  CB       -20.3510    4.6970  -22.3770 C.3    99  VAL99       0.0276
    155  CG1      -19.3480    3.6240  -22.7890 C.3    99  VAL99       0.0022
    156  CG2      -21.6910    4.5110  -23.0750 C.3    99  VAL99       0.0022
    157  N        -22.7630    3.3470  -17.3150 N.3   102  MET102     -0.1245
    158  CA       -24.1400    3.6330  -17.6600 C.3   102  MET102      0.1570
    159  C        -24.8270    2.3780  -18.1800 C.2   102  MET102      0.2261
    160  O        -25.9950    2.1380  -17.8690 O.2   102  MET102     -0.2867
    161  CB       -24.1950    4.7380  -18.7140 C.3   102  MET102      0.0387
    162  CG       -23.6830    6.0650  -18.1850 C.3   102  MET102      0.0595
    163  SD       -23.2340    7.2010  -19.5060 S.3   102  MET102     -0.1393
    164  CE       -24.7630    8.0540  -19.7600 C.3   102  MET102      0.0692
@<TRIPOS>BOND
     1    63    62    2
     2    64    61    1
     3    64    65    1
     4    61    62    1
     5    61    60    1
     6    62    70   am
     7    65    67   ar
     8    65    66   ar
     9    67    69   ar
    10    66    68   ar
    11    60    54   am
    12    69    68   ar
    13    70    71    1
    14    55    54    2
    15    71    72    1
    16    71    74    1
    17    54    53    1
    18    49    50    1
    19    49    48    1
    20    72    78   am
    21    72    73    2
    22    80    81    2
    23    80    79    1
    24    78    79    1
    25    51    50    2
    26    74    75    1
    27    50    52   am
    28    48    42   am
    29    36    35    2
    30    40    41    1
    31    52    53    1
    32    79    82    1
    33    82    83    1
    34    53    56    1
    35    85    83   ar
    36    85    87   ar
    37    42    41    1
    38    42    43    2
    39    35    34    1
    40    75    76    2
    41    75    77   am
    42    56    57    1
    43    41    44    1
    44    83    84   ar
    45    87    88   ar
    46    33    34    1
    47    44    45    1
    48    57    59    1
    49    57    58    1
    50    34    37    1
    51    84    86   ar
    52    45    47    1
    53    45    46    1
    54    37    38    1
    55    37    39    1
    56    88    86   ar
    57    88    89    1
    58   107   106    1
    59   104   106   ar
    60   104   102   ar
    61   106   105   ar
    62   102   101   ar
    63   105   103   ar
    64   101   103   ar
    65   101   100    1
    66   100    97    1
    67    97    96    1
    68    97    98    1
    69    25    24    2
    70    99    98    2
    71    24    23    1
    72    18    17    2
    73    98   108   am
    74    23    22    1
    75    23    26    1
    76    90    91    1
    77    17    22   am
    78    17    16    1
    79     4     3    2
    80   114   113    2
    81   108   109    1
    82   115   113   am
    83    13    11   ar
    84    13    14   ar
    85    91    92    1
    86    91    94    1
    87    26    27    1
    88   113   112    1
    89    16    19    1
    90    16    15    1
    91    11     8   ar
    92   109   112    1
    93   109   110    1
    94     3    15   am
    95     3     2    1
    96    29    27   ar
    97    29    31   ar
    98    14    12   ar
    99    92    93    2
   100    94    95    1
   101    19    20    1
   102    27    28   ar
   103    15    21    1
   104    31    32   ar
   105   110   111    2
   106   110   116   am
   107     8     6   ar
   108     8    10   ar
   109     2     5    1
   110     2     1    1
   111   122   116    1
   112   122   121    1
   113   140   138   ar
   114   140   139   ar
   115     5     6    1
   116    12    10   ar
   117   116   117    1
   118   156   154    1
   119    28    30   ar
   120    20    21    1
   121   138   136   ar
   122     6     7   ar
   123   155   154    1
   124    10     9   ar
   125    32    30   ar
   126   139   137   ar
   127   154   151    1
   128   121   120    1
   129   117   120    1
   130   117   118    1
   131   136   137   ar
   132   136   135    1
   133     7     9   ar
   134   135   132    1
   135   151   152    1
   136   151   150    1
   137   118   119    2
   138   153   152    2
   139   150   143   am
   140   164   163    1
   141   163   162    1
   142   132   133    1
   143   132   131    1
   144   148   147   ar
   145   143   142    1
   146   143   144    2
   147   141   133   am
   148   141   142    1
   149   133   134    2
   150   131   125   am
   151   161   162    1
   152   161   158    1
   153   129   128   ar
   154   145   142    1
   155   145   146    1
   156   147   146    1
   157   147   149   ar
   158   159   160    2
   159   159   158    1
   160   123   124    1
   161   158   157    1
   162   125   126    2
   163   125   124    1
   164   128   130   ar
   165   128   127    1
   166   124   127    1
