@<TRIPOS>MOLECULE
tmp/2wp1B00.pdb
 172 173 0 0 0
SMALL
GASTEIGER

@<TRIPOS>ATOM
      1  N        -19.4230  -15.9980   -3.6840 N.3    28  TRP28      -0.1228
      2  CA       -19.6370  -17.2210   -2.9240 C.3    28  TRP28       0.1722
      3  C        -21.0590  -17.7900   -2.9170 C.2    28  TRP28       0.2437
      4  O        -21.2120  -18.9970   -2.8440 O.2    28  TRP28      -0.2733
      5  CB       -19.1080  -17.0960   -1.4830 C.3    28  TRP28       0.0563
      6  CG       -19.9450  -16.3010   -0.5320 C.ar   28  TRP28       0.0003
      7  CD1      -19.8190  -14.9740   -0.2370 C.ar   28  TRP28       0.0946
      8  CD2      -21.0630  -16.7770    0.2290 C.ar   28  TRP28       0.0152
      9  NE1      -20.7890  -14.5930    0.6530 N.ar   28  TRP28      -0.2442
     10  CE2      -21.5650  -15.6780    0.9580 C.ar   28  TRP28       0.0810
     11  CE3      -21.6890  -18.0290    0.3670 C.ar   28  TRP28       0.0012
     12  CZ2      -22.6730  -15.7870    1.8130 C.ar   28  TRP28       0.0191
     13  CZ3      -22.7900  -18.1380    1.2140 C.ar   28  TRP28       0.0001
     14  CH2      -23.2690  -17.0180    1.9300 C.ar   28  TRP28       0.0015
     15  N        -22.1110  -16.9390   -2.9930 N.am   29  PRO29      -0.2718
     16  CA       -23.4700  -17.5080   -2.9840 C.3    29  PRO29       0.1535
     17  C        -23.7850  -18.3380   -4.2240 C.2    29  PRO29       0.2598
     18  O        -24.7560  -19.0910   -4.2550 O.2    29  PRO29      -0.2715
     19  CB       -24.3650  -16.2680   -2.8740 C.3    29  PRO29       0.0310
     20  CG       -23.5010  -15.3080   -2.0830 C.3    29  PRO29       0.0237
     21  CD       -22.1620  -15.4800   -2.7630 C.3    29  PRO29       0.0939
     22  N        -22.9420  -18.2200   -5.2400 N.am   30  PHE30      -0.1974
     23  CA       -23.1680  -18.9430   -6.4780 C.3    30  PHE30       0.1639
     24  C        -22.2200  -20.1090   -6.7080 C.2    30  PHE30       0.2290
     25  O        -22.2230  -20.7170   -7.7800 O.2    30  PHE30      -0.2864
     26  CB       -23.1110  -17.9670   -7.6620 C.3    30  PHE30       0.0560
     27  CG       -23.9480  -16.7290   -7.4570 C.ar   30  PHE30      -0.0200
     28  CD1      -23.4080  -15.6000   -6.8450 C.ar   30  PHE30      -0.0042
     29  CD2      -25.2870  -16.7140   -7.8180 C.ar   30  PHE30      -0.0042
     30  CE1      -24.1940  -14.4620   -6.5880 C.ar   30  PHE30      -0.0003
     31  CE2      -26.0910  -15.5840   -7.5670 C.ar   30  PHE30      -0.0003
     32  CZ       -25.5400  -14.4580   -6.9500 C.ar   30  PHE30      -0.0000
     33  N        -28.4820  -23.6310   -4.9190 N.3    34  VAL34      -0.1245
     34  CA       -29.2580  -23.0520   -3.8320 C.3    34  VAL34       0.1561
     35  C        -29.7980  -24.2630   -3.0680 C.2    34  VAL34       0.2260
     36  O        -30.4650  -25.1020   -3.6630 O.2    34  VAL34      -0.2867
     37  CB       -30.4530  -22.2230   -4.3980 C.3    34  VAL34       0.0252
     38  CG1      -31.3740  -21.7670   -3.2680 C.3    34  VAL34       0.0019
     39  CG2      -29.9250  -21.0120   -5.1770 C.3    34  VAL34       0.0019
     40  N        -32.4840  -24.0110    3.4050 N.3    39  LEU39      -0.1231
     41  CA       -32.8490  -22.6100    3.5980 C.3    39  LEU39       0.1693
     42  C        -34.3430  -22.4540    3.8570 C.2    39  LEU39       0.2593
     43  O        -34.8170  -21.3660    4.1790 O.2    39  LEU39      -0.2718
     44  CB       -32.4330  -21.7860    2.3740 C.3    39  LEU39       0.0284
     45  CG       -30.9170  -21.7410    2.1630 C.3    39  LEU39       0.0019
     46  CD1      -30.5930  -21.1250    0.8130 C.3    39  LEU39       0.0001
     47  CD2      -30.2770  -20.9480    3.2900 C.3    39  LEU39       0.0001
     48  N        -35.0840  -23.5460    3.7090 N.am   40  GLY40      -0.1942
     49  CA       -36.5160  -23.4970    3.9420 C.3    40  GLY40       0.2014
     50  C        -37.2620  -22.7390    2.8630 C.2    40  GLY40       0.2639
     51  O        -38.3290  -22.1820    3.1080 O.2    40  GLY40      -0.2714
     52  N        -36.6910  -22.6990    1.6670 N.am   41  LEU41      -0.1963
     53  CA       -37.3270  -22.0160    0.5530 C.3    41  LEU41       0.1728
     54  C        -38.2070  -23.0680   -0.1080 C.2    41  LEU41       0.2616
     55  O        -37.8920  -23.5570   -1.1870 O.2    41  LEU41      -0.2715
     56  CB       -36.2620  -21.5140   -0.4220 C.3    41  LEU41       0.0311
     57  CG       -35.1620  -20.6420    0.1980 C.3    41  LEU41       0.0022
     58  CD1      -34.1670  -20.2600   -0.8880 C.3    41  LEU41       0.0001
     59  CD2      -35.7600  -19.4010    0.8260 C.3    41  LEU41       0.0001
     60  N        -39.3110  -23.4140    0.5510 N.am   42  HIS42      -0.1959
     61  CA       -40.2090  -24.4590    0.0450 C.3    42  HIS42       0.1787
     62  C        -40.8420  -24.2110   -1.3220 C.2    42  HIS42       0.2620
     63  O        -41.4460  -25.1160   -1.8950 O.2    42  HIS42      -0.2715
     64  CB       -41.3100  -24.7660    1.0740 C.3    42  HIS42       0.0785
     65  CG       -42.1090  -23.5700    1.4810 C.ar   42  HIS42       0.0821
     66  ND1      -41.8980  -22.9030    2.6680 N.ar   42  HIS42      -0.2267
     67  CD2      -43.0900  -22.8910    0.8350 C.ar   42  HIS42       0.1154
     68  CE1      -42.7110  -21.8610    2.7380 C.ar   42  HIS42       0.1986
     69  NE2      -43.4430  -21.8330    1.6370 N.ar   42  HIS42      -0.2212
     70  N        -40.6930  -23.0000   -1.8520 N.am   43  ASN43      -0.1958
     71  CA       -41.2430  -22.6680   -3.1630 C.3    43  ASN43       0.1819
     72  C        -40.1490  -22.4860   -4.2140 C.2    43  ASN43       0.2621
     73  O        -40.4420  -22.2750   -5.3870 O.2    43  ASN43      -0.2715
     74  CB       -42.0600  -21.3770   -3.0710 C.3    43  ASN43       0.1195
     75  CG       -41.2120  -20.1890   -2.6430 C.2    43  ASN43       0.2630
     76  OD1      -40.2980  -20.3260   -1.8220 O.2    43  ASN43      -0.2716
     77  ND2      -41.5140  -19.0190   -3.1860 N.am   43  ASN43      -0.0877
     78  N        -38.8880  -22.5690   -3.8140 N.am   44  TYR44      -0.1974
     79  CA       -37.8060  -22.3630   -4.7810 C.3    44  TYR44       0.1639
     80  C        -37.9790  -23.1370   -6.0970 C.2    44  TYR44       0.2290
     81  O        -38.0620  -22.5350   -7.1780 O.2    44  TYR44      -0.2864
     82  CB       -36.4370  -22.7070   -4.1710 C.3    44  TYR44       0.0560
     83  CG       -35.2730  -22.2240   -5.0300 C.ar   44  TYR44      -0.0198
     84  CD1      -34.9350  -20.8670   -5.0860 C.ar   44  TYR44      -0.0009
     85  CD2      -34.5710  -23.1070   -5.8490 C.ar   44  TYR44      -0.0009
     86  CE1      -33.9340  -20.4030   -5.9410 C.ar   44  TYR44       0.0417
     87  CE2      -33.5700  -22.6520   -6.7110 C.ar   44  TYR44       0.0417
     88  CZ       -33.2650  -21.3010   -6.7510 C.ar   44  TYR44       0.1957
     89  OH       -32.3190  -20.8480   -7.6360 O.3    44  TYR44      -0.2866
     90  N        -28.2280  -18.9300  -14.3420 N.3    79  MET79      -0.1245
     91  CA       -27.8820  -18.7920  -12.9370 C.3    79  MET79       0.1570
     92  C        -28.2940  -17.4150  -12.3930 C.2    79  MET79       0.2261
     93  O        -28.9160  -17.3140  -11.3290 O.2    79  MET79      -0.2867
     94  CB       -26.3800  -18.9790  -12.7450 C.3    79  MET79       0.0387
     95  CG       -25.9010  -18.6540  -11.3510 C.3    79  MET79       0.0595
     96  SD       -24.0940  -18.8490  -11.2000 S.3    79  MET79      -0.1393
     97  CE       -23.5680  -17.3790  -12.0080 C.3    79  MET79       0.0692
     98  N        -31.7370  -16.0780   -9.8620 N.3    83  CYS83      -0.1235
     99  CA       -31.5540  -15.2730   -8.6770 C.3    83  CYS83       0.1677
    100  C        -32.4510  -14.0320   -8.7810 C.2    83  CYS83       0.2270
    101  O        -33.1690  -13.7070   -7.8430 O.2    83  CYS83      -0.2867
    102  CB       -30.0780  -14.8910   -8.5620 C.3    83  CYS83       0.0956
    103  SG       -29.6500  -13.9780   -7.1020 S.3    83  CYS83      -0.0801
    104  N        -36.1770  -15.2380   -8.4400 N.3    86  TYR86      -0.1227
    105  CA       -36.5820  -15.6700   -7.1090 C.3    86  TYR86       0.1736
    106  C        -36.5280  -14.6360   -5.9980 C.2    86  TYR86       0.2595
    107  O        -37.4640  -14.5030   -5.2090 O.2    86  TYR86      -0.2718
    108  CB       -35.7540  -16.8710   -6.6580 C.3    86  TYR86       0.0548
    109  CG       -36.2870  -17.4640   -5.3860 C.ar   86  TYR86      -0.0200
    110  CD1      -37.4250  -18.2680   -5.3970 C.ar   86  TYR86      -0.0009
    111  CD2      -35.7100  -17.1600   -4.1600 C.ar   86  TYR86      -0.0009
    112  CE1      -37.9790  -18.7490   -4.2120 C.ar   86  TYR86       0.0417
    113  CE2      -36.2500  -17.6370   -2.9740 C.ar   86  TYR86       0.0417
    114  CZ       -37.3890  -18.4300   -3.0060 C.ar   86  TYR86       0.1957
    115  OH       -37.9400  -18.8870   -1.8270 O.3    86  TYR86      -0.2866
    116  N        -35.4320  -13.9010   -5.9120 N.am   87  ASN87      -0.1961
    117  CA       -35.3030  -12.9490   -4.8350 C.3    87  ASN87       0.1804
    118  C        -35.9020  -11.5860   -5.0960 C.2    87  ASN87       0.2463
    119  O        -35.9910  -11.1430   -6.2340 O.2    87  ASN87      -0.2730
    120  CB       -33.8360  -12.8020   -4.4930 C.3    87  ASN87       0.1195
    121  CG       -33.2030  -14.1240   -4.1370 C.2    87  ASN87       0.2630
    122  OD1      -33.3140  -14.5700   -3.0150 O.2    87  ASN87      -0.2716
    123  ND2      -32.5550  -14.7630   -5.1020 N.am   87  ASN87      -0.0877
    124  N        -36.3490  -10.9100   -4.0320 N.am   88  PRO88      -0.2727
    125  CA       -36.9270   -9.5800   -4.1810 C.3    88  PRO88       0.1402
    126  C        -35.7850   -8.6580   -4.6230 C.2    88  PRO88       0.2269
    127  O        -34.6270   -8.8830   -4.2730 O.2    88  PRO88      -0.2865
    128  CB       -37.4680   -9.2730   -2.7770 C.3    88  PRO88       0.0296
    129  CG       -36.5590  -10.0580   -1.8920 C.3    88  PRO88       0.0237
    130  CD       -36.4230  -11.3650   -2.6380 C.3    88  PRO88       0.0939
    131  N        -34.5820   -5.8090   -3.7300 N.3    90  ASP90      -0.1225
    132  CA       -33.7090   -5.2370   -2.7220 C.3    90  ASP90       0.1805
    133  C        -32.8820   -6.2590   -1.9450 C.2    90  ASP90       0.2598
    134  O        -32.1930   -5.9130   -0.9930 O.2    90  ASP90      -0.2718
    135  CB       -34.5200   -4.3620   -1.7570 C.3    90  ASP90       0.1424
    136  CG       -35.4110   -5.1660   -0.8140 C.2    90  ASP90       0.3668
    137  OD1      -35.4610   -6.4140   -0.9080 O.co2  90  ASP90      -0.2456
    138  OD2      -36.0720   -4.5290    0.0380 O.co2  90  ASP90      -0.2456
    139  N        -32.9280   -7.5170   -2.3570 N.am   91  HIS91      -0.1961
    140  CA       -32.1350   -8.5240   -1.6620 C.3    91  HIS91       0.1787
    141  C        -30.6510   -8.2920   -1.9720 C.2    91  HIS91       0.2620
    142  O        -30.2750   -7.9690   -3.1020 O.2    91  HIS91      -0.2715
    143  CB       -32.5460   -9.9380   -2.0940 C.3    91  HIS91       0.0785
    144  CG       -32.1560  -10.9970   -1.1110 C.ar   91  HIS91       0.0821
    145  ND1      -30.8430  -11.2280   -0.7500 N.ar   91  HIS91      -0.2267
    146  CD2      -32.9050  -11.8520   -0.3730 C.ar   91  HIS91       0.1154
    147  CE1      -30.8040  -12.1750    0.1700 C.ar   91  HIS91       0.1986
    148  NE2      -32.0410  -12.5710    0.4180 N.ar   91  HIS91      -0.2212
    149  N        -29.8120   -8.4510   -0.9570 N.am   92  GLU92      -0.1963
    150  CA       -28.3730   -8.2700   -1.0940 C.3    92  GLU92       0.1733
    151  C        -27.7960   -9.2320   -2.1450 C.2    92  GLU92       0.2616
    152  O        -26.8610   -8.9030   -2.8900 O.2    92  GLU92      -0.2715
    153  CB       -27.7420   -8.5010    0.2780 C.3    92  GLU92       0.0429
    154  CG       -26.2480   -8.7050    0.3060 C.3    92  GLU92       0.1163
    155  CD       -25.7250   -8.9000    1.7300 C.2    92  GLU92       0.3649
    156  OE1      -26.1560   -9.8550    2.4260 O.co2  92  GLU92      -0.2457
    157  OE2      -24.8780   -8.0840    2.1530 O.co2  92  GLU92      -0.2457
    158  N        -28.3800  -10.4170   -2.2240 N.am   93  VAL93      -0.1977
    159  CA       -27.9060  -11.4100   -3.1570 C.3    93  VAL93       0.1596
    160  C        -28.1540  -10.9430   -4.5810 C.2    93  VAL93       0.2287
    161  O        -27.3970  -11.2830   -5.4840 O.2    93  VAL93      -0.2864
    162  CB       -28.5700  -12.7960   -2.8820 C.3    93  VAL93       0.0276
    163  CG1      -30.0160  -12.7930   -3.3540 C.3    93  VAL93       0.0022
    164  CG2      -27.7580  -13.9080   -3.5490 C.3    93  VAL93       0.0022
    165  N        -25.3880   -8.6770   -5.4230 N.3    96  MET96      -0.1245
    166  CA       -24.2090   -9.5210   -5.6200 C.3    96  MET96       0.1570
    167  C        -24.2590  -10.1720   -6.9920 C.2    96  MET96       0.2261
    168  O        -23.2500  -10.2120   -7.7050 O.2    96  MET96      -0.2867
    169  CB       -24.1260  -10.6140   -4.5400 C.3    96  MET96       0.0387
    170  CG       -23.8780  -10.0930   -3.1250 C.3    96  MET96       0.0595
    171  SD       -24.0890  -11.3590   -1.8450 S.3    96  MET96      -0.1393
    172  CE       -22.5500  -12.2140   -1.9490 C.3    96  MET96       0.0692
@<TRIPOS>BOND
     1    90    91    1
     2    91    94    1
     3    91    92    1
     4    94    95    1
     5    92    93    2
     6    97    96    1
     7    95    96    1
     8    98    99    1
     9   100    99    1
    10   100   101    2
    11    99   102    1
    12   102   103    1
    13   104   105    1
    14    29    31   ar
    15    29    27   ar
    16    25    24    2
    17   168   167    2
    18    26    27    1
    19    26    23    1
    20    89    88    1
    21    31    32   ar
    22    27    28   ar
    23    81    80    2
    24   105   108    1
    25   105   106    1
    26   167   166    1
    27    32    30   ar
    28    28    30   ar
    29    88    87   ar
    30    88    86   ar
    31    87    85   ar
    32    24    23    1
    33   108   109    1
    34    23    22    1
    35   119   118    2
    36    80    79    1
    37   106   116   am
    38   106   107    2
    39    86    84   ar
    40   116   117    1
    41    85    83   ar
    42   166   165    1
    43   166   169    1
    44   161   160    2
    45   110   109   ar
    46   110   112   ar
    47    73    72    2
    48   109   111   ar
    49    22    17   am
    50    39    37    1
    51   123   121   am
    52   118   117    1
    53   118   124   am
    54    84    83   ar
    55    83    82    1
    56    33    34    1
    57   117   120    1
    58    79    82    1
    59    79    78    1
    60   126   127    2
    61   126   125    1
    62   160   159    1
    63   169   170    1
    64   120   121    1
    65    37    34    1
    66    37    38    1
    67    18    17    2
    68    17    16    1
    69    72    78   am
    70    72    71    1
    71   112   114   ar
    72   125   124    1
    73   125   128    1
    74   111   113   ar
    75   121   122    2
    76   124   130    1
    77    34    35    1
    78   131   132    1
    79     1     2    1
    80    36    35    2
    81   164   162    1
    82   163   162    1
    83    77    75   am
    84    71    74    1
    85    71    70    1
    86   159   162    1
    87   159   158    1
    88   170   171    1
    89   142   141    2
    90    74    75    1
    91   114   113   ar
    92   114   115    1
    93    15    16    1
    94    15     3   am
    95    15    21    1
    96    16    19    1
    97     2     3    1
    98     2     5    1
    99     3     4    2
   100   152   151    2
   101    19    20    1
   102   128   129    1
   103    21    20    1
   104   132   133    1
   105   132   135    1
   106    75    76    2
   107   130   129    1
   108   139   133   am
   109   139   140    1
   110   158   151   am
   111   151   150    1
   112   143   140    1
   113   143   144    1
   114   141   140    1
   115   141   149   am
   116   172   171    1
   117   133   134    2
   118    63    62    2
   119    70    62   am
   120   135   136    1
   121     5     6    1
   122    62    61    1
   123    55    54    2
   124   144   145   ar
   125   144   146   ar
   126   150   149    1
   127   150   153    1
   128   137   136   ar
   129    58    57    1
   130   136   138   ar
   131   145   147   ar
   132     6     7   ar
   133     6     8   ar
   134    56    57    1
   135    56    53    1
   136   146   148   ar
   137     7     9   ar
   138    54    60   am
   139    54    53    1
   140    61    60    1
   141    61    64    1
   142   147   148   ar
   143    57    59    1
   144     8    11   ar
   145     8    10   ar
   146   153   154    1
   147   154   155    1
   148    11    13   ar
   149    53    52    1
   150     9    10   ar
   151    46    45    1
   152    67    65   ar
   153    67    69   ar
   154    10    12   ar
   155    64    65    1
   156    13    14   ar
   157    65    66   ar
   158    69    68   ar
   159    52    50   am
   160   155   157   ar
   161   155   156   ar
   162    12    14   ar
   163    45    44    1
   164    45    47    1
   165    44    41    1
   166    66    68   ar
   167    50    51    2
   168    50    49    1
   169    40    41    1
   170    41    42    1
   171    48    42   am
   172    48    49    1
   173    42    43    2
