@<TRIPOS>MOLECULE
tmp/2wp2B00.pdb
 186 184 0 0 0
SMALL
GASTEIGER

@<TRIPOS>ATOM
      1  N         22.6060   -8.0430  -19.4910 N.3    21  PHE21      -0.1241
      2  CA        23.2000   -6.9420  -18.7400 C.3    21  PHE21       0.1605
      3  C         22.7060   -6.8160  -17.3080 C.2    21  PHE21       0.2264
      4  O         22.9420   -5.7950  -16.6750 O.2    21  PHE21      -0.2867
      5  CB        22.9550   -5.6070  -19.4470 C.3    21  PHE21       0.0534
      6  CG        23.7070   -5.4490  -20.7320 C.ar   21  PHE21      -0.0203
      7  CD1       24.8600   -6.1880  -20.9790 C.ar   21  PHE21      -0.0042
      8  CD2       23.2800   -4.5290  -21.6870 C.ar   21  PHE21      -0.0042
      9  CE1       25.5830   -6.0140  -22.1630 C.ar   21  PHE21      -0.0003
     10  CE2       23.9890   -4.3440  -22.8660 C.ar   21  PHE21      -0.0003
     11  CZ        25.1480   -5.0890  -23.1100 C.ar   21  PHE21      -0.0000
     12  N         23.4600   -8.9570  -14.5250 N.3    23  TRP23      -0.1228
     13  CA        24.2590   -9.4570  -13.4070 C.3    23  TRP23       0.1722
     14  C         24.7410   -8.4040  -12.3960 C.2    23  TRP23       0.2437
     15  O         24.9460   -8.7300  -11.2270 O.2    23  TRP23      -0.2733
     16  CB        25.4510  -10.2940  -13.8990 C.3    23  TRP23       0.0563
     17  CG        26.4620   -9.5660  -14.7250 C.ar   23  TRP23       0.0003
     18  CD1       26.4650   -9.4210  -16.0850 C.ar   23  TRP23       0.0946
     19  CD2       27.6270   -8.8860  -14.2420 C.ar   23  TRP23       0.0152
     20  NE1       27.5680   -8.6880  -16.4790 N.ar   23  TRP23      -0.2442
     21  CE2       28.2930   -8.3470  -15.3690 C.ar   23  TRP23       0.0810
     22  CE3       28.1720   -8.6800  -12.9680 C.ar   23  TRP23       0.0012
     23  CZ2       29.4770   -7.6160  -15.2590 C.ar   23  TRP23       0.0191
     24  CZ3       29.3580   -7.9480  -12.8570 C.ar   23  TRP23       0.0001
     25  CH2       29.9960   -7.4240  -14.0020 C.ar   23  TRP23       0.0015
     26  N         24.9260   -7.1360  -12.8190 N.am   24  PRO24      -0.2718
     27  CA        25.3850   -6.1540  -11.8290 C.3    24  PRO24       0.1535
     28  C         24.2470   -5.6490  -10.9410 C.2    24  PRO24       0.2598
     29  O         24.4850   -4.9030   -9.9930 O.2    24  PRO24      -0.2715
     30  CB        25.9610   -5.0280  -12.6880 C.3    24  PRO24       0.0310
     31  CG        26.2310   -5.6770  -14.0190 C.3    24  PRO24       0.0237
     32  CD        25.0480   -6.5840  -14.1760 C.3    24  PRO24       0.0939
     33  N         23.0190   -6.0690  -11.2500 N.am   25  PHE25      -0.1974
     34  CA        21.8300   -5.6430  -10.5110 C.3    25  PHE25       0.1639
     35  C         21.1190   -6.7880   -9.7930 C.2    25  PHE25       0.2290
     36  O         20.1000   -6.5790   -9.1360 O.2    25  PHE25      -0.2864
     37  CB        20.8400   -4.9770  -11.4750 C.3    25  PHE25       0.0560
     38  CG        21.4400   -3.8660  -12.2910 C.ar   25  PHE25      -0.0200
     39  CD1       21.5220   -2.5750  -11.7830 C.ar   25  PHE25      -0.0042
     40  CD2       21.9570   -4.1220  -13.5680 C.ar   25  PHE25      -0.0042
     41  CE1       22.1070   -1.5530  -12.5300 C.ar   25  PHE25      -0.0003
     42  CE2       22.5430   -3.1050  -14.3150 C.ar   25  PHE25      -0.0003
     43  CZ        22.6170   -1.8160  -13.7930 C.ar   25  PHE25      -0.0000
     44  N         22.0080   -8.3100   -7.2360 N.3    27  GLN27      -0.1245
     45  CA        22.2570   -8.2920   -5.8080 C.3    27  GLN27       0.1566
     46  C         22.5440   -6.8610   -5.4070 C.2    27  GLN27       0.2260
     47  O         22.8070   -6.0160   -6.2570 O.2    27  GLN27      -0.2867
     48  CB        23.4610   -9.1910   -5.4660 C.3    27  GLN27       0.0367
     49  CG        24.7710   -8.7650   -6.1290 C.3    27  GLN27       0.0905
     50  CD        24.7630   -8.9530   -7.6460 C.2    27  GLN27       0.2608
     51  OE1       25.3740   -8.1790   -8.3820 O.2    27  GLN27      -0.2717
     52  NE2       24.0800   -9.9930   -8.1120 N.am   27  GLN27      -0.0878
     53  N         24.4040   -3.5180   -4.2330 N.3    29  VAL29      -0.1245
     54  CA        25.7350   -3.0250   -4.5560 C.3    29  VAL29       0.1561
     55  C         26.6170   -3.1510   -3.3110 C.2    29  VAL29       0.2260
     56  O         26.1970   -2.7870   -2.2170 O.2    29  VAL29      -0.2867
     57  CB        25.6880   -1.5350   -4.9710 C.3    29  VAL29       0.0252
     58  CG1       27.0940   -0.9690   -5.0610 C.3    29  VAL29       0.0019
     59  CG2       24.9740   -1.3880   -6.2990 C.3    29  VAL29       0.0019
     60  N         33.7020   -3.1300   -3.9710 N.3    34  LEU34      -0.1231
     61  CA        33.7930   -2.2760   -5.1530 C.3    34  LEU34       0.1693
     62  C         34.5500   -0.9820   -4.8440 C.2    34  LEU34       0.2592
     63  O         34.7560   -0.1410   -5.7220 O.2    34  LEU34      -0.2718
     64  CB        32.3950   -1.9440   -5.6890 C.3    34  LEU34       0.0284
     65  CG        31.5610   -3.1190   -6.2080 C.3    34  LEU34       0.0019
     66  CD1       30.2220   -2.6120   -6.7270 C.3    34  LEU34       0.0001
     67  CD2       32.3190   -3.8320   -7.3190 C.3    34  LEU34       0.0001
     68  N         34.9610   -0.8340   -3.5860 N.am   35  LYS35      -0.1966
     69  CA        35.7100    0.3400   -3.1420 C.3    35  LYS35       0.1728
     70  C         34.9940    1.6670   -3.3990 C.2    35  LYS35       0.2616
     71  O         35.6040    2.6190   -3.8770 O.2    35  LYS35      -0.2715
     72  CB        37.0860    0.3740   -3.8250 C.3    35  LYS35       0.0311
     73  CG        37.9780   -0.8310   -3.5610 C.3    35  LYS35       0.0038
     74  CD        39.3620   -0.5910   -4.1570 C.3    35  LYS35       0.0206
     75  CE        40.3170   -1.7540   -3.9120 C.3    35  LYS35       0.1093
     76  NZ        39.9780   -2.9450   -4.7330 N.3    35  LYS35      -0.1314
     77  N         33.7040    1.7330   -3.0810 N.am   36  LEU36      -0.1964
     78  CA        32.9240    2.9550   -3.2730 C.3    36  LEU36       0.1713
     79  C         32.5630    3.5290   -1.8910 C.2    36  LEU36       0.2458
     80  O         31.4390    3.3900   -1.4050 O.2    36  LEU36      -0.2730
     81  CB        31.6550    2.6430   -4.0700 C.3    36  LEU36       0.0310
     82  CG        31.8550    1.8480   -5.3600 C.3    36  LEU36       0.0022
     83  CD1       30.4830    1.4840   -5.9500 C.3    36  LEU36       0.0001
     84  CD2       32.6750    2.6590   -6.3450 C.3    36  LEU36       0.0001
     85  N         33.5220    4.1980   -1.2470 N.am   37  PRO37      -0.2716
     86  CA        33.3020    4.7790    0.0800 C.3    37  PRO37       0.1536
     87  C         32.1630    5.7940    0.2000 C.2    37  PRO37       0.2599
     88  O         31.6220    5.9980    1.2840 O.2    37  PRO37      -0.2715
     89  CB        34.6630    5.3900    0.4160 C.3    37  PRO37       0.0310
     90  CG        35.1940    5.7880   -0.9410 C.3    37  PRO37       0.0237
     91  CD        34.8380    4.5870   -1.7850 C.3    37  PRO37       0.0939
     92  N         31.7850    6.4200   -0.9050 N.am   38  ASP38      -0.1958
     93  CA        30.7330    7.4200   -0.8530 C.3    38  ASP38       0.1840
     94  C         29.3620    6.9430   -1.3300 C.2    38  ASP38       0.2622
     95  O         28.4210    7.7360   -1.3950 O.2    38  ASP38      -0.2715
     96  CB        31.1580    8.6280   -1.6830 C.3    38  ASP38       0.1450
     97  CG        31.4210    8.2700   -3.1280 C.2    38  ASP38       0.3671
     98  OD1       31.5750    7.0680   -3.4320 O.co2  38  ASP38      -0.2456
     99  OD2       31.4810    9.1870   -3.9600 O.co2  38  ASP38      -0.2456
    100  N         29.2380    5.6550   -1.6380 N.am   39  TYR39      -0.1974
    101  CA        27.9820    5.1300   -2.1660 C.3    39  TYR39       0.1639
    102  C         26.7250    5.3450   -1.3280 C.2    39  TYR39       0.2290
    103  O         25.7150    5.8140   -1.8340 O.2    39  TYR39      -0.2864
    104  CB        28.1040    3.6390   -2.4870 C.3    39  TYR39       0.0560
    105  CG        26.9310    3.1250   -3.2890 C.ar   39  TYR39      -0.0198
    106  CD1       26.8280    3.3860   -4.6580 C.ar   39  TYR39      -0.0009
    107  CD2       25.8820    2.4430   -2.6670 C.ar   39  TYR39      -0.0009
    108  CE1       25.7110    2.9870   -5.3880 C.ar   39  TYR39       0.0417
    109  CE2       24.7540    2.0410   -3.3860 C.ar   39  TYR39       0.0417
    110  CZ        24.6760    2.3170   -4.7460 C.ar   39  TYR39       0.1957
    111  OH        23.5620    1.9260   -5.4530 O.3    39  TYR39      -0.2866
    112  N         16.0990    1.5830   -8.5720 N.3    74  MET74      -0.1245
    113  CA        17.2910    0.8460   -8.9640 C.3    74  MET74       0.1570
    114  C         17.9730    1.5330  -10.1480 C.2    74  MET74       0.2261
    115  O         19.1970    1.6910  -10.1550 O.2    74  MET74      -0.2867
    116  CB        16.9260   -0.6010   -9.3250 C.3    74  MET74       0.0387
    117  CG        18.1180   -1.4800   -9.6820 C.3    74  MET74       0.0595
    118  SD        17.6470   -3.1630  -10.1850 S.3    74  MET74      -0.1393
    119  CE        17.1200   -2.8740  -11.8820 C.3    74  MET74       0.0692
    120  N         21.4980    4.1680  -10.0960 N.3    78  CYS78      -0.1235
    121  CA        22.6370    3.9310  -10.9710 C.3    78  CYS78       0.1677
    122  C         22.9790    5.2030  -11.7540 C.2    78  CYS78       0.2270
    123  O         24.1550    5.5270  -11.9690 O.2    78  CYS78      -0.2867
    124  CB        22.3230    2.7670  -11.9200 C.3    78  CYS78       0.0956
    125  SG        23.6710    2.2590  -13.0130 S.3    78  CYS78      -0.0801
    126  N         24.4850    7.9250   -9.0810 N.3    81  TYR81      -0.1227
    127  CA        25.8400    7.6340   -8.6430 C.3    81  TYR81       0.1736
    128  C         26.9290    7.5830   -9.7250 C.2    81  TYR81       0.2595
    129  O         28.0110    8.1610   -9.5600 O.2    81  TYR81      -0.2718
    130  CB        25.8740    6.3250   -7.8610 C.3    81  TYR81       0.0548
    131  CG        27.2340    6.0510   -7.2810 C.ar   81  TYR81      -0.0200
    132  CD1       27.6170    6.5990   -6.0520 C.ar   81  TYR81      -0.0009
    133  CD2       28.1700    5.2880   -7.9890 C.ar   81  TYR81      -0.0009
    134  CE1       28.9030    6.3950   -5.5460 C.ar   81  TYR81       0.0417
    135  CE2       29.4500    5.0800   -7.4970 C.ar   81  TYR81       0.0417
    136  CZ        29.8150    5.6360   -6.2770 C.ar   81  TYR81       0.1957
    137  OH        31.0940    5.4410   -5.8040 O.3    81  TYR81      -0.2866
    138  N         26.6580    6.8810  -10.8190 N.am   82  ASN82      -0.1960
    139  CA        27.6340    6.7460  -11.8910 C.3    82  ASN82       0.1819
    140  C         27.5470    7.8670  -12.9240 C.2    82  ASN82       0.2621
    141  O         26.5670    8.6100  -12.9750 O.2    82  ASN82      -0.2715
    142  CB        27.4560    5.3830  -12.5430 C.3    82  ASN82       0.1195
    143  CG        27.5860    4.2510  -11.5410 C.2    82  ASN82       0.2630
    144  OD1       28.6920    3.8960  -11.1410 O.2    82  ASN82      -0.2716
    145  ND2       26.4560    3.6910  -11.1160 N.am   82  ASN82      -0.0877
    146  N         28.5830    7.9930  -13.7450 N.am   83  LYS83      -0.1977
    147  CA        28.6420    9.0400  -14.7670 C.3    83  LYS83       0.1596
    148  C         28.1220    8.5440  -16.1030 C.2    83  LYS83       0.2287
    149  O         28.1980    7.3590  -16.4060 O.2    83  LYS83      -0.2864
    150  CB        30.0830    9.5310  -14.9410 C.3    83  LYS83       0.0298
    151  CG        30.7660    9.9350  -13.6370 C.3    83  LYS83       0.0038
    152  CD        32.2620   10.1950  -13.8110 C.3    83  LYS83       0.0206
    153  CE        32.5330   11.4020  -14.7020 C.3    83  LYS83       0.1093
    154  NZ        33.9930   11.7080  -14.7990 N.3    83  LYS83      -0.1314
    155  N         29.5250    5.5460  -18.5940 N.3    86  ASP86      -0.1225
    156  CA        30.0300    4.3780  -17.8840 C.3    86  ASP86       0.1805
    157  C         29.2710    3.1500  -18.3590 C.2    86  ASP86       0.2598
    158  O         28.1000    3.2420  -18.7260 O.2    86  ASP86      -0.2718
    159  CB        29.8310    4.5210  -16.3730 C.3    86  ASP86       0.1424
    160  CG        30.8350    5.4390  -15.7440 C.2    86  ASP86       0.3668
    161  OD1       31.6880    5.9820  -16.4740 O.co2  86  ASP86      -0.2456
    162  OD2       30.7770    5.6190  -14.5110 O.co2  86  ASP86      -0.2456
    163  N         29.9400    2.0030  -18.3370 N.am   87  ASP87      -0.1960
    164  CA        29.3250    0.7570  -18.7630 C.3    87  ASP87       0.1840
    165  C         28.0720    0.4090  -17.9560 C.2    87  ASP87       0.2621
    166  O         27.0530    0.0140  -18.5290 O.2    87  ASP87      -0.2715
    167  CB        30.3210   -0.4000  -18.6540 C.3    87  ASP87       0.1450
    168  CG        31.3850   -0.3690  -19.7360 C.2    87  ASP87       0.3671
    169  OD1       31.3240    0.5180  -20.6170 O.co2  87  ASP87      -0.2456
    170  OD2       32.2780   -1.2450  -19.7010 O.co2  87  ASP87      -0.2456
    171  N         28.1560    0.5530  -16.6310 N.am   88  ILE88      -0.1977
    172  CA        27.0350    0.2360  -15.7620 C.3    88  ILE88       0.1596
    173  C         25.7920    1.0250  -16.1670 C.2    88  ILE88       0.2287
    174  O         24.6770    0.5280  -16.0640 O.2    88  ILE88      -0.2864
    175  CB        27.3880    0.4930  -14.2480 C.3    88  ILE88       0.0276
    176  CG1       26.2830   -0.0650  -13.3420 C.3    88  ILE88       0.0022
    177  CG2       27.5370    1.9780  -13.9610 C.3    88  ILE88       0.0022
    178  CD1       26.3030   -1.5650  -13.1970 C.3    88  ILE88       0.0001
    179  N         24.2640   -0.3280  -19.3670 N.3    91  MET91      -0.1245
    180  CA        23.5680   -1.5550  -19.0040 C.3    91  MET91       0.1570
    181  C         22.2050   -1.2430  -18.3690 C.2    91  MET91       0.2261
    182  O         21.2030   -1.8730  -18.7010 O.2    91  MET91      -0.2867
    183  CB        24.4390   -2.3760  -18.0490 C.3    91  MET91       0.0387
    184  CG        25.7120   -2.9150  -18.7160 C.3    91  MET91       0.0595
    185  SD        26.9550   -3.6060  -17.5870 S.3    91  MET91      -0.1393
    186  CE        26.5260   -5.3520  -17.5900 C.3    91  MET91       0.0692
@<TRIPOS>BOND
     1    11    10   ar
     2    11     9   ar
     3    10     8   ar
     4     9     7   ar
     5     8     6   ar
     6     7     6   ar
     7     6     5    1
     8   169   168   ar
     9   168   170   ar
    10   168   167    1
    11     1     2    1
    12     5     2    1
    13   179   180    1
    14   180   181    1
    15   180   183    1
    16   164   167    1
    17   164   163    1
    18   164   165    1
    19     2     3    1
    20   158   157    2
    21   184   183    1
    22   184   185    1
    23   182   181    2
    24   155   156    1
    25   166   165    2
    26   157   163   am
    27   157   156    1
    28   165   171   am
    29   156   159    1
    30   186   185    1
    31     3     4    2
    32   171   172    1
    33    20    18   ar
    34    20    21   ar
    35   161   160   ar
    36   149   148    2
    37   159   160    1
    38   173   174    2
    39   173   172    1
    40   148   147    1
    41    18    17   ar
    42   172   175    1
    43   160   162   ar
    44    21    23   ar
    45    21    19   ar
    46    23    25   ar
    47   150   147    1
    48   150   151    1
    49   154   153    1
    50   147   146    1
    51    17    19   ar
    52    17    16    1
    53   153   152    1
    54    12    13    1
    55    42    43   ar
    56    42    40   ar
    57   175   177    1
    58   175   176    1
    59    19    22   ar
    60    32    31    1
    61    32    26    1
    62    31    30    1
    63    25    24   ar
    64    16    13    1
    65   152   151    1
    66    43    41   ar
    67   146   140   am
    68    40    38   ar
    69    13    14    1
    70   176   178    1
    71   125   124    1
    72   141   140    2
    73    22    24   ar
    74   140   139    1
    75    26    14   am
    76    26    27    1
    77    30    27    1
    78   142   139    1
    79   142   143    1
    80    41    39   ar
    81    14    15    2
    82    38    39   ar
    83    38    37    1
    84   123   122    2
    85   124   121    1
    86   139   138    1
    87   119   118    1
    88    27    28    1
    89   122   121    1
    90   143   144    2
    91   143   145   am
    92    37    34    1
    93    33    28   am
    94    33    34    1
    95   121   120    1
    96    28    29    2
    97   138   128   am
    98    34    35    1
    99   118   117    1
   100   115   114    2
   101   114   113    1
   102    35    36    2
   103   128   129    2
   104   128   127    1
   105   117   116    1
   106   116   113    1
   107   126   127    1
   108   113   112    1
   109   127   130    1
   110    51    50    2
   111    52    50   am
   112   133   135   ar
   113   133   131   ar
   114   130   131    1
   115    50    49    1
   116   135   136   ar
   117    67    65    1
   118   131   132   ar
   119    44    45    1
   120    66    65    1
   121    84    82    1
   122    59    57    1
   123   136   137    1
   124   136   134   ar
   125    47    46    2
   126    65    64    1
   127    49    48    1
   128   132   134   ar
   129    83    82    1
   130    45    48    1
   131    45    46    1
   132    63    62    2
   133    64    61    1
   134   111   110    1
   135   108   110   ar
   136   108   106   ar
   137    82    81    1
   138    61    62    1
   139    61    60    1
   140    58    57    1
   141    57    54    1
   142    62    68   am
   143   110   109   ar
   144    76    75    1
   145   106   105   ar
   146    54    53    1
   147    54    55    1
   148    74    75    1
   149    74    73    1
   150    81    78    1
   151    99    97   ar
   152    71    70    2
   153    72    73    1
   154    72    69    1
   155    68    69    1
   156    98    97   ar
   157    70    69    1
   158    70    77   am
   159   109   107   ar
   160    55    56    2
   161   105   107   ar
   162   105   104    1
   163    78    77    1
   164    78    79    1
   165    97    96    1
   166   104   101    1
   167   101   100    1
   168   101   102    1
   169    79    80    2
   170    79    85   am
   171   103   102    2
   172    91    85    1
   173    91    90    1
   174    96    93    1
   175   100    94   am
   176    95    94    2
   177    94    93    1
   178    85    86    1
   179    90    89    1
   180    92    93    1
   181    92    87   am
   182    86    87    1
   183    86    89    1
   184    87    88    2
