@<TRIPOS>MOLECULE
tmp/2wp2A00.pdb
 152 149 0 0 0
SMALL
GASTEIGER

@<TRIPOS>ATOM
      1  N          9.8360   23.8700   -5.1240 N.3    25  PHE25      -0.1241
      2  CA        10.9960   23.3850   -5.8730 C.3    25  PHE25       0.1605
      3  C         10.6170   22.8730   -7.2620 C.2    25  PHE25       0.2264
      4  O         11.4280   22.2300   -7.9300 O.2    25  PHE25      -0.2867
      5  CB        11.6900   22.2460   -5.1150 C.3    25  PHE25       0.0534
      6  CG        12.3120   22.6570   -3.8100 C.ar   25  PHE25      -0.0203
      7  CD1       12.5260   23.9920   -3.5080 C.ar   25  PHE25      -0.0042
      8  CD2       12.7270   21.6990   -2.9030 C.ar   25  PHE25      -0.0042
      9  CE1       13.1480   24.3680   -2.3210 C.ar   25  PHE25      -0.0003
     10  CE2       13.3540   22.0640   -1.7100 C.ar   25  PHE25      -0.0003
     11  CZ        13.5650   23.4060   -1.4220 C.ar   25  PHE25      -0.0000
     12  N          9.5000   24.8010  -10.0440 N.3    27  TRP27      -0.1228
     13  CA         9.6850   25.6900  -11.1900 C.3    27  TRP27       0.1722
     14  C         10.6700   25.2360  -12.2680 C.2    27  TRP27       0.2437
     15  O         10.4370   25.4850  -13.4560 O.2    27  TRP27      -0.2733
     16  CB        10.0320   27.1210  -10.7430 C.3    27  TRP27       0.0563
     17  CG        11.2960   27.2720   -9.9600 C.ar   27  TRP27       0.0003
     18  CD1       11.4530   27.1160   -8.6120 C.ar   27  TRP27       0.0946
     19  CD2       12.5780   27.6450  -10.4750 C.ar   27  TRP27       0.0152
     20  NE1       12.7530   27.3760   -8.2540 N.ar   27  TRP27      -0.2442
     21  CE2       13.4670   27.7030   -9.3740 C.ar   27  TRP27       0.0810
     22  CE3       13.0640   27.9400  -11.7580 C.ar   27  TRP27       0.0012
     23  CZ2       14.8200   28.0470   -9.5180 C.ar   27  TRP27       0.0191
     24  CZ3       14.4130   28.2830  -11.9030 C.ar   27  TRP27       0.0001
     25  CH2       15.2740   28.3340  -10.7840 C.ar   27  TRP27       0.0015
     26  N         11.7760   24.5660  -11.8820 N.am   28  PRO28      -0.2718
     27  CA        12.7530   24.1090  -12.8800 C.3    28  PRO28       0.1535
     28  C         12.2190   22.9570  -13.7370 C.2    28  PRO28       0.2598
     29  O         12.7590   22.6480  -14.7990 O.2    28  PRO28      -0.2715
     30  CB        13.9360   23.6490  -12.0230 C.3    28  PRO28       0.0310
     31  CG        13.7810   24.4300  -10.7510 C.3    28  PRO28       0.0237
     32  CD        12.3010   24.3630  -10.5210 C.3    28  PRO28       0.0939
     33  N         11.1470   22.3290  -13.2730 N.am   29  PHE29      -0.1974
     34  CA        10.5740   21.1860  -13.9660 C.3    29  PHE29       0.1639
     35  C          9.2360   21.4780  -14.6260 C.2    29  PHE29       0.2290
     36  O          8.6400   20.5940  -15.2350 O.2    29  PHE29      -0.2864
     37  CB        10.4060   20.0400  -12.9680 C.3    29  PHE29       0.0560
     38  CG        11.6510   19.7340  -12.1900 C.ar   29  PHE29      -0.0200
     39  CD1       12.6140   18.8700  -12.7060 C.ar   29  PHE29      -0.0042
     40  CD2       11.8780   20.3330  -10.9480 C.ar   29  PHE29      -0.0042
     41  CE1       13.7960   18.6050  -11.9930 C.ar   29  PHE29      -0.0003
     42  CE2       13.0450   20.0800  -10.2300 C.ar   29  PHE29      -0.0003
     43  CZ        14.0100   19.2140  -10.7500 C.ar   29  PHE29      -0.0000
     44  N         13.3930   21.5460  -20.7920 N.3    33  VAL33      -0.1245
     45  CA        14.6930   22.1990  -20.6940 C.3    33  VAL33       0.1561
     46  C         15.1160   22.8580  -22.0110 C.2    33  VAL33       0.2260
     47  O         15.0070   22.2690  -23.0900 O.2    33  VAL33      -0.2867
     48  CB        15.8010   21.2050  -20.2740 C.3    33  VAL33       0.0252
     49  CG1       17.1670   21.8610  -20.4250 C.3    33  VAL33       0.0019
     50  CG2       15.5950   20.7790  -18.8210 C.3    33  VAL33       0.0019
     51  N         19.9090   27.9930  -21.2520 N.3    38  LEU38      -0.1245
     52  CA        20.5630   27.5350  -20.0310 C.3    38  LEU38       0.1561
     53  C         22.0160   27.1460  -20.3030 C.2    38  LEU38       0.2260
     54  O         22.7150   26.6800  -19.4090 O.2    38  LEU38      -0.2867
     55  CB        19.8170   26.3340  -19.4370 C.3    38  LEU38       0.0270
     56  CG        18.3500   26.5490  -19.0410 C.3    38  LEU38       0.0019
     57  CD1       17.8210   25.2950  -18.3650 C.3    38  LEU38       0.0001
     58  CD2       18.2300   27.7380  -18.1080 C.3    38  LEU38       0.0001
     59  N         23.5450   24.6040  -22.0040 N.3    40  LEU40      -0.1245
     60  CA        23.8270   23.2110  -21.6990 C.3    40  LEU40       0.1561
     61  C         23.9520   22.4960  -23.0430 C.2    40  LEU40       0.2260
     62  O         23.0170   21.8260  -23.4850 O.2    40  LEU40      -0.2867
     63  CB        22.6750   22.6170  -20.8980 C.3    40  LEU40       0.0270
     64  CG        22.2250   23.4030  -19.6620 C.3    40  LEU40       0.0019
     65  CD1       20.9830   22.7450  -19.0720 C.3    40  LEU40       0.0001
     66  CD2       23.3570   23.4560  -18.6360 C.3    40  LEU40       0.0001
     67  N         23.2220   18.5990  -23.0420 N.3    43  TYR43      -0.1241
     68  CA        21.9340   18.1040  -22.5510 C.3    43  TYR43       0.1605
     69  C         21.2170   17.0890  -23.4370 C.2    43  TYR43       0.2264
     70  O         20.9560   15.9700  -23.0070 O.2    43  TYR43      -0.2867
     71  CB        20.9600   19.2570  -22.2580 C.3    43  TYR43       0.0534
     72  CG        19.7780   18.8010  -21.4250 C.ar   43  TYR43      -0.0201
     73  CD1       19.8850   18.6790  -20.0310 C.ar   43  TYR43      -0.0009
     74  CD2       18.5830   18.3990  -22.0290 C.ar   43  TYR43      -0.0009
     75  CE1       18.8290   18.1650  -19.2690 C.ar   43  TYR43       0.0417
     76  CE2       17.5340   17.8860  -21.2840 C.ar   43  TYR43       0.0417
     77  CZ        17.6590   17.7630  -19.9050 C.ar   43  TYR43       0.1957
     78  OH        16.6280   17.2020  -19.1660 O.3    43  TYR43      -0.2866
     79  N         17.1070   14.1720  -14.6800 N.3    82  CYS82      -0.1235
     80  CA        17.7710   15.1220  -13.8050 C.3    82  CYS82       0.1677
     81  C         19.0040   14.4950  -13.1330 C.2    82  CYS82       0.2270
     82  O         20.0990   15.0660  -13.1720 O.2    82  CYS82      -0.2867
     83  CB        16.7940   15.6220  -12.7430 C.3    82  CYS82       0.0956
     84  SG        17.4420   16.9360  -11.6940 S.3    82  CYS82      -0.0801
     85  N         21.8350   13.6820  -15.9070 N.3    85  TYR85      -0.1227
     86  CA        22.5250   14.8460  -16.4540 C.3    85  TYR85       0.1736
     87  C         23.3510   15.6710  -15.4650 C.2    85  TYR85       0.2595
     88  O         24.4880   16.0470  -15.7610 O.2    85  TYR85      -0.2718
     89  CB        21.5390   15.7940  -17.1370 C.3    85  TYR85       0.0548
     90  CG        22.2420   16.9900  -17.7210 C.ar   85  TYR85      -0.0200
     91  CD1       22.9700   16.8810  -18.9080 C.ar   85  TYR85      -0.0009
     92  CD2       22.2750   18.2100  -17.0360 C.ar   85  TYR85      -0.0009
     93  CE1       23.7180   17.9450  -19.3920 C.ar   85  TYR85       0.0417
     94  CE2       23.0220   19.2790  -17.5120 C.ar   85  TYR85       0.0417
     95  CZ        23.7420   19.1370  -18.6860 C.ar   85  TYR85       0.1957
     96  OH        24.5130   20.1820  -19.1410 O.3    85  TYR85      -0.2866
     97  N         22.7690   15.9600  -14.3050 N.am   86  ASN86      -0.1960
     98  CA        23.4280   16.7730  -13.2900 C.3    86  ASN86       0.1819
     99  C         24.2950   15.9910  -12.3030 C.2    86  ASN86       0.2621
    100  O         24.2540   14.7630  -12.2570 O.2    86  ASN86      -0.2715
    101  CB        22.3670   17.5700  -12.5390 C.3    86  ASN86       0.1195
    102  CG        21.5120   18.4080  -13.4690 C.2    86  ASN86       0.2630
    103  OD1       21.9420   19.4600  -13.9440 O.2    86  ASN86      -0.2716
    104  ND2       20.3020   17.9350  -13.7520 N.am   86  ASN86      -0.0877
    105  N         25.0780   16.7160  -11.5120 N.am   87  LYS87      -0.1977
    106  CA        25.9670   16.0980  -10.5290 C.3    87  LYS87       0.1596
    107  C         25.3000   16.0420   -9.1670 C.2    87  LYS87       0.2287
    108  O         24.4340   16.8570   -8.8620 O.2    87  LYS87      -0.2864
    109  CB        27.2630   16.8990  -10.4170 C.3    87  LYS87       0.0298
    110  CG        27.9290   17.1810  -11.7510 C.3    87  LYS87       0.0038
    111  CD        29.2110   17.9870  -11.5830 C.3    87  LYS87       0.0206
    112  CE        30.2580   17.2170  -10.7780 C.3    87  LYS87       0.1093
    113  NZ        31.5590   17.9540  -10.6800 N.3    87  LYS87      -0.1314
    114  N         24.3240   19.0360   -6.5180 N.3    90  ASP90      -0.1225
    115  CA        23.7810   20.2000   -7.2050 C.3    90  ASP90       0.1805
    116  C         22.4040   20.5410   -6.6250 C.2    90  ASP90       0.2598
    117  O         21.6750   19.6670   -6.1760 O.2    90  ASP90      -0.2718
    118  CB        23.6670   19.9290   -8.7080 C.3    90  ASP90       0.1424
    119  CG        24.9830   20.1100   -9.4350 C.2    90  ASP90       0.3668
    120  OD1       26.0430   20.0570   -8.7700 O.co2  90  ASP90      -0.2456
    121  OD2       24.9670   20.2940  -10.6760 O.co2  90  ASP90      -0.2456
    122  N         22.0700   21.8220   -6.6340 N.am   91  ASP91      -0.1960
    123  CA        20.7950   22.2960   -6.1210 C.3    91  ASP91       0.1840
    124  C         19.6070   21.6080   -6.7800 C.2    91  ASP91       0.2621
    125  O         18.6880   21.1470   -6.0960 O.2    91  ASP91      -0.2715
    126  CB        20.6690   23.8040   -6.3330 C.3    91  ASP91       0.1450
    127  CG        21.3840   24.6020   -5.2720 C.2    91  ASP91       0.3671
    128  OD1       22.1310   23.9980   -4.4730 O.co2  91  ASP91      -0.2456
    129  OD2       21.1970   25.8380   -5.2390 O.co2  91  ASP91      -0.2456
    130  N         19.6270   21.5230   -8.1070 N.am   92  ILE92      -0.1977
    131  CA        18.5050   20.9110   -8.8010 C.3    92  ILE92       0.1596
    132  C         18.2920   19.4420   -8.4220 C.2    92  ILE92       0.2287
    133  O         17.1540   18.9850   -8.3660 O.2    92  ILE92      -0.2864
    134  CB        18.6340   21.0660  -10.3430 C.3    92  ILE92       0.0276
    135  CG1       17.2850   20.7040  -10.9840 C.3    92  ILE92       0.0022
    136  CG2       19.7720   20.2060  -10.8840 C.3    92  ILE92       0.0022
    137  CD1       17.0630   21.2930  -12.3640 C.3    92  ILE92       0.0001
    138  N         18.9230   18.0820   -5.4640 N.3    94  VAL94      -0.1231
    139  CA        18.2820   18.1180   -4.1580 C.3    94  VAL94       0.1692
    140  C         16.8000   18.4340   -4.3470 C.2    94  VAL94       0.2591
    141  O         15.9420   17.8870   -3.6600 O.2    94  VAL94      -0.2718
    142  CB        18.8780   19.2170   -3.2570 C.3    94  VAL94       0.0266
    143  CG1       18.0860   19.3030   -1.9460 C.3    94  VAL94       0.0020
    144  CG2       20.3540   18.9290   -2.9800 C.3    94  VAL94       0.0020
    145  N         16.5000   19.3200   -5.2900 N.am   95  MET95      -0.1979
    146  CA        15.1190   19.7000   -5.5320 C.3    95  MET95       0.1605
    147  C         14.3250   18.5360   -6.1230 C.2    95  MET95       0.2287
    148  O         13.1670   18.3210   -5.7740 O.2    95  MET95      -0.2864
    149  CB        15.0680   20.9300   -6.4450 C.3    95  MET95       0.0413
    150  CG        15.6560   22.1920   -5.7940 C.3    95  MET95       0.0598
    151  SD        16.0140   23.5570   -6.9520 S.3    95  MET95      -0.1393
    152  CE        14.3890   24.3240   -7.1360 C.3    95  MET95       0.0692
@<TRIPOS>BOND
     1    62    61    2
     2    69    70    2
     3    69    68    1
     4    47    46    2
     5    61    60    1
     6    67    68    1
     7    68    71    1
     8    71    72    1
     9    74    72   ar
    10    74    76   ar
    11    46    45    1
    12    59    60    1
    13    60    63    1
    14    72    73   ar
    15    76    77   ar
    16    51    52    1
    17    63    64    1
    18    44    45    1
    19    45    48    1
    20    49    48    1
    21    53    52    1
    22    53    54    2
    23    48    50    1
    24    52    55    1
    25    73    75   ar
    26    77    75   ar
    27    77    78    1
    28    64    65    1
    29    64    66    1
    30    55    56    1
    31    93    91   ar
    32    93    95   ar
    33    96    95    1
    34    56    57    1
    35    56    58    1
    36    91    90   ar
    37    95    94   ar
    38    90    89    1
    39    90    92   ar
    40    94    92   ar
    41    89    86    1
    42    86    85    1
    43    86    87    1
    44    88    87    2
    45    87    97   am
    46    36    35    2
    47    29    28    2
    48    79    80    1
    49    35    34    1
    50    97    98    1
    51    34    33    1
    52    34    37    1
    53   103   102    2
    54    80    81    1
    55    80    83    1
    56   104   102   am
    57    28    33   am
    58    28    27    1
    59   102   101    1
    60    15    14    2
    61    98   101    1
    62    98    99    1
    63    82    81    2
    64    37    38    1
    65    27    30    1
    66    27    26    1
    67    83    84    1
    68    39    38   ar
    69    39    41   ar
    70   137   135    1
    71    99   100    2
    72    99   105   am
    73    14    26   am
    74    14    13    1
    75    38    40   ar
    76    30    31    1
    77    41    43   ar
    78    24    22   ar
    79    24    25   ar
    80    26    32    1
    81    22    19   ar
    82   110   111    1
    83   110   109    1
    84   111   112    1
    85   105   106    1
    86    13    16    1
    87    13    12    1
    88   135   134    1
    89    40    42   ar
    90   136   134    1
    91    25    23   ar
    92   112   113    1
    93    31    32    1
    94    43    42   ar
    95    16    17    1
    96   121   119   ar
    97   106   109    1
    98   106   107    1
    99    19    17   ar
   100    19    21   ar
   101   134   131    1
   102    17    18   ar
   103    23    21   ar
   104   119   120   ar
   105   119   118    1
   106    21    20   ar
   107   107   108    2
   108   131   132    1
   109   131   130    1
   110   118   115    1
   111    18    20   ar
   112   132   133    2
   113   130   124   am
   114     4     3    2
   115     3     2    1
   116   115   116    1
   117   115   114    1
   118   152   151    1
   119   151   150    1
   120   124   123    1
   121   124   125    2
   122   122   116   am
   123   122   123    1
   124   116   117    2
   125   149   150    1
   126   149   146    1
   127   126   123    1
   128   126   127    1
   129   147   148    2
   130   147   146    1
   131     2     1    1
   132     2     5    1
   133   146   145    1
   134   138   139    1
   135   145   140   am
   136   127   129   ar
   137   127   128   ar
   138     5     6    1
   139   140   139    1
   140   140   141    2
   141   139   142    1
   142     6     7   ar
   143     6     8   ar
   144     7     9   ar
   145   142   144    1
   146   142   143    1
   147     8    10   ar
   148     9    11   ar
   149    10    11   ar
