@<TRIPOS>MOLECULE
tmp/2wp5A01.pdb
 111 106 0 0 0
SMALL
GASTEIGER

@<TRIPOS>ATOM
      1  N        -23.1800  -25.8450   52.4990 N.3    14  GLY14      -0.1210
      2  CA       -23.8740  -24.8550   53.3080 C.3    14  GLY14       0.1956
      3  C        -24.8560  -25.5530   54.2040 C.2    14  GLY14       0.2612
      4  O        -24.7690  -26.7790   54.4080 O.2    14  GLY14      -0.2717
      5  N        -25.8150  -24.7630   54.6860 N.am   15  SER15      -0.1952
      6  CA       -26.8350  -25.1720   55.6420 C.3    15  SER15       0.1924
      7  C        -27.6060  -26.3950   55.2250 C.2    15  SER15       0.2314
      8  O        -27.7160  -27.3210   55.9990 O.2    15  SER15      -0.2863
      9  CB       -27.7940  -24.0100   55.8740 C.3    15  SER15       0.2116
     10  OG       -27.2000  -23.0660   56.7600 O.3    15  SER15      -0.2180
     11  N        -24.7590  -29.6160   53.8710 N.3    18  LEU18      -0.1231
     12  CA       -24.2140  -30.3060   55.0330 C.3    18  LEU18       0.1693
     13  C        -25.2200  -31.1540   55.8290 C.2    18  LEU18       0.2591
     14  O        -24.8530  -32.2250   56.3120 O.2    18  LEU18      -0.2718
     15  CB       -23.5330  -29.3280   55.9500 C.3    18  LEU18       0.0284
     16  CG       -22.2810  -28.7390   55.3380 C.3    18  LEU18       0.0019
     17  CD1      -21.5050  -28.1170   56.4780 C.3    18  LEU18       0.0001
     18  CD2      -21.4520  -29.8150   54.5800 C.3    18  LEU18       0.0001
     19  N        -26.4740  -30.7160   55.9560 N.am   19  GLU19      -0.1979
     20  CA       -27.4610  -31.5550   56.6520 C.3    19  GLU19       0.1602
     21  C        -27.8370  -32.7350   55.7740 C.2    19  GLU19       0.2287
     22  O        -27.9120  -33.8440   56.2510 O.2    19  GLU19      -0.2864
     23  CB       -28.7260  -30.7850   57.0990 C.3    19  GLU19       0.0415
     24  CG       -29.7390  -31.6260   57.8980 C.3    19  GLU19       0.1163
     25  CD       -29.2690  -31.9160   59.3110 C.2    19  GLU19       0.3649
     26  OE1      -28.3530  -31.2080   59.7690 O.co2  19  GLU19      -0.2457
     27  OE2      -29.7990  -32.8290   59.9870 O.co2  19  GLU19      -0.2457
     28  N        -26.0670  -34.1040   53.5590 N.3    21  GLY21      -0.1210
     29  CA       -24.8960  -34.9410   53.5150 C.3    21  GLY21       0.1956
     30  C        -24.6490  -35.7110   54.7900 C.2    21  GLY21       0.2612
     31  O        -24.4120  -36.9030   54.7520 O.2    21  GLY21      -0.2717
     32  N        -24.6780  -35.0240   55.9230 N.am   22  TRP22      -0.1962
     33  CA       -24.3230  -35.6490   57.1690 C.3    22  TRP22       0.1771
     34  C        -25.3140  -36.7630   57.4900 C.2    22  TRP22       0.2619
     35  O        -24.9360  -37.8590   57.9550 O.2    22  TRP22      -0.2715
     36  CB       -24.2620  -34.6050   58.2650 C.3    22  TRP22       0.0590
     37  CG       -24.1220  -35.1750   59.6070 C.ar   22  TRP22       0.0006
     38  CD1      -25.1490  -35.5730   60.4590 C.ar   22  TRP22       0.0946
     39  CD2      -22.9020  -35.4180   60.3050 C.ar   22  TRP22       0.0152
     40  NE1      -24.6190  -36.0540   61.6370 N.ar   22  TRP22      -0.2442
     41  CE2      -23.2450  -35.9730   61.5720 C.ar   22  TRP22       0.0810
     42  CE3      -21.5450  -35.2260   59.9900 C.ar   22  TRP22       0.0012
     43  CZ2      -22.2750  -36.3420   62.5150 C.ar   22  TRP22       0.0191
     44  CZ3      -20.5720  -35.5850   60.9290 C.ar   22  TRP22       0.0001
     45  CH2      -20.9480  -36.1440   62.1760 C.ar   22  TRP22       0.0015
     46  N        -26.5820  -36.4800   57.2270 N.am   23  ASN23      -0.1972
     47  CA       -27.6480  -37.4250   57.4440 C.3    23  ASN23       0.1688
     48  C        -27.5820  -38.6750   56.6030 C.2    23  ASN23       0.2292
     49  O        -27.9120  -39.7380   57.0990 O.2    23  ASN23      -0.2864
     50  CB       -28.9670  -36.7440   57.2590 C.3    23  ASN23       0.1181
     51  CG       -29.4170  -36.0680   58.5090 C.2    23  ASN23       0.2629
     52  OD1      -28.6230  -35.8470   59.4340 O.2    23  ASN23      -0.2716
     53  ND2      -30.7020  -35.7440   58.5680 N.am   23  ASN23      -0.0877
     54  N        -19.4060  -24.3910   55.2460 N.3    50  GLY50      -0.1225
     55  CA       -20.2950  -24.0010   56.3370 C.3    50  GLY50       0.1811
     56  C        -21.4850  -23.2750   55.7680 C.2    50  GLY50       0.2280
     57  O        -22.5810  -23.2880   56.3390 O.2    50  GLY50      -0.2866
     58  N        -22.8600  -19.4240   58.0870 N.3    54  VAL54      -0.1245
     59  CA       -21.6740  -19.4970   58.9400 C.3    54  VAL54       0.1561
     60  C        -20.5680  -18.4810   58.5890 C.2    54  VAL54       0.2260
     61  O        -19.9190  -17.8950   59.4700 O.2    54  VAL54      -0.2867
     62  CB       -21.0750  -20.9230   58.9530 C.3    54  VAL54       0.0252
     63  CG1      -19.7440  -20.9150   59.6860 C.3    54  VAL54       0.0019
     64  CG2      -22.0640  -21.9580   59.5760 C.3    54  VAL54       0.0019
     65  N        -15.5040  -28.0370   60.8910 N.3   111  TYR111     -0.1241
     66  CA       -16.2570  -28.8100   59.9400 C.3   111  TYR111      0.1605
     67  C        -15.2680  -29.5520   59.1080 C.2   111  TYR111      0.2264
     68  O        -15.5410  -30.6450   58.6590 O.2   111  TYR111     -0.2867
     69  CB       -17.1060  -27.9070   59.0470 C.3   111  TYR111      0.0534
     70  CG       -18.2900  -27.3210   59.7390 C.ar  111  TYR111     -0.0201
     71  CD1      -18.7270  -27.8390   60.9480 C.ar  111  TYR111     -0.0009
     72  CD2      -19.0080  -26.2790   59.1590 C.ar  111  TYR111     -0.0009
     73  CE1      -19.8180  -27.3330   61.5790 C.ar  111  TYR111      0.0417
     74  CE2      -20.1230  -25.7540   59.7810 C.ar  111  TYR111      0.0417
     75  CZ       -20.5220  -26.2920   61.0000 C.ar  111  TYR111      0.1957
     76  OH       -21.6220  -25.7930   61.6710 O.3   111  TYR111     -0.2866
     77  N        -14.5460  -32.7170   60.7130 N.3   114  MET114     -0.1230
     78  CA       -15.6940  -33.6310   60.6880 C.3   114  MET114      0.1702
     79  C        -15.7010  -34.4840   59.4090 C.2   114  MET114      0.2592
     80  O        -15.9420  -35.6710   59.4670 O.2   114  MET114     -0.2718
     81  CB       -17.0250  -32.8660   60.9070 C.3   114  MET114      0.0401
     82  CG       -17.4140  -32.7100   62.3800 C.3   114  MET114      0.0596
     83  SD       -18.6930  -31.4710   62.7340 S.3   114  MET114     -0.1393
     84  CE       -18.1060  -30.8020   64.3110 C.3   114  MET114      0.0692
     85  N        -15.4240  -33.8580   58.2630 N.am  115  PHE115     -0.1976
     86  CA       -15.2780  -34.5710   56.9710 C.3   115  PHE115      0.1639
     87  C        -14.2260  -35.6580   57.0680 C.2   115  PHE115      0.2290
     88  O        -14.5230  -36.8230   56.8420 O.2   115  PHE115     -0.2864
     89  CB       -14.9660  -33.6090   55.7900 C.3   115  PHE115      0.0560
     90  CG       -16.2040  -33.0260   55.1450 C.ar  115  PHE115     -0.0200
     91  CD1      -16.9630  -33.7700   54.2540 C.ar  115  PHE115     -0.0042
     92  CD2      -16.6380  -31.7400   55.4610 C.ar  115  PHE115     -0.0042
     93  CE1      -18.1240  -33.2290   53.6750 C.ar  115  PHE115     -0.0003
     94  CE2      -17.7980  -31.2050   54.8850 C.ar  115  PHE115     -0.0003
     95  CZ       -18.5340  -31.9540   53.9950 C.ar  115  PHE115     -0.0000
     96  N        -18.4110  -39.6480   53.9120 N.3   121  LEU121     -0.1245
     97  CA       -18.6930  -38.2220   53.7890 C.3   121  LEU121      0.1561
     98  C        -17.4030  -37.4970   53.3880 C.2   121  LEU121      0.2260
     99  O        -16.5420  -37.2580   54.2190 O.2   121  LEU121     -0.2867
    100  CB       -19.2200  -37.6850   55.1080 C.3   121  LEU121      0.0270
    101  CG       -19.7420  -36.2530   55.0860 C.3   121  LEU121      0.0019
    102  CD1      -20.9640  -36.1890   54.1730 C.3   121  LEU121      0.0001
    103  CD2      -20.0940  -35.7370   56.4910 C.3   121  LEU121      0.0001
    104  N        -32.0000  -26.5860   56.2760 N.3   340  ILE340     -0.1245
    105  CA       -31.5830  -27.7840   57.0240 C.3   340  ILE340      0.1561
    106  C        -32.6560  -28.9000   57.0790 C.2   340  ILE340      0.2260
    107  O        -32.3430  -30.0760   56.8510 O.2   340  ILE340     -0.2867
    108  CB       -31.0980  -27.4090   58.4490 C.3   340  ILE340      0.0252
    109  CG1      -29.7460  -26.6940   58.3580 C.3   340  ILE340      0.0019
    110  CG2      -31.0250  -28.6290   59.3290 C.3   340  ILE340      0.0019
    111  CD1      -29.2430  -26.0930   59.6650 C.3   340  ILE340      0.0001
@<TRIPOS>BOND
     1     1     2    1
     2     2     3    1
     3    98    97    1
     4    98    99    2
     5    29    28    1
     6    29    30    1
     7    93    95   ar
     8    93    91   ar
     9    97    96    1
    10    97   100    1
    11    11    12    1
    12    95    94   ar
    13   102   101    1
    14     3     4    2
    15     3     5   am
    16    91    90   ar
    17    18    16    1
    18     5     6    1
    19    31    30    2
    20    30    32   am
    21    94    92   ar
    22    12    13    1
    23    12    15    1
    24   101   100    1
    25   101   103    1
    26    90    92   ar
    27    90    89    1
    28     7     6    1
    29     7     8    2
    30    54    55    1
    31    16    15    1
    32    16    17    1
    33     6     9    1
    34    56    55    1
    35    56    57    2
    36    21    22    2
    37    21    20    1
    38    89    86    1
    39    13    19   am
    40    13    14    2
    41     9    10    1
    42    32    33    1
    43    19    20    1
    44   104   105    1
    45    48    49    2
    46    48    47    1
    47    20    23    1
    48    88    87    2
    49   107   106    2
    50    86    87    1
    51    86    85    1
    52   105   106    1
    53   105   108    1
    54    23    24    1
    55    33    34    1
    56    33    36    1
    57    46    47    1
    58    46    34   am
    59    50    47    1
    60    50    51    1
    61    34    35    2
    62    24    25    1
    63    58    59    1
    64    85    79   am
    65    36    37    1
    66   109   108    1
    67   109   111    1
    68   108   110    1
    69    51    53   am
    70    51    52    2
    71    60    59    1
    72    60    61    2
    73    68    67    2
    74    59    62    1
    75    62    64    1
    76    62    63    1
    77    69    70    1
    78    69    66    1
    79    67    66    1
    80    72    70   ar
    81    72    74   ar
    82    25    26   ar
    83    25    27   ar
    84    79    80    2
    85    79    78    1
    86    37    39   ar
    87    37    38   ar
    88    70    71   ar
    89    74    75   ar
    90    66    65    1
    91    42    39   ar
    92    42    44   ar
    93    39    41   ar
    94    38    40   ar
    95    78    77    1
    96    78    81    1
    97    81    82    1
    98    44    45   ar
    99    71    73   ar
   100    75    73   ar
   101    75    76    1
   102    41    40   ar
   103    41    43   ar
   104    45    43   ar
   105    82    83    1
   106    83    84    1
