@<TRIPOS>MOLECULE
tmp/2wp5A02.pdb
 95 92 0 0 0
SMALL
GASTEIGER

@<TRIPOS>ATOM
      1  N        -25.8810  -11.6660   46.6570 N.3   165  PRO165     -0.2102
      2  CA       -26.5430  -10.3430   46.5930 C.3   165  PRO165      0.1504
      3  C        -26.7820   -9.8480   45.1770 C.2   165  PRO165      0.2575
      4  O        -25.9280   -9.9600   44.3270 O.2   165  PRO165     -0.2718
      5  CB       -25.5910   -9.4190   47.3570 C.3   165  PRO165      0.0282
      6  CG       -24.6360  -10.3340   48.0980 C.3   165  PRO165      0.0208
      7  CD       -24.5410  -11.5710   47.2750 C.3   165  PRO165      0.0893
      8  N        -27.9850   -9.3450   44.9490 N.am  166  GLN166     -0.1980
      9  CA       -28.3880   -8.6720   43.7030 C.3   166  GLN166      0.1601
     10  C        -27.7980   -7.2680   43.7150 C.2   166  GLN166      0.2287
     11  O        -28.0280   -6.5340   44.6800 O.2   166  GLN166     -0.2864
     12  CB       -29.9120   -8.5550   43.7070 C.3   166  GLN166      0.0394
     13  CG       -30.5910   -8.2270   42.3900 C.3   166  GLN166      0.0908
     14  CD       -32.1570   -8.2070   42.5000 C.2   166  GLN166      0.2608
     15  OE1      -32.7420   -7.8660   43.5600 O.2   166  GLN166     -0.2717
     16  NE2      -32.8230   -8.5830   41.3990 N.am  166  GLN166     -0.0878
     17  N        -23.3610   -7.1650   51.5130 N.3   179  SER179     -0.1217
     18  CA       -23.1310   -7.7410   52.8490 C.3   179  SER179      0.1889
     19  C        -21.7090   -8.3520   52.9150 C.2   179  SER179      0.2288
     20  O        -20.9810   -8.1830   53.8950 O.2   179  SER179     -0.2866
     21  CB       -24.2260   -8.7420   53.2440 C.3   179  SER179      0.2089
     22  OG       -24.7200   -9.4710   52.1130 O.3   179  SER179     -0.2183
     23  N        -35.0960   -4.4560   53.8870 N.3   198  GLY198     -0.1210
     24  CA       -35.2220   -5.7790   54.5150 C.3   198  GLY198      0.1956
     25  C        -34.2600   -6.0270   55.6660 C.2   198  GLY198      0.2612
     26  O        -33.5010   -5.1280   56.0540 O.2   198  GLY198     -0.2717
     27  N        -34.2820   -7.2350   56.2170 N.am  199  PHE199     -0.1962
     28  CA       -33.5560   -7.5080   57.4490 C.3   199  PHE199      0.1771
     29  C        -32.0770   -7.2440   57.3870 C.2   199  PHE199      0.2619
     30  O        -31.5330   -6.7270   58.3500 O.2   199  PHE199     -0.2715
     31  CB       -33.8160   -8.9230   58.0050 C.3   199  PHE199      0.0574
     32  CG       -33.1680  -10.0090   57.2430 C.ar  199  PHE199     -0.0200
     33  CD1      -33.6710  -10.4110   56.0070 C.ar  199  PHE199     -0.0042
     34  CD2      -32.0900  -10.6510   57.7600 C.ar  199  PHE199     -0.0042
     35  CE1      -33.0860  -11.4380   55.2780 C.ar  199  PHE199     -0.0003
     36  CE2      -31.5040  -11.6940   57.0660 C.ar  199  PHE199     -0.0003
     37  CZ       -32.0150  -12.0900   55.7980 C.ar  199  PHE199     -0.0000
     38  N        -31.4370   -7.5780   56.2610 N.am  200  ILE200     -0.1963
     39  CA       -30.0020   -7.2770   56.0460 C.3   200  ILE200      0.1727
     40  C        -29.6320   -5.7580   56.1200 C.2   200  ILE200      0.2616
     41  O        -28.7030   -5.3810   56.7890 O.2   200  ILE200     -0.2715
     42  CB       -29.4910   -7.9650   54.7670 C.3   200  ILE200      0.0290
     43  CG1      -29.4750   -9.4780   55.0010 C.3   200  ILE200      0.0022
     44  CG2      -28.1070   -7.5170   54.4300 C.3   200  ILE200      0.0023
     45  CD1      -29.3430  -10.3410   53.7640 C.3   200  ILE200      0.0001
     46  N        -30.3850   -4.9000   55.4500 N.am  201  SER201     -0.1950
     47  CA       -30.1350   -3.4840   55.4500 C.3   201  SER201      0.1924
     48  C        -30.3320   -2.9270   56.8480 C.2   201  SER201      0.2314
     49  O        -29.5070   -2.1590   57.3680 O.2   201  SER201     -0.2863
     50  CB       -31.1190   -2.8260   54.5100 C.3   201  SER201      0.2116
     51  OG       -30.7890   -1.4710   54.3560 O.3   201  SER201     -0.2180
     52  N        -25.1390   -2.0810   49.2350 N.3   284  MET284     -0.1230
     53  CA       -26.3320   -2.6240   48.5650 C.3   284  MET284      0.1702
     54  C        -26.9440   -3.8480   49.2580 C.2   284  MET284      0.2592
     55  O        -26.2460   -4.7840   49.5820 O.2   284  MET284     -0.2718
     56  CB       -26.0460   -2.9140   47.0970 C.3   284  MET284      0.0401
     57  CG       -25.9500   -1.6680   46.2310 C.3   284  MET284      0.0596
     58  SD       -27.5140   -0.8370   45.9100 S.3   284  MET284     -0.1393
     59  CE       -27.0190    0.6750   45.0160 C.3   284  MET284      0.0692
     60  N        -28.2520   -3.8160   49.4930 N.am  285  ALA285     -0.1966
     61  CA       -28.9450   -4.8900   50.1920 C.3   285  ALA285      0.1728
     62  C        -30.4390   -4.8560   49.8680 C.2   285  ALA285      0.2616
     63  O        -31.3100   -4.7200   50.7530 O.2   285  ALA285     -0.2715
     64  CB       -28.7120   -4.8240   51.6570 C.3   285  ALA285      0.0334
     65  N        -30.7160   -5.0340   48.5740 N.am  286  ILE286     -0.1963
     66  CA       -32.0700   -4.9070   48.0180 C.3   286  ILE286      0.1727
     67  C        -32.7010   -6.2130   47.5390 C.2   286  ILE286      0.2617
     68  O        -33.8340   -6.2090   47.0460 O.2   286  ILE286     -0.2715
     69  CB       -32.0670   -3.9010   46.8690 C.3   286  ILE286      0.0290
     70  CG1      -30.9120   -4.1870   45.9190 C.3   286  ILE286      0.0022
     71  CG2      -31.9400   -2.4720   47.4310 C.3   286  ILE286      0.0023
     72  CD1      -31.2190   -3.8370   44.5160 C.3   286  ILE286      0.0001
     73  N        -31.9690   -7.3170   47.6610 N.am  287  GLY287     -0.1940
     74  CA       -32.4660   -8.6250   47.2580 C.3   287  GLY287      0.2014
     75  C        -31.3530   -9.6520   47.2070 C.2   287  GLY287      0.2638
     76  O        -30.1820   -9.3330   46.9940 O.2   287  GLY287     -0.2714
     77  N        -31.6980  -10.9070   47.4030 N.am  288  ARG288     -0.1977
     78  CA       -30.7320  -11.9430   47.1420 C.3   288  ARG288      0.1597
     79  C        -31.2540  -12.8760   46.0650 C.2   288  ARG288      0.2287
     80  O        -32.4060  -13.2540   46.0710 O.2   288  ARG288     -0.2864
     81  CB       -30.3580  -12.6490   48.4310 C.3   288  ARG288      0.0334
     82  CG       -29.2280  -11.9670   49.1490 C.3   288  ARG288      0.0492
     83  CD       -29.0150  -12.5370   50.5170 C.3   288  ARG288      0.2205
     84  NE       -28.4000  -13.8700   50.4950 N.pl3 288  ARG288     -0.0865
     85  CZ       -27.1060  -14.0790   50.2700 C.cat 288  ARG288      0.5346
     86  NH1      -26.3310  -13.0520   50.0350 N.pl3 288  ARG288      0.1354
     87  NH2      -26.5900  -15.2930   50.2760 N.pl3 288  ARG288      0.1354
     88  N        -35.9010  -18.0340   52.7420 N.3   334  MET334     -0.1245
     89  CA       -34.4420  -17.9620   52.6560 C.3   334  MET334      0.1570
     90  C        -33.8000  -17.8900   54.0230 C.2   334  MET334      0.2261
     91  O        -33.1910  -16.8800   54.3740 O.2   334  MET334     -0.2867
     92  CB       -34.0190  -16.7420   51.8310 C.3   334  MET334      0.0387
     93  CG       -34.1690  -16.9330   50.3390 C.3   334  MET334      0.0595
     94  SD       -33.0650  -15.8670   49.4730 S.3   334  MET334     -0.1393
     95  CE       -33.3570  -16.3280   47.7390 C.3   334  MET334      0.0692
@<TRIPOS>BOND
     1    16    14   am
     2    13    14    1
     3    13    12    1
     4    14    15    2
     5     9    12    1
     6     9    10    1
     7     9     8    1
     8    10    11    2
     9     4     3    2
    10    72    70    1
    11     8     3   am
    12    59    58    1
    13     3     2    1
    14    58    57    1
    15    70    69    1
    16    79    80    2
    17    79    78    1
    18    57    56    1
    19     2     1    1
    20     2     5    1
    21     1     7    1
    22    69    71    1
    23    69    66    1
    24    76    75    2
    25    68    67    2
    26    56    53    1
    27    78    77    1
    28    78    81    1
    29    75    74    1
    30    75    77   am
    31    74    73    1
    32     7     6    1
    33     5     6    1
    34    67    73   am
    35    67    66    1
    36    95    94    1
    37    66    65    1
    38    81    82    1
    39    53    52    1
    40    53    54    1
    41    65    62   am
    42    82    83    1
    43    54    60   am
    44    54    55    2
    45    94    93    1
    46    60    61    1
    47    62    61    1
    48    62    63    2
    49    86    85    1
    50    61    64    1
    51    85    87    1
    52    85    84    2
    53    93    92    1
    54    84    83    1
    55    17    18    1
    56    92    89    1
    57    22    21    1
    58    89    88    1
    59    89    90    1
    60    18    19    1
    61    18    21    1
    62    19    20    2
    63    45    43    1
    64    23    24    1
    65    90    91    2
    66    51    50    1
    67    44    42    1
    68    50    47    1
    69    24    25    1
    70    42    43    1
    71    42    39    1
    72    35    37   ar
    73    35    33   ar
    74    46    47    1
    75    46    40   am
    76    47    48    1
    77    25    26    2
    78    25    27   am
    79    37    36   ar
    80    33    32   ar
    81    39    40    1
    82    39    38    1
    83    40    41    2
    84    27    28    1
    85    38    29   am
    86    48    49    2
    87    36    34   ar
    88    32    34   ar
    89    32    31    1
    90    29    28    1
    91    29    30    2
    92    28    31    1
