@<TRIPOS>MOLECULE
tmp/2wp6A01.pdb
 103 98 0 0 0
SMALL
GASTEIGER

@<TRIPOS>ATOM
      1  N        -22.9890  -25.9010   53.1030 N.3    15  GLY15      -0.1210
      2  CA       -23.5400  -24.9640   54.0660 C.3    15  GLY15       0.1956
      3  C        -24.6770  -25.5450   54.8630 C.2    15  GLY15       0.2612
      4  O        -24.7740  -26.7490   55.0070 O.2    15  GLY15      -0.2717
      5  N        -25.5450  -24.6760   55.3630 N.am   16  SER16      -0.1952
      6  CA       -26.5840  -25.0480   56.3050 C.3    16  SER16       0.1924
      7  C        -27.3380  -26.2650   55.7930 C.2    16  SER16       0.2314
      8  O        -27.3890  -27.2630   56.4870 O.2    16  SER16      -0.2863
      9  CB       -27.5280  -23.8620   56.6000 C.3    16  SER16       0.2116
     10  OG       -26.8430  -22.7920   57.2500 O.3    16  SER16      -0.2180
     11  N        -24.7020  -29.5540   54.4830 N.3    19  LEU19      -0.1231
     12  CA       -23.9630  -30.2840   55.5100 C.3    19  LEU19       0.1693
     13  C        -24.9180  -31.1340   56.3300 C.2    19  LEU19       0.2591
     14  O        -24.5740  -32.2470   56.6810 O.2    19  LEU19      -0.2718
     15  CB       -23.1170  -29.3420   56.3930 C.3    19  LEU19       0.0284
     16  CG       -21.8780  -28.7260   55.7380 C.3    19  LEU19       0.0019
     17  CD1      -21.1120  -27.8770   56.7290 C.3    19  LEU19       0.0001
     18  CD2      -21.0020  -29.7990   55.1170 C.3    19  LEU19       0.0001
     19  N        -26.1380  -30.6580   56.5680 N.am   20  GLU20      -0.1979
     20  CA       -27.1000  -31.4650   57.3040 C.3    20  GLU20       0.1602
     21  C        -27.4550  -32.6920   56.4800 C.2    20  GLU20       0.2287
     22  O        -27.4410  -33.8000   57.0070 O.2    20  GLU20      -0.2864
     23  CB       -28.3380  -30.6620   57.6880 C.3    20  GLU20       0.0415
     24  CG       -29.3690  -31.4180   58.5700 C.3    20  GLU20       0.1163
     25  CD       -28.8930  -31.6830   60.0000 C.2    20  GLU20       0.3649
     26  OE1      -27.8870  -31.1240   60.4480 O.co2  20  GLU20      -0.2457
     27  OE2      -29.5240  -32.4730   60.7090 O.co2  20  GLU20      -0.2457
     28  N        -25.6830  -34.0370   53.9580 N.3    22  GLY22      -0.1210
     29  CA       -24.4190  -34.7470   54.0120 C.3    22  GLY22       0.1956
     30  C        -24.1670  -35.6080   55.2420 C.2    22  GLY22       0.2611
     31  O        -24.0220  -36.8190   55.1300 O.2    22  GLY22      -0.2717
     32  N        -24.0660  -34.9720   56.4010 N.am   23  TRP23      -0.1976
     33  CA       -23.9190  -35.6550   57.6740 C.3    23  TRP23       0.1640
     34  C        -24.9780  -36.7620   57.9310 C.2    23  TRP23       0.2290
     35  O        -24.6190  -37.8950   58.3130 O.2    23  TRP23      -0.2864
     36  CB       -24.0070  -34.6110   58.7830 C.3    23  TRP23       0.0576
     37  CG       -23.9040  -35.1880   60.1150 C.ar   23  TRP23       0.0006
     38  CD1      -24.9400  -35.5690   60.9630 C.ar   23  TRP23       0.0946
     39  CD2      -22.7030  -35.4630   60.7970 C.ar   23  TRP23       0.0152
     40  NE1      -24.4280  -36.0660   62.1330 N.ar   23  TRP23      -0.2442
     41  CE2      -23.0580  -35.9960   62.0710 C.ar   23  TRP23       0.0810
     42  CE3      -21.3440  -35.2930   60.4710 C.ar   23  TRP23       0.0012
     43  CZ2      -22.0920  -36.3830   63.0140 C.ar   23  TRP23       0.0191
     44  CZ3      -20.3810  -35.6780   61.3880 C.ar   23  TRP23       0.0001
     45  CH2      -20.7610  -36.2190   62.6650 C.ar   23  TRP23       0.0015
     46  N        -19.1670  -24.4050   55.7480 N.3    51  GLY51      -0.1225
     47  CA       -20.0530  -23.9040   56.7830 C.3    51  GLY51       0.1811
     48  C        -21.2310  -23.1700   56.2220 C.2    51  GLY51       0.2280
     49  O        -22.3250  -23.1500   56.8130 O.2    51  GLY51      -0.2866
     50  N        -22.6030  -19.3820   58.7700 N.3    55  VAL55      -0.1245
     51  CA       -21.4580  -19.5430   59.6340 C.3    55  VAL55       0.1561
     52  C        -20.3770  -18.5020   59.3120 C.2    55  VAL55       0.2260
     53  O        -19.7220  -17.9530   60.2160 O.2    55  VAL55      -0.2867
     54  CB       -20.8580  -21.0010   59.4790 C.3    55  VAL55       0.0252
     55  CG1      -19.4650  -21.0720   60.0270 C.3    55  VAL55       0.0019
     56  CG2      -21.7680  -22.0660   60.1330 C.3    55  VAL55       0.0019
     57  N        -15.2770  -27.9660   61.5340 N.3   112  TYR112     -0.1241
     58  CA       -16.0370  -28.6920   60.5260 C.3   112  TYR112      0.1605
     59  C        -15.1140  -29.4730   59.5910 C.2   112  TYR112      0.2264
     60  O        -15.5040  -30.5450   59.1170 O.2   112  TYR112     -0.2867
     61  CB       -16.8910  -27.7480   59.6900 C.3   112  TYR112      0.0534
     62  CG       -18.0840  -27.1620   60.4060 C.ar  112  TYR112     -0.0201
     63  CD1      -18.4690  -27.6150   61.6780 C.ar  112  TYR112     -0.0009
     64  CD2      -18.8470  -26.1860   59.7960 C.ar  112  TYR112     -0.0009
     65  CE1      -19.5760  -27.0840   62.3250 C.ar  112  TYR112      0.0417
     66  CE2      -19.9600  -25.6660   60.4150 C.ar  112  TYR112      0.0417
     67  CZ       -20.3210  -26.1130   61.6720 C.ar  112  TYR112      0.1957
     68  OH       -21.4240  -25.5570   62.2760 O.3   112  TYR112     -0.2866
     69  N        -14.1760  -32.6480   61.2030 N.3   115  MET115     -0.1230
     70  CA       -15.2570  -33.5970   61.1580 C.3   115  MET115      0.1702
     71  C        -15.2490  -34.4040   59.8420 C.2   115  MET115      0.2592
     72  O        -15.5340  -35.5890   59.8580 O.2   115  MET115     -0.2718
     73  CB       -16.5880  -32.8730   61.4100 C.3   115  MET115      0.0401
     74  CG       -16.9530  -32.8530   62.9070 C.3   115  MET115      0.0596
     75  SD       -17.8820  -31.4290   63.5600 S.3   115  MET115     -0.1393
     76  CE       -19.4480  -31.7060   62.8470 C.3   115  MET115      0.0692
     77  N        -14.9220  -33.7610   58.7180 N.am  116  PHE116     -0.1976
     78  CA       -14.8420  -34.4370   57.3940 C.3   116  PHE116      0.1639
     79  C        -13.6850  -35.4180   57.3540 C.2   116  PHE116      0.2290
     80  O        -13.8910  -36.5860   57.0350 O.2   116  PHE116     -0.2864
     81  CB       -14.6450  -33.4640   56.2140 C.3   116  PHE116      0.0560
     82  CG       -15.9120  -32.8660   55.6790 C.ar  116  PHE116     -0.0200
     83  CD1      -16.6960  -33.5640   54.7700 C.ar  116  PHE116     -0.0042
     84  CD2      -16.2920  -31.5630   56.0510 C.ar  116  PHE116     -0.0042
     85  CE1      -17.8580  -32.9850   54.2450 C.ar  116  PHE116     -0.0003
     86  CE2      -17.4590  -30.9800   55.5590 C.ar  116  PHE116     -0.0003
     87  CZ       -18.2430  -31.6880   54.6450 C.ar  116  PHE116     -0.0000
     88  N        -17.9230  -39.5420   54.3700 N.3   122  LEU122     -0.1245
     89  CA       -18.2900  -38.1430   54.2530 C.3   122  LEU122      0.1561
     90  C        -17.0280  -37.3980   53.8170 C.2   122  LEU122      0.2260
     91  O        -16.1580  -37.1720   54.6320 O.2   122  LEU122     -0.2867
     92  CB       -18.8170  -37.6100   55.5820 C.3   122  LEU122      0.0270
     93  CG       -19.3050  -36.1630   55.6960 C.3   122  LEU122      0.0019
     94  CD1      -20.3610  -35.8720   54.6280 C.3   122  LEU122      0.0001
     95  CD2      -19.8440  -35.8340   57.1030 C.3   122  LEU122      0.0001
     96  N        -31.6390  -26.4800   56.9190 N.3   341  ILE341     -0.1245
     97  CA       -31.2700  -27.6630   57.7000 C.3   341  ILE341      0.1561
     98  C        -32.4070  -28.6970   57.7890 C.2   341  ILE341      0.2260
     99  O        -32.1620  -29.8910   57.5760 O.2   341  ILE341     -0.2867
    100  CB       -30.8030  -27.2720   59.0960 C.3   341  ILE341      0.0252
    101  CG1      -29.5230  -26.4550   58.9800 C.3   341  ILE341      0.0019
    102  CG2      -30.6160  -28.4980   60.0150 C.3   341  ILE341      0.0019
    103  CD1      -28.9780  -26.0050   60.3860 C.3   341  ILE341      0.0001
@<TRIPOS>BOND
     1     1     2    1
     2    90    89    1
     3    90    91    2
     4    28    29    1
     5    29    30    1
     6     2     3    1
     7    85    87   ar
     8    85    83   ar
     9    89    88    1
    10    89    92    1
    11    11    12    1
    12    94    93    1
    13    87    86   ar
    14    83    82   ar
    15     3     4    2
    16     3     5   am
    17    18    16    1
    18    31    30    2
    19    30    32   am
    20     5     6    1
    21    12    13    1
    22    12    15    1
    23    86    84   ar
    24    92    93    1
    25    82    84   ar
    26    82    81    1
    27    93    95    1
    28    16    15    1
    29    16    17    1
    30    46    47    1
    31     7     6    1
    32     7     8    2
    33    81    78    1
    34    48    47    1
    35    48    49    2
    36     6     9    1
    37    13    19   am
    38    13    14    2
    39    32    33    1
    40    21    22    2
    41    21    20    1
    42    19    20    1
    43     9    10    1
    44    96    97    1
    45    80    79    2
    46    20    23    1
    47    79    78    1
    48    78    77    1
    49    99    98    2
    50    33    34    1
    51    33    36    1
    52    23    24    1
    53    97    98    1
    54    97   100    1
    55    34    35    2
    56    24    25    1
    57    77    71   am
    58    50    51    1
    59    36    37    1
    60   101   100    1
    61   101   103    1
    62   100   102    1
    63    60    59    2
    64    52    51    1
    65    52    53    2
    66    54    51    1
    67    54    55    1
    68    54    56    1
    69    59    58    1
    70    61    62    1
    71    61    58    1
    72    64    62   ar
    73    64    66   ar
    74    71    72    2
    75    71    70    1
    76    25    26   ar
    77    25    27   ar
    78    37    39   ar
    79    37    38   ar
    80    62    63   ar
    81    66    67   ar
    82    42    39   ar
    83    42    44   ar
    84    58    57    1
    85    39    41   ar
    86    38    40   ar
    87    70    69    1
    88    70    73    1
    89    44    45   ar
    90    73    74    1
    91    67    68    1
    92    67    65   ar
    93    63    65   ar
    94    41    40   ar
    95    41    43   ar
    96    45    43   ar
    97    76    75    1
    98    74    75    1
