@<TRIPOS>MOLECULE
tmp/2wpaA00.pdb
 183 174 0 0 0
SMALL
GASTEIGER

@<TRIPOS>ATOM
      1  N         -5.8690  202.9050  114.4230 N.3    14  ILE14      -0.1231
      2  CA        -5.8780  204.3440  114.6990 C.3    14  ILE14       0.1692
      3  C         -6.8230  204.7310  115.8370 C.2    14  ILE14       0.2592
      4  O         -6.9530  205.9090  116.1830 O.2    14  ILE14      -0.2718
      5  CB        -6.2790  205.1760  113.4440 C.3    14  ILE14       0.0266
      6  CG1       -7.7110  204.8270  113.0180 C.3    14  ILE14       0.0019
      7  CG2       -5.2750  204.9380  112.3080 C.3    14  ILE14       0.0020
      8  CD1       -8.2490  205.6600  111.8470 C.3    14  ILE14       0.0001
      9  N         -7.4860  203.7340  116.4090 N.am   15  GLY15      -0.1957
     10  CA        -8.4650  203.9950  117.4410 C.3    15  GLY15       0.1869
     11  C         -8.9720  202.7040  118.0490 C.2    15  GLY15       0.2309
     12  O         -9.0380  201.6720  117.3790 O.2    15  GLY15      -0.2863
     13  N        -16.1950  200.1990  122.2440 N.3    19  TYR19      -0.1241
     14  CA       -16.9920  199.9760  121.0380 C.3    19  TYR19       0.1605
     15  C        -16.3620  198.9400  120.0930 C.2    19  TYR19       0.2264
     16  O        -17.0610  198.3220  119.2920 O.2    19  TYR19      -0.2867
     17  CB       -17.1970  201.3020  120.2920 C.3    19  TYR19       0.0534
     18  CG       -15.9140  201.9470  119.8240 C.ar   19  TYR19      -0.0201
     19  CD1      -15.3670  201.6280  118.5800 C.ar   19  TYR19      -0.0009
     20  CD2      -15.2260  202.8440  120.6350 C.ar   19  TYR19      -0.0009
     21  CE1      -14.1700  202.1780  118.1600 C.ar   19  TYR19       0.0417
     22  CE2      -14.0290  203.4010  120.2260 C.ar   19  TYR19       0.0417
     23  CZ       -13.5030  203.0590  118.9850 C.ar   19  TYR19       0.1957
     24  OH       -12.2920  203.5710  118.5770 O.3    19  TYR19      -0.2866
     25  N        -10.8030  200.8130  115.3910 N.3    22  VAL22      -0.1245
     26  CA       -10.8170  201.4810  114.0960 C.3    22  VAL22       0.1561
     27  C         -9.4790  201.3060  113.3890 C.2    22  VAL22       0.2260
     28  O         -8.4300  201.6240  113.9470 O.2    22  VAL22      -0.2867
     29  CB       -11.1050  202.9880  114.2460 C.3    22  VAL22       0.0252
     30  CG1      -11.0160  203.6670  112.8930 C.3    22  VAL22       0.0019
     31  CG2      -12.4850  203.1990  114.8410 C.3    22  VAL22       0.0019
     32  N        -11.4570  204.3600  106.6610 N.3    35  ALA35      -0.1245
     33  CA       -11.4220  204.0010  108.0670 C.3    35  ALA35       0.1562
     34  C        -12.4300  202.8720  108.3110 C.2    35  ALA35       0.2260
     35  O        -13.6190  203.0220  108.0160 O.2    35  ALA35      -0.2867
     36  CB       -11.7480  205.2320  108.9280 C.3    35  ALA35       0.0290
     37  N        -14.2980  200.6400  110.9860 N.3    37  LYS37      -0.1245
     38  CA       -14.7050  200.4820  112.3690 C.3    37  LYS37       0.1561
     39  C        -15.2390  199.0670  112.5600 C.2    37  LYS37       0.2260
     40  O        -16.2350  198.6750  111.9630 O.2    37  LYS37      -0.2867
     41  CB       -15.7790  201.5130  112.7290 C.3    37  LYS37       0.0271
     42  CG       -16.3990  201.3030  114.1130 C.3    37  LYS37       0.0035
     43  CD       -16.5500  202.6230  114.8970 C.3    37  LYS37       0.0206
     44  CE       -17.8580  203.3530  114.5710 C.3    37  LYS37       0.1093
     45  NZ       -18.0460  204.6600  115.3040 N.3    37  LYS37      -0.1314
     46  N        -26.3440  204.4010  114.5310 N.3    55  GLU55      -0.1245
     47  CA       -25.3000  205.0680  113.7660 C.3    55  GLU55       0.1567
     48  C        -25.4950  204.7950  112.2860 C.2    55  GLU55       0.2260
     49  O        -25.5060  205.7210  111.4640 O.2    55  GLU55      -0.2867
     50  CB       -23.9100  204.5930  114.1850 C.3    55  GLU55       0.0388
     51  CG       -22.7870  205.2160  113.3410 C.3    55  GLU55       0.1160
     52  CD       -21.4540  205.3090  114.0890 C.2    55  GLU55       0.3649
     53  OE1      -21.0620  204.3220  114.7650 O.co2  55  GLU55      -0.2457
     54  OE2      -20.8040  206.3770  114.0010 O.co2  55  GLU55      -0.2457
     55  N        -19.4660  212.9600  108.7600 N.3    68  VAL68      -0.1245
     56  CA       -18.6270  211.9000  108.2330 C.3    68  VAL68       0.1561
     57  C        -19.4560  210.9910  107.3280 C.2    68  VAL68       0.2260
     58  O        -20.5870  210.6450  107.6610 O.2    68  VAL68      -0.2867
     59  CB       -18.0240  211.0510  109.3620 C.3    68  VAL68       0.0252
     60  CG1      -16.8230  210.2820  108.8450 C.3    68  VAL68       0.0019
     61  CG2      -17.5940  211.9440  110.4800 C.3    68  VAL68       0.0019
     62  N        -15.9630  203.9780  106.7550 N.3    84  PHE84      -0.1227
     63  CA       -16.1360  205.4250  106.7670 C.3    84  PHE84       0.1736
     64  C        -15.0420  206.0740  105.9410 C.2    84  PHE84       0.2595
     65  O        -14.0020  205.4550  105.7040 O.2    84  PHE84      -0.2718
     66  CB       -16.0110  205.9620  108.1920 C.3    84  PHE84       0.0547
     67  CG       -17.1490  205.5930  109.0990 C.ar   84  PHE84      -0.0202
     68  CD1      -17.1080  204.4220  109.8350 C.ar   84  PHE84      -0.0042
     69  CD2      -18.1950  206.4900  109.3210 C.ar   84  PHE84      -0.0042
     70  CE1      -18.0770  204.1520  110.7920 C.ar   84  PHE84      -0.0003
     71  CE2      -19.1690  206.2250  110.2750 C.ar   84  PHE84      -0.0003
     72  CZ       -19.1070  205.0570  111.0120 C.ar   84  PHE84      -0.0000
     73  N        -15.2520  207.3270  105.5410 N.am   85  GLU85      -0.1965
     74  CA       -14.1690  208.0920  104.9680 C.3    85  GLU85       0.1733
     75  C        -13.1040  208.2280  106.0640 C.2    85  GLU85       0.2616
     76  O        -13.4040  208.0630  107.2460 O.2    85  GLU85      -0.2715
     77  CB       -14.6550  209.4760  104.5090 C.3    85  GLU85       0.0429
     78  CG       -14.9710  210.4540  105.6300 C.3    85  GLU85       0.1163
     79  CD       -15.3920  211.8310  105.1200 C.2    85  GLU85       0.3649
     80  OE1      -16.5650  212.2280  105.3060 O.co2  85  GLU85      -0.2457
     81  OE2      -14.5480  212.5290  104.5360 O.co2  85  GLU85      -0.2457
     82  N        -11.8640  208.5100  105.6650 N.am   86  PHE86      -0.1960
     83  CA       -10.7770  208.7000  106.6170 C.3    86  PHE86       0.1771
     84  C        -10.4390  210.1770  106.7990 C.2    86  PHE86       0.2619
     85  O        -10.3070  210.9060  105.8270 O.2    86  PHE86      -0.2715
     86  CB        -9.5190  207.9510  106.1580 C.3    86  PHE86       0.0574
     87  CG        -8.2840  208.3250  106.9290 C.ar   86  PHE86      -0.0200
     88  CD1       -7.4550  209.3360  106.4830 C.ar   86  PHE86      -0.0042
     89  CD2       -7.9580  207.6720  108.1170 C.ar   86  PHE86      -0.0042
     90  CE1       -6.3220  209.6910  107.2070 C.ar   86  PHE86      -0.0003
     91  CE2       -6.8220  208.0230  108.8440 C.ar   86  PHE86      -0.0003
     92  CZ        -6.0070  209.0300  108.3900 C.ar   86  PHE86      -0.0000
     93  N        -10.2900  210.6160  108.0450 N.am   87  LEU87      -0.1963
     94  CA        -9.7180  211.9400  108.3050 C.3    87  LEU87       0.1728
     95  C         -8.5080  211.8760  109.2350 C.2    87  LEU87       0.2616
     96  O         -8.4250  211.0050  110.1000 O.2    87  LEU87      -0.2715
     97  CB       -10.7760  212.8740  108.8930 C.3    87  LEU87       0.0311
     98  CG       -11.8920  213.2760  107.9220 C.3    87  LEU87       0.0022
     99  CD1      -13.1100  212.4260  108.2010 C.3    87  LEU87       0.0001
    100  CD2      -12.2250  214.7610  108.0840 C.3    87  LEU87       0.0001
    101  N         -7.5790  212.8110  109.0570 N.am   88  HIS88      -0.1959
    102  CA        -6.2450  212.7220  109.6700 C.3    88  HIS88       0.1787
    103  C         -6.2040  212.8090  111.1980 C.2    88  HIS88       0.2620
    104  O         -5.3910  212.1340  111.8390 O.2    88  HIS88      -0.2715
    105  CB        -5.3340  213.8100  109.1040 C.3    88  HIS88       0.0785
    106  CG        -5.3240  213.8720  107.6090 C.ar   88  HIS88       0.0821
    107  ND1       -4.4850  213.0930  106.8360 N.ar   88  HIS88      -0.2267
    108  CD2       -6.0410  214.6320  106.7450 C.ar   88  HIS88       0.1154
    109  CE1       -4.6880  213.3730  105.5590 C.ar   88  HIS88       0.1986
    110  NE2       -5.6270  214.3020  105.4770 N.ar   88  HIS88      -0.2212
    111  N         -7.0570  213.6460  111.7810 N.am   89  GLN89      -0.1963
    112  CA        -6.9920  213.8720  113.2150 C.3    89  GLN89       0.1733
    113  C         -8.3080  214.3300  113.8480 C.2    89  GLN89       0.2616
    114  O         -9.2490  214.6890  113.1380 O.2    89  GLN89      -0.2715
    115  CB        -5.8810  214.8810  113.5270 C.3    89  GLN89       0.0408
    116  CG        -5.8640  215.3010  114.9900 C.3    89  GLN89       0.0908
    117  CD        -4.6020  214.9380  115.6830 C.2    89  GLN89       0.2608
    118  OE1       -3.7480  215.7950  115.9070 O.2    89  GLN89      -0.2717
    119  NE2       -4.4570  213.6630  116.0280 N.am   89  GLN89      -0.0878
    120  N         -8.3700  214.3000  115.1850 N.am   90  ASP90      -0.1971
    121  CA        -9.5200  214.8340  115.9130 C.3    90  ASP90       0.1709
    122  C         -9.2020  216.0890  116.7240 C.2    90  ASP90       0.2293
    123  O         -8.0410  216.4080  116.9800 O.2    90  ASP90      -0.2864
    124  CB       -10.1310  213.7620  116.8330 C.3    90  ASP90       0.1436
    125  CG        -9.3590  213.5760  118.1440 C.2    90  ASP90       0.3671
    126  OD1       -8.8920  214.5710  118.7410 O.co2  90  ASP90      -0.2456
    127  OD2       -9.2250  212.4170  118.5990 O.co2  90  ASP90      -0.2456
    128  N         -6.9740  216.0560  120.1680 N.3    93  LYS93      -0.1245
    129  CA        -5.5240  215.9690  119.9850 C.3    93  LYS93       0.1561
    130  C         -4.9350  217.2100  119.3290 C.2    93  LYS93       0.2260
    131  O         -3.8270  217.6210  119.6670 O.2    93  LYS93      -0.2867
    132  CB        -5.1650  214.7500  119.1460 C.3    93  LYS93       0.0271
    133  CG        -5.5140  213.4440  119.8080 C.3    93  LYS93       0.0035
    134  CD        -5.3850  212.2850  118.8420 C.3    93  LYS93       0.0206
    135  CE        -5.7250  210.9470  119.5340 C.3    93  LYS93       0.1093
    136  NZ        -5.5000  209.7700  118.6260 N.3    93  LYS93      -0.1314
    137  N        -18.3020  216.0940  121.5910 N.3   133  LYS133     -0.1245
    138  CA       -17.1060  216.3930  122.3590 C.3   133  LYS133      0.1561
    139  C        -15.8880  216.3720  121.4180 C.2   133  LYS133      0.2260
    140  O        -15.8930  215.7000  120.3890 O.2   133  LYS133     -0.2867
    141  CB       -16.9410  215.3650  123.4820 C.3   133  LYS133      0.0271
    142  CG       -16.9220  213.9350  122.9910 C.3   133  LYS133      0.0035
    143  CD       -16.6240  212.9660  124.1070 C.3   133  LYS133      0.0206
    144  CE       -16.8590  211.5290  123.6540 C.3   133  LYS133      0.1093
    145  NZ       -16.5830  210.5430  124.7510 N.3   133  LYS133     -0.1314
    146  N        -13.2550  214.9130  120.8370 N.3   135  GLN135     -0.1231
    147  CA       -12.8250  213.6130  120.3160 C.3   135  GLN135      0.1698
    148  C        -13.7250  213.0520  119.1760 C.2   135  GLN135      0.2592
    149  O        -13.2970  212.1960  118.3920 O.2   135  GLN135     -0.2718
    150  CB       -12.7880  212.6450  121.4880 C.3   135  GLN135      0.0381
    151  CG       -11.9970  211.4080  121.3000 C.3   135  GLN135      0.0905
    152  CD       -12.2630  210.3990  122.4190 C.2   135  GLN135      0.2608
    153  OE1      -12.9740  210.6950  123.3960 O.2   135  GLN135     -0.2717
    154  NE2      -11.6950  209.1970  122.2780 N.am  135  GLN135     -0.0878
    155  N        -14.9640  213.5330  119.0840 N.am  136  ASN136     -0.1974
    156  CA       -15.8840  213.1010  118.0290 C.3   136  ASN136      0.1688
    157  C        -15.9410  214.1350  116.8790 C.2   136  ASN136      0.2292
    158  O        -16.7770  214.0450  115.9710 O.2   136  ASN136     -0.2864
    159  CB       -17.2930  212.9100  118.6040 C.3   136  ASN136      0.1181
    160  CG       -17.3930  211.7320  119.5790 C.2   136  ASN136      0.2629
    161  OD1      -16.5970  210.7830  119.5450 O.2   136  ASN136     -0.2716
    162  ND2      -18.3920  211.7940  120.4550 N.am  136  ASN136     -0.0877
    163  N        -13.8060  215.5110  113.7810 N.3   138  LEU138     -0.1245
    164  CA       -12.6710  215.0730  112.9880 C.3   138  LEU138      0.1561
    165  C        -12.2040  216.1070  111.9640 C.2   138  LEU138      0.2260
    166  O        -13.0150  216.7950  111.3480 O.2   138  LEU138     -0.2867
    167  CB       -13.0310  213.7750  112.2850 C.3   138  LEU138      0.0270
    168  CG       -13.3730  212.6170  113.2310 C.3   138  LEU138      0.0019
    169  CD1      -13.5730  211.3330  112.4220 C.3   138  LEU138      0.0001
    170  CD2      -12.2360  212.4400  114.2530 C.3   138  LEU138      0.0001
    171  N        -18.6990  213.3270  113.9000 N.3   148  ALA148     -0.1231
    172  CA       -18.5370  211.8940  113.7940 C.3   148  ALA148      0.1694
    173  C        -19.1020  211.2590  115.0570 C.2   148  ALA148      0.2592
    174  O        -19.5280  211.9640  115.9830 O.2   148  ALA148     -0.2718
    175  CB       -17.0700  211.5520  113.6490 C.3   148  ALA148      0.0304
    176  N        -19.0880  209.9260  115.0720 N.am  149  ASP149     -0.1974
    177  CA       -19.6180  209.1030  116.1590 C.3   149  ASP149      0.1709
    178  C        -21.0980  209.3470  116.4610 C.2   149  ASP149      0.2293
    179  O        -21.4480  210.1700  117.3100 O.2   149  ASP149     -0.2864
    180  CB       -18.7960  209.2940  117.4380 C.3   149  ASP149      0.1436
    181  CG       -18.7700  208.0380  118.2920 C.2   149  ASP149      0.3671
    182  OD1      -19.8300  207.3820  118.3940 O.co2 149  ASP149     -0.2456
    183  OD2      -17.7000  207.6910  118.8490 O.co2 149  ASP149     -0.2456
@<TRIPOS>BOND
     1    77    74    1
     2    77    78    1
     3    81    79   ar
     4    74    73    1
     5    74    75    1
     6    79    80   ar
     7    79    78    1
     8   110   109   ar
     9   110   108   ar
    10    73    64   am
    11   109   107   ar
    12    82    75   am
    13    82    83    1
    14    65    64    2
    15    85    84    2
    16    64    63    1
    17    75    76    2
    18    86    83    1
    19    86    87    1
    20    88    87   ar
    21    88    90   ar
    22    83    84    1
    23    32    33    1
    24   108   106   ar
    25    62    63    1
    26    63    66    1
    27    84    93   am
    28   107   106   ar
    29    87    89   ar
    30    90    92   ar
    31    57    58    2
    32    57    56    1
    33   106   105    1
    34    98   100    1
    35    98    99    1
    36    98    97    1
    37    35    34    2
    38    93    94    1
    39    33    34    1
    40    33    36    1
    41    89    91   ar
    42    66    67    1
    43    56    55    1
    44    56    59    1
    45    94    97    1
    46    94    95    1
    47    92    91   ar
    48    60    59    1
    49   101    95   am
    50   101   102    1
    51    67    69   ar
    52    67    68   ar
    53   105   102    1
    54    95    96    2
    55    69    71   ar
    56    59    61    1
    57   102   103    1
    58    68    70   ar
    59    71    72   ar
    60    70    72   ar
    61    37    38    1
    62   103   111   am
    63   103   104    2
    64   166   165    2
    65    49    48    2
    66   111   112    1
    67     8     6    1
    68    40    39    2
    69   165   164    1
    70   167   164    1
    71   167   168    1
    72    48    47    1
    73     7     5    1
    74    38    39    1
    75    38    41    1
    76   169   168    1
    77    41    42    1
    78    30    29    1
    79   164   163    1
    80     6     5    1
    81   114   113    2
    82   112   115    1
    83   112   113    1
    84   168   170    1
    85    51    52    1
    86    51    50    1
    87    27    28    2
    88    27    26    1
    89     5     2    1
    90   115   116    1
    91   175   172    1
    92    47    50    1
    93    47    46    1
    94   172   171    1
    95   172   173    1
    96   113   120   am
    97    54    52   ar
    98    52    53   ar
    99    26    29    1
   100    26    25    1
   101    42    43    1
   102    29    31    1
   103     1     2    1
   104    44    43    1
   105    44    45    1
   106     2     3    1
   107   116   117    1
   108   173   176   am
   109   173   174    2
   110   176   177    1
   111   120   121    1
   112   117   118    2
   113   117   119   am
   114     3     4    2
   115     3     9   am
   116   121   122    1
   117   121   124    1
   118   158   157    2
   119   177   178    1
   120   177   180    1
   121     9    10    1
   122   178   179    2
   123   122   123    2
   124   124   125    1
   125   157   156    1
   126    12    11    2
   127   180   181    1
   128    10    11    1
   129   156   159    1
   130   156   155    1
   131   125   127   ar
   132   125   126   ar
   133    21    19   ar
   134    21    23   ar
   135   181   182   ar
   136   181   183   ar
   137   149   148    2
   138    24    23    1
   139    19    18   ar
   140   159   160    1
   141   136   135    1
   142   134   135    1
   143   134   133    1
   144    23    22   ar
   145   155   148   am
   146   132   133    1
   147   132   129    1
   148   148   147    1
   149    16    15    2
   150   130   131    2
   151   130   129    1
   152   161   160    2
   153   160   162   am
   154    18    17    1
   155    18    20   ar
   156   129   128    1
   157    15    14    1
   158    22    20   ar
   159    17    14    1
   160   147   146    1
   161   147   150    1
   162   140   139    2
   163    14    13    1
   164   151   150    1
   165   151   152    1
   166   139   138    1
   167   137   138    1
   168   154   152   am
   169   138   141    1
   170   152   153    2
   171   142   141    1
   172   142   143    1
   173   144   143    1
   174   144   145    1
