@<TRIPOS>MOLECULE
tmp/2wpbA00.pdb
 133 127 0 0 0
SMALL
GASTEIGER

@<TRIPOS>ATOM
      1  N          1.5830   -8.9510   40.6540 N.3    53  THR53      -0.1218
      2  CA         2.8170   -8.1800   40.6450 C.3    53  THR53       0.1862
      3  C          3.2890   -7.8200   42.0430 C.2    53  THR53       0.2287
      4  O          4.4800   -7.8470   42.3090 O.2    53  THR53      -0.2866
      5  CB         2.6330   -6.9020   39.7880 C.3    53  THR53       0.1770
      6  OG1        2.2950   -7.2950   38.4640 O.3    53  THR53      -0.2211
      7  CG2        3.9050   -6.0400   39.7270 C.3    53  THR53       0.0375
      8  N        -10.7820   -9.5700   37.3010 N.3   142  TYR142     -0.1241
      9  CA        -9.3870   -9.7140   36.8610 C.3   142  TYR142      0.1605
     10  C         -9.2670  -11.0780   36.2120 C.2   142  TYR142      0.2264
     11  O         -9.3990  -12.1020   36.8790 O.2   142  TYR142     -0.2867
     12  CB        -8.4390   -9.5170   38.0550 C.3   142  TYR142      0.0534
     13  CG        -6.9520   -9.8520   37.8680 C.ar  142  TYR142     -0.0201
     14  CD1       -6.3730   -9.9780   36.6100 C.ar  142  TYR142     -0.0009
     15  CD2       -6.1220   -9.9880   38.9720 C.ar  142  TYR142     -0.0009
     16  CE1       -4.9970  -10.2590   36.4540 C.ar  142  TYR142      0.0417
     17  CE2       -4.7380  -10.2750   38.8250 C.ar  142  TYR142      0.0417
     18  CZ        -4.1890  -10.4150   37.5690 C.ar  142  TYR142      0.1957
     19  OH        -2.8280  -10.7060   37.4080 O.3   142  TYR142     -0.2866
     20  N         -6.9700  -13.7350   34.0180 N.3   144  ILE144     -0.1245
     21  CA        -5.5790  -14.1100   33.6710 C.3   144  ILE144      0.1561
     22  C         -5.4370  -15.6370   33.4750 C.2   144  ILE144      0.2260
     23  O         -4.8090  -16.3210   34.2810 O.2   144  ILE144     -0.2867
     24  CB        -4.5340  -13.5100   34.6760 C.3   144  ILE144      0.0252
     25  CG1       -3.0830  -13.7900   34.2200 C.3   144  ILE144      0.0019
     26  CG2       -4.7770  -13.9700   36.1080 C.3   144  ILE144      0.0019
     27  CD1       -2.0020  -12.9020   34.9410 C.3   144  ILE144      0.0001
     28  N         -5.8990   -9.6910   31.1850 N.3   171  THR171     -0.1218
     29  CA        -4.5400  -10.1520   30.9210 C.3   171  THR171      0.1862
     30  C         -4.6880  -11.3680   30.0130 C.2   171  THR171      0.2287
     31  O         -4.6340  -12.5140   30.4400 O.2   171  THR171     -0.2866
     32  CB        -3.7720  -10.4550   32.2130 C.3   171  THR171      0.1770
     33  OG1       -3.7520   -9.2810   33.0430 O.3   171  THR171     -0.2211
     34  CG2       -2.3280  -10.8740   31.9010 C.3   171  THR171      0.0375
     35  N         -3.8080   -6.0400   29.9200 N.3   193  GLY193     -0.1210
     36  CA        -2.9620   -6.6780   30.9290 C.3   193  GLY193      0.1956
     37  C         -1.5300   -7.0590   30.5400 C.2   193  GLY193      0.2612
     38  O         -0.6450   -7.1130   31.4090 O.2   193  GLY193     -0.2717
     39  N         -1.2900   -7.3480   29.2620 N.am  194  TYR194     -0.1962
     40  CA         0.0460   -7.7500   28.8310 C.3   194  TYR194      0.1771
     41  C          0.8190   -6.5480   28.2780 C.2   194  TYR194      0.2620
     42  O          0.5400   -6.0380   27.1930 O.2   194  TYR194     -0.2715
     43  CB        -0.0200   -8.8780   27.8000 C.3   194  TYR194      0.0574
     44  CG        -0.1630  -10.2690   28.3900 C.ar  194  TYR194     -0.0198
     45  CD1        0.7630  -10.7590   29.3210 C.ar  194  TYR194     -0.0009
     46  CD2       -1.2070  -11.1030   28.0090 C.ar  194  TYR194     -0.0009
     47  CE1        0.6210  -12.0570   29.8600 C.ar  194  TYR194      0.0417
     48  CE2       -1.3390  -12.3820   28.5250 C.ar  194  TYR194      0.0417
     49  CZ        -0.4280  -12.8630   29.4370 C.ar  194  TYR194      0.1957
     50  OH        -0.5820  -14.1370   29.9560 O.3   194  TYR194     -0.2866
     51  N          1.8200   -6.1200   29.0270 N.am  195  ASP195     -0.1957
     52  CA         2.5750   -4.9180   28.6960 C.3   195  ASP195      0.1840
     53  C          3.1350   -4.9280   27.2870 C.2   195  ASP195      0.2622
     54  O          3.1010   -3.8890   26.5980 O.2   195  ASP195     -0.2715
     55  CB         3.6890   -4.7050   29.7270 C.3   195  ASP195      0.1450
     56  CG         3.1390   -4.5040   31.1190 C.2   195  ASP195      0.3671
     57  OD1        1.8970   -4.5930   31.2570 O.co2 195  ASP195     -0.2456
     58  OD2        3.9180   -4.2360   32.0610 O.co2 195  ASP195     -0.2456
     59  N          3.5790   -6.1030   26.8360 N.am  196  ASN196     -0.1972
     60  CA         4.2170   -6.2390   25.5360 C.3   196  ASN196      0.1688
     61  C          3.2820   -6.1450   24.3270 C.2   196  ASN196      0.2292
     62  O          3.7370   -6.2480   23.2160 O.2   196  ASN196     -0.2864
     63  CB         5.1510   -7.4740   25.4480 C.3   196  ASN196      0.1181
     64  CG         4.5200   -8.7650   25.9770 C.2   196  ASN196      0.2629
     65  OD1        3.3040   -8.8710   26.1310 O.2   196  ASN196     -0.2716
     66  ND2        5.3610   -9.7440   26.2720 N.am  196  ASN196     -0.0877
     67  N         -3.2370   -1.9900   32.8790 N.3   210  ILE210     -0.1231
     68  CA        -2.6370   -2.2430   34.1790 C.3   210  ILE210      0.1692
     69  C         -1.4300   -3.1320   33.9140 C.2   210  ILE210      0.2593
     70  O         -1.5550   -4.1860   33.2700 O.2   210  ILE210     -0.2718
     71  CB        -3.6140   -2.9280   35.1440 C.3   210  ILE210      0.0266
     72  CG1       -4.8150   -2.0140   35.4020 C.3   210  ILE210      0.0019
     73  CG2       -2.9010   -3.3340   36.4420 C.3   210  ILE210      0.0020
     74  CD1       -5.8090   -2.5430   36.3380 C.3   210  ILE210      0.0001
     75  N         -0.2650   -2.7210   34.3950 N.am  211  GLY211     -0.1942
     76  CA         0.9680   -3.4950   34.1560 C.3   211  GLY211      0.2014
     77  C          2.1080   -3.2810   35.1390 C.2   211  GLY211      0.2640
     78  O          2.1950   -2.2480   35.8120 O.2   211  GLY211     -0.2714
     79  N          2.9890   -4.2720   35.2140 N.am  212  SER212     -0.1935
     80  CA         4.0780   -4.2860   36.1730 C.3   212  SER212      0.2055
     81  C          5.2790   -3.4180   35.7500 C.2   212  SER212      0.2643
     82  O          5.9740   -2.8470   36.6010 O.2   212  SER212     -0.2714
     83  CB         4.5260   -5.7340   36.3880 C.3   212  SER212      0.2130
     84  OG         5.0820   -6.2550   35.2130 O.3   212  SER212     -0.2179
     85  N          5.5250   -3.3200   34.4470 N.am  213  THR213     -0.1950
     86  CA         6.6360   -2.5100   33.9200 C.3   213  THR213      0.1897
     87  C          6.3390   -1.0060   33.9640 C.2   213  THR213      0.2313
     88  O          7.2370   -0.1950   33.7730 O.2   213  THR213     -0.2863
     89  CB         7.0630   -2.9330   32.4850 C.3   213  THR213      0.1794
     90  OG1        5.9990   -2.7050   31.5540 O.3   213  THR213     -0.2208
     91  CG2        7.4620   -4.3870   32.4520 C.3   213  THR213      0.0378
     92  N         11.0990   -5.3880   28.0850 N.3   247  ILE247     -0.1245
     93  CA        10.4190   -6.6280   28.4940 C.3   247  ILE247      0.1561
     94  C         11.2330   -7.8800   28.1480 C.2   247  ILE247      0.2260
     95  O         11.2930   -8.8120   28.9360 O.2   247  ILE247     -0.2867
     96  CB         8.9650   -6.7280   27.9260 C.3   247  ILE247      0.0252
     97  CG1        8.0760   -5.7220   28.6470 C.3   247  ILE247      0.0019
     98  CG2        8.3900   -8.1570   28.1110 C.3   247  ILE247      0.0019
     99  CD1        6.6760   -5.5860   28.0560 C.3   247  ILE247      0.0001
    100  N         13.6520   -8.3910   30.9620 N.3   250  LEU250     -0.1231
    101  CA        13.0250   -8.7360   32.2350 C.3   250  LEU250      0.1693
    102  C         12.5310  -10.1700   32.2440 C.2   250  LEU250      0.2591
    103  O         12.5910  -10.8410   33.2680 O.2   250  LEU250     -0.2718
    104  CB        11.8880   -7.7670   32.5640 C.3   250  LEU250      0.0284
    105  CG        12.2910   -6.2990   32.7760 C.3   250  LEU250      0.0019
    106  CD1       11.0740   -5.3960   32.7850 C.3   250  LEU250      0.0001
    107  CD2       13.0890   -6.1210   34.0730 C.3   250  LEU250      0.0001
    108  N         12.0760  -10.6600   31.0970 N.am  251  ILE251     -0.1980
    109  CA        11.7250  -12.0790   30.9770 C.3   251  ILE251      0.1595
    110  C         12.9630  -12.9550   31.2030 C.2   251  ILE251      0.2287
    111  O         12.8730  -14.0070   31.8400 O.2   251  ILE251     -0.2864
    112  CB        10.9910  -12.3690   29.6430 C.3   251  ILE251      0.0276
    113  CG1        9.5770  -11.7650   29.7030 C.3   251  ILE251      0.0022
    114  CG2       10.8940  -13.8720   29.3750 C.3   251  ILE251      0.0022
    115  CD1        8.8090  -11.8910   28.4180 C.3   251  ILE251      0.0001
    116  N         10.7730  -11.2090   35.8730 N.3   255  VAL255     -0.1231
    117  CA        10.1030   -9.9260   35.6940 C.3   255  VAL255      0.1692
    118  C         10.0530   -9.0920   37.0000 C.2   255  VAL255      0.2592
    119  O         10.4750   -7.9320   37.0070 O.2   255  VAL255     -0.2718
    120  CB         8.6940  -10.0870   35.0880 C.3   255  VAL255      0.0266
    121  CG1        7.9820   -8.7470   35.0640 C.3   255  VAL255      0.0020
    122  CG2        8.7790  -10.6700   33.6400 C.3   255  VAL255      0.0020
    123  N          9.5640   -9.6760   38.0910 N.am  256  PHE256     -0.1976
    124  CA         9.3900   -8.9160   39.3300 C.3   256  PHE256      0.1639
    125  C         10.7570   -8.5200   39.9150 C.2   256  PHE256      0.2290
    126  O         10.9960   -7.3480   40.2400 O.2   256  PHE256     -0.2864
    127  CB         8.5380   -9.6750   40.3590 C.3   256  PHE256      0.0560
    128  CG         7.1540  -10.0910   39.8550 C.ar  256  PHE256     -0.0200
    129  CD1        6.5130   -9.4080   38.8350 C.ar  256  PHE256     -0.0042
    130  CD2        6.5030  -11.1710   40.4290 C.ar  256  PHE256     -0.0042
    131  CE1        5.2400   -9.7980   38.3960 C.ar  256  PHE256     -0.0003
    132  CE2        5.2300  -11.5600   39.9930 C.ar  256  PHE256     -0.0003
    133  CZ         4.6130  -10.8710   38.9760 C.ar  256  PHE256     -0.0000
@<TRIPOS>BOND
     1    62    61    2
     2    61    60    1
     3    63    60    1
     4    63    64    1
     5    60    59    1
     6    64    65    2
     7    64    66   am
     8    54    53    2
     9    59    53   am
    10    42    41    2
    11    53    52    1
    12    43    44    1
    13    43    40    1
    14    96    98    1
    15    96    93    1
    16    96    97    1
    17    46    44   ar
    18    46    48   ar
    19    99    97    1
    20    92    93    1
    21    94    93    1
    22    94    95    2
    23    41    40    1
    24    41    51   am
    25    44    45   ar
    26   115   113    1
    27    48    49   ar
    28    52    51    1
    29    52    55    1
    30    40    39    1
    31    39    37   am
    32    45    47   ar
    33   114   112    1
    34    49    47   ar
    35    49    50    1
    36   112   113    1
    37   112   109    1
    38    55    56    1
    39    35    36    1
    40    30    31    2
    41    30    29    1
    42    37    36    1
    43    37    38    2
    44    29    28    1
    45    29    32    1
    46   100   101    1
    47   109   108    1
    48   109   110    1
    49   108   102   am
    50    56    57   ar
    51    56    58   ar
    52   110   111    2
    53    90    89    1
    54    34    32    1
    55    32    33    1
    56   101   102    1
    57   101   104    1
    58   102   103    2
    59    91    89    1
    60    89    86    1
    61   104   105    1
    62   105   106    1
    63   105   107    1
    64    67    68    1
    65    70    69    2
    66    22    21    1
    67    22    23    2
    68   122   120    1
    69    21    20    1
    70    21    24    1
    71    88    87    2
    72    69    68    1
    73    69    75   am
    74    86    87    1
    75    86    85    1
    76    76    75    1
    77    76    77    1
    78    68    71    1
    79    25    24    1
    80    25    27    1
    81    85    81   am
    82    24    26    1
    83   121   120    1
    84   120   117    1
    85    77    79   am
    86    77    78    2
    87    71    72    1
    88    71    73    1
    89    84    83    1
    90    79    80    1
    91    72    74    1
    92   117   116    1
    93   117   118    1
    94    81    80    1
    95    81    82    2
    96    80    83    1
    97    10     9    1
    98    10    11    2
    99    16    14   ar
   100    16    18   ar
   101    14    13   ar
   102     9     8    1
   103     9    12    1
   104   118   119    2
   105   118   123   am
   106    19    18    1
   107    18    17   ar
   108    13    12    1
   109    13    15   ar
   110   123   124    1
   111   131   129   ar
   112   131   133   ar
   113     6     5    1
   114    17    15   ar
   115   129   128   ar
   116   133   132   ar
   117   124   125    1
   118   124   127    1
   119     7     5    1
   120     5     2    1
   121   128   127    1
   122   128   130   ar
   123   125   126    2
   124   132   130   ar
   125     2     1    1
   126     2     3    1
   127     3     4    2
