@<TRIPOS>MOLECULE
tmp/2wpcD01.pdb
 113 108 0 0 0
SMALL
GASTEIGER

@<TRIPOS>ATOM
      1  N         -8.1370    8.1260  -31.6530 N.3    15  GLY15      -0.1210
      2  CA        -8.9350    8.9090  -30.7460 C.3    15  GLY15       0.1956
      3  C         -9.9600    8.0640  -29.9810 C.2    15  GLY15       0.2612
      4  O         -9.7050    6.8620  -29.6480 O.2    15  GLY15      -0.2717
      5  N        -11.0960    8.7100  -29.6360 N.am   16  SER16      -0.1952
      6  CA       -12.0220    8.1120  -28.6750 C.3    16  SER16       0.1924
      7  C        -12.4750    6.7590  -29.1960 C.2    16  SER16       0.2314
      8  O        -12.3670    5.7650  -28.5370 O.2    16  SER16      -0.2863
      9  CB       -13.2000    9.0110  -28.3950 C.3    16  SER16       0.2116
     10  OG       -12.8370    9.9930  -27.4560 O.3    16  SER16      -0.2180
     11  N         -9.3580    4.1390  -30.5260 N.3    19  LEU19      -0.1231
     12  CA        -8.5930    3.5030  -29.4520 C.3    19  LEU19       0.1693
     13  C         -9.3770    2.4240  -28.7520 C.2    19  LEU19       0.2591
     14  O         -8.8300    1.3400  -28.4130 O.2    19  LEU19      -0.2718
     15  CB        -8.0900    4.5610  -28.4490 C.3    19  LEU19       0.0284
     16  CG        -6.8660    5.3370  -29.0130 C.3    19  LEU19       0.0019
     17  CD1       -6.3090    6.2230  -27.9040 C.3    19  LEU19       0.0001
     18  CD2       -5.6900    4.3700  -29.5200 C.3    19  LEU19       0.0001
     19  N        -10.6650    2.6870  -28.5590 N.am   20  GLU20      -0.1979
     20  CA       -11.4690    1.6560  -27.9640 C.3    20  GLU20       0.1602
     21  C        -11.5230    0.4070  -28.8730 C.2    20  GLU20       0.2287
     22  O        -11.2650   -0.6750  -28.4090 O.2    20  GLU20      -0.2864
     23  CB       -12.8970    2.1770  -27.6910 C.3    20  GLU20       0.0415
     24  CG       -13.8210    1.0740  -27.0890 C.3    20  GLU20       0.1163
     25  CD       -13.5900    0.8760  -25.5710 C.2    20  GLU20       0.3649
     26  OE1      -12.7250    1.5440  -24.9080 O.co2  20  GLU20      -0.2457
     27  OE2      -14.2800    0.0070  -25.0320 O.co2  20  GLU20      -0.2457
     28  N         -7.7370   -1.2230  -29.0520 N.3    23  TRP23      -0.1227
     29  CA        -7.4980   -1.9390  -27.7990 C.3    23  TRP23       0.1737
     30  C         -8.3350   -3.2170  -27.7090 C.2    23  TRP23       0.2595
     31  O         -7.8260   -4.3060  -27.4000 O.2    23  TRP23      -0.2718
     32  CB        -7.7350   -1.0190  -26.6280 C.3    23  TRP23       0.0564
     33  CG        -7.5800   -1.7070  -25.2900 C.ar   23  TRP23       0.0003
     34  CD1       -8.5570   -2.3610  -24.5780 C.ar   23  TRP23       0.0946
     35  CD2       -6.3740   -1.8570  -24.5600 C.ar   23  TRP23       0.0152
     36  NE1       -8.0370   -2.8560  -23.4030 N.ar   23  TRP23      -0.2442
     37  CE2       -6.6890   -2.5560  -23.3750 C.ar   23  TRP23       0.0810
     38  CE3       -5.0410   -1.4280  -24.7830 C.ar   23  TRP23       0.0012
     39  CZ2       -5.7320   -2.8590  -22.4240 C.ar   23  TRP23       0.0191
     40  CZ3       -4.1030   -1.6860  -23.8280 C.ar   23  TRP23       0.0001
     41  CH2       -4.4420   -2.4130  -22.6630 C.ar   23  TRP23       0.0015
     42  N         -9.6300   -3.1240  -27.9850 N.am   24  ASN24      -0.1974
     43  CA       -10.4670   -4.3170  -27.8410 C.3    24  ASN24       0.1688
     44  C        -10.0980   -5.4220  -28.8330 C.2    24  ASN24       0.2292
     45  O        -10.0040   -6.5810  -28.4510 O.2    24  ASN24      -0.2864
     46  CB       -11.9580   -3.9820  -27.9560 C.3    24  ASN24       0.1181
     47  CG       -12.5120   -3.2600  -26.7040 C.2    24  ASN24       0.2629
     48  OD1      -11.7580   -2.9170  -25.7750 O.2    24  ASN24      -0.2716
     49  ND2      -13.8420   -2.9980  -26.7060 N.am   24  ASN24      -0.0877
     50  N         -4.6500    9.6810  -28.5430 N.3    51  GLY51      -0.1225
     51  CA        -5.6790    9.9440  -27.5430 C.3    51  GLY51       0.1811
     52  C         -6.8990   10.7380  -28.0510 C.2    51  GLY51       0.2280
     53  O         -7.9660   10.7340  -27.4130 O.2    51  GLY51      -0.2866
     54  N        -10.8600   14.6080  -27.5600 N.3    54  CYS54      -0.1221
     55  CA       -11.2290   14.6520  -26.1700 C.3    54  CYS54       0.1808
     56  C        -10.0520   14.8100  -25.2050 C.2    54  CYS54       0.2601
     57  O        -10.0790   15.6830  -24.3560 O.2    54  CYS54      -0.2717
     58  CB       -11.9730   13.3650  -25.8120 C.3    54  CYS54       0.0970
     59  SG       -12.7210   13.4930  -24.1380 S.3    54  CYS54      -0.0800
     60  N         -9.0470   13.9200  -25.3280 N.am   55  VAL55      -0.1979
     61  CA        -7.8590   13.9310  -24.4670 C.3    55  VAL55       0.1595
     62  C         -7.0370   15.2030  -24.7190 C.2    55  VAL55       0.2287
     63  O         -6.6010   15.8680  -23.7800 O.2    55  VAL55      -0.2864
     64  CB        -6.9800   12.7180  -24.7670 C.3    55  VAL55       0.0276
     65  CG1       -5.5140   12.8990  -24.2320 C.3    55  VAL55       0.0022
     66  CG2       -7.6880   11.3790  -24.2630 C.3    55  VAL55       0.0022
     67  N         -0.5280    6.7220  -22.7830 N.3   112  TYR112     -0.1241
     68  CA        -1.0390    5.9600  -23.9510 C.3   112  TYR112      0.1605
     69  C          0.0610    5.3820  -24.8410 C.2   112  TYR112      0.2264
     70  O         -0.0110    4.2340  -25.3120 O.2   112  TYR112     -0.2867
     71  CB        -1.9490    6.7570  -24.7890 C.3   112  TYR112      0.0534
     72  CG        -3.3050    7.0230  -24.1470 C.ar  112  TYR112     -0.0201
     73  CD1       -3.5810    6.6920  -22.8110 C.ar  112  TYR112     -0.0009
     74  CD2       -4.2820    7.7010  -24.8740 C.ar  112  TYR112     -0.0009
     75  CE1       -4.8630    6.9460  -22.2600 C.ar  112  TYR112      0.0417
     76  CE2       -5.5330    7.9990  -24.3290 C.ar  112  TYR112      0.0417
     77  CZ        -5.8130    7.6020  -23.0350 C.ar  112  TYR112      0.1957
     78  OH        -7.0230    7.9530  -22.5540 O.3   112  TYR112     -0.2866
     79  N          1.2520    2.3160  -23.2250 N.3   115  MET115     -0.1230
     80  CA         0.3400    1.1970  -23.4090 C.3   115  MET115      0.1702
     81  C          0.5170    0.5780  -24.7970 C.2   115  MET115      0.2592
     82  O          0.4150   -0.6330  -24.9110 O.2   115  MET115     -0.2718
     83  CB        -1.1250    1.6170  -23.2290 C.3   115  MET115      0.0401
     84  CG        -1.6210    1.7620  -21.7580 C.3   115  MET115      0.0596
     85  SD        -3.0440    2.9180  -21.7260 S.3   115  MET115     -0.1393
     86  CE        -3.0660    3.3920  -19.9260 C.3   115  MET115      0.0692
     87  N          0.7540    1.3650  -25.8690 N.am  116  PHE116     -0.1976
     88  CA         1.0860    0.7120  -27.1830 C.3   116  PHE116      0.1639
     89  C          2.3950   -0.1160  -27.0410 C.2   116  PHE116      0.2290
     90  O          2.4680   -1.3110  -27.3820 O.2   116  PHE116     -0.2864
     91  CB         1.2650    1.7320  -28.3110 C.3   116  PHE116      0.0560
     92  CG         0.0230    2.1060  -28.9620 C.ar  116  PHE116     -0.0200
     93  CD1       -0.4270    1.3920  -30.0950 C.ar  116  PHE116     -0.0042
     94  CD2       -0.7590    3.1560  -28.4560 C.ar  116  PHE116     -0.0042
     95  CE1       -1.6560    1.7510  -30.7190 C.ar  116  PHE116     -0.0003
     96  CE2       -1.9770    3.5140  -29.0530 C.ar  116  PHE116     -0.0003
     97  CZ        -2.4200    2.8220  -30.2030 C.ar  116  PHE116     -0.0000
     98  N         -0.6330   -4.5110  -30.9520 N.3   122  LEU122     -0.1245
     99  CA        -1.2760   -3.2120  -30.9830 C.3   122  LEU122      0.1561
    100  C         -0.1480   -2.2180  -31.3190 C.2   122  LEU122      0.2260
    101  O          0.7120   -1.9070  -30.4380 O.2   122  LEU122     -0.2867
    102  CB        -1.8910   -2.8770  -29.5950 C.3   122  LEU122      0.0270
    103  CG        -2.6540   -1.5120  -29.5520 C.3   122  LEU122      0.0019
    104  CD1       -3.6930   -1.2910  -30.6840 C.3   122  LEU122      0.0001
    105  CD2       -3.3060   -1.2160  -28.1720 C.3   122  LEU122      0.0001
    106  N        -16.9220    5.6870  -28.3220 N.3   341  ILE341     -0.1245
    107  CA       -16.2850    4.6060  -27.6140 C.3   341  ILE341      0.1561
    108  C        -17.2270    3.4290  -27.7780 C.2   341  ILE341      0.2260
    109  O        -16.8020    2.3210  -28.1480 O.2   341  ILE341     -0.2867
    110  CB       -16.0570    5.0350  -26.1480 C.3   341  ILE341      0.0252
    111  CG1      -14.7950    5.9580  -26.0900 C.3   341  ILE341      0.0019
    112  CG2      -15.8880    3.8650  -25.1760 C.3   341  ILE341      0.0019
    113  CD1      -14.4590    6.3510  -24.5910 C.3   341  ILE341      0.0001
@<TRIPOS>BOND
     1     1     2    1
     2   100    99    1
     3   100   101    2
     4    99    98    1
     5    99   102    1
     6     2     3    1
     7    95    97   ar
     8    95    93   ar
     9   104   103    1
    10    11    12    1
    11    97    96   ar
    12    93    92   ar
    13     3     4    2
    14     3     5   am
    15     5     6    1
    16   102   103    1
    17   103   105    1
    18    18    16    1
    19    12    13    1
    20    12    15    1
    21     7     6    1
    22     7     8    2
    23    96    94   ar
    24    28    29    1
    25    16    15    1
    26    16    17    1
    27    92    94   ar
    28    92    91    1
    29    21    22    2
    30    21    20    1
    31    44    45    2
    32    44    43    1
    33    13    19   am
    34    13    14    2
    35     6     9    1
    36    19    20    1
    37    50    51    1
    38     9    10    1
    39   106   107    1
    40    91    88    1
    41   109   108    2
    42    52    51    1
    43    52    53    2
    44    42    43    1
    45    42    30   am
    46    20    23    1
    47    46    43    1
    48    46    47    1
    49    29    30    1
    50    29    32    1
    51   108   107    1
    52    30    31    2
    53    23    24    1
    54   107   110    1
    55    54    55    1
    56    90    89    2
    57    88    89    1
    58    88    87    1
    59    24    25    1
    60    49    47   am
    61    47    48    2
    62    32    33    1
    63    55    58    1
    64    55    56    1
    65   110   111    1
    66   110   112    1
    67   111   113    1
    68    87    81   am
    69    58    59    1
    70    25    27   ar
    71    25    26   ar
    72    60    56   am
    73    60    61    1
    74    70    69    2
    75    33    34   ar
    76    33    35   ar
    77    56    57    2
    78    82    81    2
    79    74    76   ar
    80    74    72   ar
    81    69    68    1
    82    81    80    1
    83    71    72    1
    84    71    68    1
    85    38    35   ar
    86    38    40   ar
    87    64    61    1
    88    64    66    1
    89    64    65    1
    90    62    61    1
    91    62    63    2
    92    34    36   ar
    93    35    37   ar
    94    76    77   ar
    95    72    73   ar
    96    68    67    1
    97    40    41   ar
    98    80    83    1
    99    80    79    1
   100    36    37   ar
   101    37    39   ar
   102    83    84    1
   103    77    78    1
   104    77    75   ar
   105    73    75   ar
   106    41    39   ar
   107    84    85    1
   108    85    86    1
