@<TRIPOS>MOLECULE
tmp/2wpeD02.pdb
 95 93 0 0 0
SMALL
GASTEIGER

@<TRIPOS>ATOM
      1  N         -3.2290   19.7480  -33.1090 N.3    48  TYR48      -0.1241
      2  CA        -4.1990   19.8540  -31.9660 C.3    48  TYR48       0.1605
      3  C         -4.6840   18.4880  -31.4210 C.2    48  TYR48       0.2264
      4  O         -4.3400   18.0940  -30.2920 O.2    48  TYR48      -0.2867
      5  CB        -5.3880   20.7620  -32.3430 C.3    48  TYR48       0.0534
      6  CG        -4.8630   22.1390  -32.6150 C.ar   48  TYR48      -0.0201
      7  CD1       -4.5060   22.9440  -31.5390 C.ar   48  TYR48      -0.0009
      8  CD2       -4.5950   22.5780  -33.9200 C.ar   48  TYR48      -0.0009
      9  CE1       -3.9920   24.1790  -31.7100 C.ar   48  TYR48       0.0417
     10  CE2       -4.0750   23.8960  -34.1550 C.ar   48  TYR48       0.0417
     11  CZ        -3.7240   24.6440  -33.0150 C.ar   48  TYR48       0.1957
     12  OH        -3.1980   25.8780  -33.0650 O.3    48  TYR48      -0.2866
     13  N        -14.0900   18.4180  -36.9960 N.3   166  TRP166     -0.1228
     14  CA       -13.1540   19.5110  -37.0460 C.3   166  TRP166      0.1722
     15  C        -14.0410   20.7830  -36.9390 C.2   166  TRP166      0.2437
     16  O        -15.2200   20.7530  -37.3190 O.2   166  TRP166     -0.2733
     17  CB       -12.3760   19.4430  -38.3600 C.3   166  TRP166      0.0563
     18  CG       -11.1730   20.3140  -38.4140 C.ar  166  TRP166      0.0003
     19  CD1      -11.0390   21.4550  -39.1860 C.ar  166  TRP166      0.0946
     20  CD2       -9.9180   20.1780  -37.6910 C.ar  166  TRP166      0.0152
     21  NE1       -9.8050   22.0190  -38.9560 N.ar  166  TRP166     -0.2442
     22  CE2       -9.1020   21.2570  -38.0640 C.ar  166  TRP166      0.0810
     23  CE3       -9.4320   19.2710  -36.7290 C.ar  166  TRP166      0.0012
     24  CZ2       -7.7880   21.4450  -37.5300 C.ar  166  TRP166      0.0191
     25  CZ3       -8.1660   19.4500  -36.2140 C.ar  166  TRP166      0.0001
     26  CH2       -7.3500   20.5020  -36.6180 C.ar  166  TRP166      0.0015
     27  N        -13.4960   21.8770  -36.4150 N.am  167  PRO167     -0.2729
     28  CA       -14.3470   23.0800  -36.2770 C.3   167  PRO167      0.1401
     29  C        -14.7960   23.6160  -37.6690 C.2   167  PRO167      0.2269
     30  O        -13.9720   23.7350  -38.6130 O.2   167  PRO167     -0.2865
     31  CB       -13.4070   24.1130  -35.6740 C.3   167  PRO167      0.0296
     32  CG       -12.2720   23.3620  -35.0150 C.3   167  PRO167      0.0237
     33  CD       -12.1300   22.0690  -35.8690 C.3   167  PRO167      0.0939
     34  N        -15.7280   26.5810  -40.0570 N.3   169  MET169     -0.1245
     35  CA       -15.3380   27.9640  -40.0730 C.3   169  MET169      0.1570
     36  C        -16.0770   28.5540  -41.2380 C.2   169  MET169      0.2261
     37  O        -15.8340   28.1510  -42.3610 O.2   169  MET169     -0.2867
     38  CB       -13.8280   28.0730  -40.2690 C.3   169  MET169      0.0387
     39  CG       -12.9870   27.4900  -39.1590 C.3   169  MET169      0.0595
     40  SD       -13.2090   28.3060  -37.5100 S.3   169  MET169     -0.1393
     41  CE       -12.0730   29.6840  -37.8170 C.3   169  MET169      0.0692
     42  N        -12.3080   35.6440  -42.0200 N.3   175  ILE175     -0.1231
     43  CA       -12.2810   34.3680  -41.2850 C.3   175  ILE175      0.1692
     44  C        -10.8670   33.9960  -40.7810 C.2   175  ILE175      0.2591
     45  O        -10.6890   33.5050  -39.6700 O.2   175  ILE175     -0.2718
     46  CB       -12.8500   33.2050  -42.1020 C.3   175  ILE175      0.0266
     47  CG1      -12.9640   31.9550  -41.2080 C.3   175  ILE175      0.0019
     48  CG2      -12.0150   32.9220  -43.3260 C.3   175  ILE175      0.0020
     49  CD1      -14.0360   32.1140  -40.1010 C.3   175  ILE175      0.0001
     50  N         -9.8570   34.2910  -41.5640 N.am  176  GLU176     -0.1979
     51  CA        -8.4970   33.9820  -41.1390 C.3   176  GLU176      0.1602
     52  C         -8.0310   34.7520  -39.8760 C.2   176  GLU176      0.2287
     53  O         -6.9650   34.4660  -39.3410 O.2   176  GLU176     -0.2864
     54  CB        -7.5400   34.2050  -42.3120 C.3   176  GLU176      0.0415
     55  CG        -7.3340   35.6940  -42.6370 C.3   176  GLU176      0.1163
     56  CD        -8.3040   36.2180  -43.6810 C.2   176  GLU176      0.3649
     57  OE1       -9.1900   35.4820  -44.1590 O.co2 176  GLU176     -0.2457
     58  OE2       -8.1710   37.4010  -44.0490 O.co2 176  GLU176     -0.2457
     59  N         -9.9140   34.8170  -37.2330 N.3   178  CYS178     -0.1221
     60  CA       -10.6650   34.0720  -36.1850 C.3   178  CYS178      0.1808
     61  C         -9.9300   32.8100  -35.7020 C.2   178  CYS178      0.2601
     62  O         -9.0340   32.3010  -36.3760 O.2   178  CYS178     -0.2717
     63  CB       -12.0110   33.6620  -36.7670 C.3   178  CYS178      0.0970
     64  SG       -13.0600   35.1610  -37.1690 S.3   178  CYS178     -0.0800
     65  N        -10.3040   32.3070  -34.5320 N.am  179  ILE179     -0.1965
     66  CA        -9.7830   31.0170  -34.0780 C.3   179  ILE179      0.1727
     67  C        -10.9440   30.0640  -33.8860 C.2   179  ILE179      0.2616
     68  O        -12.1090   30.4490  -34.0760 O.2   179  ILE179     -0.2715
     69  CB        -8.9420   31.1620  -32.7730 C.3   179  ILE179      0.0290
     70  CG1       -9.7670   31.6960  -31.6090 C.3   179  ILE179      0.0022
     71  CG2       -7.7090   32.0500  -33.0240 C.3   179  ILE179      0.0023
     72  CD1       -9.1320   31.3930  -30.2290 C.3   179  ILE179      0.0001
     73  N        -10.6120   28.8240  -33.5230 N.am  180  SER180     -0.1950
     74  CA       -11.5950   27.8600  -33.0500 C.3   180  SER180      0.1924
     75  C        -11.2260   27.4490  -31.5880 C.2   180  SER180      0.2314
     76  O        -10.2880   27.9770  -31.0180 O.2   180  SER180     -0.2863
     77  CB       -11.6220   26.6050  -33.9850 C.3   180  SER180      0.2116
     78  OG       -10.3930   25.8630  -33.8740 O.3   180  SER180     -0.2180
     79  N         -9.7430   24.8200  -30.8300 N.3   182  ASN182     -0.1225
     80  CA        -8.3760   24.2960  -30.9560 C.3   182  ASN182      0.1785
     81  C         -7.3550   25.2730  -30.4010 C.2   182  ASN182      0.2597
     82  O         -6.5920   24.9530  -29.4810 O.2   182  ASN182     -0.2718
     83  CB        -8.0300   23.9330  -32.4380 C.3   182  ASN182      0.1169
     84  CG        -8.7210   22.6680  -32.9030 C.2   182  ASN182      0.2627
     85  OD1       -9.2200   21.8930  -32.0550 O.2   182  ASN182     -0.2716
     86  ND2       -8.6680   22.3740  -34.2310 N.am  182  ASN182     -0.0877
     87  N         -7.3400   26.4730  -30.9660 N.am  183  GLU183     -0.1979
     88  CA        -6.4020   27.4740  -30.5470 C.3   183  GLU183      0.1602
     89  C         -6.7860   28.0790  -29.1640 C.2   183  GLU183      0.2287
     90  O         -5.9160   28.5580  -28.4250 O.2   183  GLU183     -0.2864
     91  CB        -6.3060   28.6050  -31.6110 C.3   183  GLU183      0.0415
     92  CG        -5.7820   28.2270  -33.0050 C.3   183  GLU183      0.1163
     93  CD        -6.8000   27.4740  -33.8540 C.2   183  GLU183      0.3649
     94  OE1       -8.0150   27.5570  -33.5710 O.co2 183  GLU183     -0.2457
     95  OE2       -6.3630   26.8000  -34.8220 O.co2 183  GLU183     -0.2457
@<TRIPOS>BOND
     1    57    56   ar
     2    58    56   ar
     3    56    55    1
     4    48    46    1
     5    55    54    1
     6    37    36    2
     7    54    51    1
     8    46    43    1
     9    46    47    1
    10    42    43    1
    11    50    51    1
    12    50    44   am
    13    43    44    1
    14    36    35    1
    15    47    49    1
    16    51    52    1
    17    44    45    2
    18    38    35    1
    19    38    39    1
    20    35    34    1
    21    52    53    2
    22    19    21   ar
    23    19    18   ar
    24    39    40    1
    25    21    22   ar
    26    30    29    2
    27    18    17    1
    28    18    20   ar
    29    17    14    1
    30    22    20   ar
    31    22    24   ar
    32    41    40    1
    33    20    23   ar
    34    29    28    1
    35    24    26   ar
    36    16    15    2
    37    59    60    1
    38    64    63    1
    39    14    13    1
    40    14    15    1
    41    15    27   am
    42    63    60    1
    43    23    25   ar
    44    26    25   ar
    45    27    28    1
    46    27    33    1
    47    62    61    2
    48    28    31    1
    49    60    61    1
    50    33    32    1
    51    61    65   am
    52    31    32    1
    53    95    93   ar
    54    65    66    1
    55    86    84   am
    56    10     8   ar
    57    10    11   ar
    58    66    67    1
    59    66    69    1
    60    68    67    2
    61    77    78    1
    62    77    74    1
    63     8     6   ar
    64    67    73   am
    65    93    94   ar
    66    93    92    1
    67    73    74    1
    68     1     2    1
    69    12    11    1
    70    74    75    1
    71    71    69    1
    72    11     9   ar
    73    92    91    1
    74    84    83    1
    75    84    85    2
    76    69    70    1
    77     6     5    1
    78     6     7   ar
    79    83    80    1
    80     5     2    1
    81     2     3    1
    82     9     7   ar
    83    91    88    1
    84    70    72    1
    85    75    76    2
    86     3     4    2
    87    87    88    1
    88    87    81   am
    89    80    79    1
    90    80    81    1
    91    88    89    1
    92    81    82    2
    93    89    90    2
