@<TRIPOS>MOLECULE
tmp/2wpeD01.pdb
 109 104 0 0 0
SMALL
GASTEIGER

@<TRIPOS>ATOM
      1  N        -11.5050    8.6500  -29.3340 N.3    17  SER17      -0.1217
      2  CA       -12.3790    7.9560  -28.3550 C.3    17  SER17       0.1889
      3  C        -12.8500    6.5850  -28.9280 C.2    17  SER17       0.2288
      4  O        -12.7390    5.5390  -28.2830 O.2    17  SER17      -0.2866
      5  CB       -13.5950    8.8250  -28.0290 C.3    17  SER17       0.2089
      6  OG       -13.1910    9.9830  -27.2830 O.3    17  SER17      -0.2183
      7  N         -9.6860    4.0980  -30.4510 N.3    20  LEU20      -0.1231
      8  CA        -8.9350    3.4220  -29.3750 C.3    20  LEU20       0.1693
      9  C         -9.7330    2.3410  -28.6590 C.2    20  LEU20       0.2591
     10  O         -9.1670    1.3090  -28.3100 O.2    20  LEU20      -0.2718
     11  CB        -8.3250    4.4050  -28.3710 C.3    20  LEU20       0.0284
     12  CG        -7.1450    5.3080  -28.8990 C.3    20  LEU20       0.0019
     13  CD1       -6.4550    6.1420  -27.7530 C.3    20  LEU20       0.0001
     14  CD2       -6.0560    4.4410  -29.5950 C.3    20  LEU20       0.0001
     15  N        -11.0190    2.5600  -28.4260 N.am   21  GLU21      -0.1979
     16  CA       -11.8230    1.5120  -27.7960 C.3    21  GLU21       0.1602
     17  C        -11.9160    0.2630  -28.7240 C.2    21  GLU21       0.2287
     18  O        -11.6930   -0.8710  -28.2670 O.2    21  GLU21      -0.2864
     19  CB       -13.2580    1.9890  -27.4920 C.3    21  GLU21       0.0415
     20  CG       -14.0740    0.8680  -26.8160 C.3    21  GLU21       0.1163
     21  CD       -13.7620    0.7410  -25.3170 C.2    21  GLU21       0.3649
     22  OE1      -12.8840    1.5040  -24.7730 O.co2  21  GLU21      -0.2457
     23  OE2      -14.4390   -0.0820  -24.6630 O.co2  21  GLU21      -0.2457
     24  N         -8.2380   -1.3370  -28.9920 N.3    24  TRP24      -0.1227
     25  CA        -8.0000   -2.0610  -27.7430 C.3    24  TRP24       0.1737
     26  C         -8.7950   -3.3490  -27.6560 C.2    24  TRP24       0.2595
     27  O         -8.2140   -4.4190  -27.3230 O.2    24  TRP24      -0.2718
     28  CB        -8.3840   -1.2130  -26.5660 C.3    24  TRP24       0.0564
     29  CG        -8.1340   -1.8870  -25.2810 C.ar   24  TRP24       0.0003
     30  CD1       -9.0680   -2.5520  -24.5020 C.ar   24  TRP24       0.0946
     31  CD2       -6.8800   -1.9360  -24.5500 C.ar   24  TRP24       0.0152
     32  NE1       -8.4690   -2.9970  -23.3440 N.ar   24  TRP24      -0.2442
     33  CE2       -7.1350   -2.6540  -23.3410 C.ar   24  TRP24       0.0810
     34  CE3       -5.5800   -1.4530  -24.8030 C.ar   24  TRP24       0.0012
     35  CZ2       -6.1320   -2.9010  -22.3680 C.ar   24  TRP24       0.0191
     36  CZ3       -4.5560   -1.7040  -23.8210 C.ar   24  TRP24       0.0001
     37  CH2       -4.8410   -2.4260  -22.6420 C.ar   24  TRP24       0.0015
     38  N        -10.1110   -3.2740  -27.9200 N.am   25  ASN25      -0.1974
     39  CA       -10.9540   -4.4440  -27.7770 C.3    25  ASN25       0.1688
     40  C        -10.5460   -5.5690  -28.7400 C.2    25  ASN25       0.2292
     41  O        -10.4420   -6.7530  -28.3030 O.2    25  ASN25      -0.2864
     42  CB       -12.4630   -4.1280  -27.9020 C.3    25  ASN25       0.1181
     43  CG       -13.0190   -3.4870  -26.5960 C.2    25  ASN25       0.2629
     44  OD1      -12.2530   -3.1770  -25.6790 O.2    25  ASN25      -0.2716
     45  ND2      -14.2920   -3.1870  -26.5700 N.am   25  ASN25      -0.0877
     46  N         -5.0020    9.5910  -28.3850 N.3    52  GLY52      -0.1225
     47  CA        -6.0520    9.9550  -27.3580 C.3    52  GLY52       0.1811
     48  C         -7.2930   10.5850  -27.9710 C.2    52  GLY52       0.2280
     49  O         -8.3700   10.5290  -27.4040 O.2    52  GLY52      -0.2866
     50  N        -11.2430   14.4280  -27.4740 N.3    55  CYS55      -0.1221
     51  CA       -11.6520   14.5490  -26.0760 C.3    55  CYS55       0.1808
     52  C        -10.4510   14.6910  -25.1170 C.2    55  CYS55       0.2601
     53  O        -10.4490   15.5710  -24.2560 O.2    55  CYS55      -0.2717
     54  CB       -12.4070   13.3000  -25.6780 C.3    55  CYS55       0.0970
     55  SG       -13.0870   13.4620  -24.0470 S.3    55  CYS55      -0.0800
     56  N         -9.4390   13.8420  -25.2830 N.am   56  VAL56      -0.1979
     57  CA        -8.2540   13.8950  -24.4310 C.3    56  VAL56       0.1595
     58  C         -7.3860   15.1740  -24.6140 C.2    56  VAL56       0.2287
     59  O         -6.9360   15.8020  -23.6610 O.2    56  VAL56      -0.2864
     60  CB        -7.3780   12.6300  -24.6940 C.3    56  VAL56       0.0276
     61  CG1       -5.9690   12.8650  -24.1490 C.3    56  VAL56       0.0022
     62  CG2       -8.0820   11.3310  -24.0320 C.3    56  VAL56       0.0022
     63  N         -0.9850    6.6390  -22.7940 N.3   113  TYR113     -0.1241
     64  CA        -1.5190    5.8470  -23.9140 C.3   113  TYR113      0.1605
     65  C         -0.3780    5.2690  -24.8330 C.2   113  TYR113      0.2264
     66  O         -0.4210    4.1450  -25.3290 O.2   113  TYR113     -0.2867
     67  CB        -2.4760    6.6870  -24.7080 C.3   113  TYR113      0.0534
     68  CG        -3.8040    6.9960  -24.0070 C.ar  113  TYR113     -0.0201
     69  CD1       -4.1310    6.4850  -22.7220 C.ar  113  TYR113     -0.0009
     70  CD2       -4.7460    7.7540  -24.6610 C.ar  113  TYR113     -0.0009
     71  CE1       -5.3840    6.7600  -22.1270 C.ar  113  TYR113      0.0417
     72  CE2       -5.9680    8.0430  -24.0720 C.ar  113  TYR113      0.0417
     73  CZ        -6.2720    7.5220  -22.8460 C.ar  113  TYR113      0.1957
     74  OH        -7.4920    7.8300  -22.3940 O.3   113  TYR113     -0.2866
     75  N          0.8370    2.2130  -23.1460 N.3   116  MET116     -0.1230
     76  CA        -0.0900    1.1290  -23.3970 C.3   116  MET116      0.1702
     77  C          0.0720    0.4820  -24.7530 C.2   116  MET116      0.2592
     78  O         -0.0360   -0.7410  -24.8470 O.2   116  MET116     -0.2718
     79  CB        -1.5740    1.5460  -23.1810 C.3   116  MET116      0.0401
     80  CG        -1.9680    1.6560  -21.7490 C.3   116  MET116      0.0596
     81  SD        -3.4310    2.7510  -21.5750 S.3   116  MET116     -0.1393
     82  CE        -3.1440    3.4360  -19.9150 C.3   116  MET116      0.0692
     83  N          0.3060    1.2770  -25.8210 N.am  117  PHE117     -0.1976
     84  CA         0.6310    0.6680  -27.1380 C.3   117  PHE117      0.1639
     85  C          1.9160   -0.2040  -27.0160 C.2   117  PHE117      0.2290
     86  O          1.9520   -1.4040  -27.4250 O.2   117  PHE117     -0.2864
     87  CB         0.7970    1.7630  -28.2330 C.3   117  PHE117      0.0560
     88  CG        -0.5100    2.1080  -28.9580 C.ar  117  PHE117     -0.0200
     89  CD1       -0.9700    1.3170  -29.9920 C.ar  117  PHE117     -0.0042
     90  CD2       -1.2610    3.2070  -28.5820 C.ar  117  PHE117     -0.0042
     91  CE1       -2.1230    1.6560  -30.7010 C.ar  117  PHE117     -0.0003
     92  CE2       -2.4520    3.5610  -29.2370 C.ar  117  PHE117     -0.0003
     93  CZ        -2.8960    2.7960  -30.3100 C.ar  117  PHE117     -0.0000
     94  N         -1.0880   -4.6730  -30.7460 N.3   123  LEU123     -0.1245
     95  CA        -1.7030   -3.3320  -30.8370 C.3   123  LEU123      0.1561
     96  C         -0.6120   -2.3350  -31.2350 C.2   123  LEU123      0.2260
     97  O          0.2430   -2.0470  -30.4400 O.2   123  LEU123     -0.2867
     98  CB        -2.4170   -2.9560  -29.5060 C.3   123  LEU123      0.0270
     99  CG        -3.1410   -1.6010  -29.4790 C.3   123  LEU123      0.0019
    100  CD1       -4.2100   -1.4950  -30.6150 C.3   123  LEU123      0.0001
    101  CD2       -3.7690   -1.2490  -28.1120 C.3   123  LEU123      0.0001
    102  N        -17.1880    5.7120  -28.1640 N.3   342  ILE342     -0.1245
    103  CA       -16.6750    4.5060  -27.4310 C.3   342  ILE342      0.1561
    104  C        -17.6360    3.3870  -27.5800 C.2   342  ILE342      0.2260
    105  O        -17.2110    2.2730  -27.8730 O.2   342  ILE342     -0.2867
    106  CB       -16.3670    4.7900  -25.9150 C.3   342  ILE342      0.0252
    107  CG1      -15.1560    5.7610  -25.8380 C.3   342  ILE342      0.0019
    108  CG2      -15.9900    3.5040  -25.1120 C.3   342  ILE342      0.0019
    109  CD1      -14.8880    6.3880  -24.4030 C.3   342  ILE342      0.0001
@<TRIPOS>BOND
     1    96    95    1
     2    96    97    2
     3    95    94    1
     4    95    98    1
     5    91    93   ar
     6    91    89   ar
     7   100    99    1
     8     7     8    1
     9    93    92   ar
    10    89    88   ar
    11    14    12    1
    12    98    99    1
    13    99   101    1
    14     8     9    1
    15     8    11    1
    16     1     2    1
    17    92    90   ar
    18    24    25    1
    19    88    90   ar
    20    88    87    1
    21     3     2    1
    22     3     4    2
    23    12    11    1
    24    12    13    1
    25    40    41    2
    26    40    39    1
    27    17    18    2
    28    17    16    1
    29     9    15   am
    30     9    10    2
    31    15    16    1
    32    46    47    1
    33     2     5    1
    34    87    84    1
    35   102   103    1
    36     5     6    1
    37    48    49    2
    38    48    47    1
    39    38    39    1
    40    38    26   am
    41    42    39    1
    42    42    43    1
    43   105   104    2
    44    16    19    1
    45    25    26    1
    46    25    28    1
    47    26    27    2
    48   104   103    1
    49    19    20    1
    50    50    51    1
    51   103   106    1
    52    86    85    2
    53    84    85    1
    54    84    83    1
    55    20    21    1
    56    43    45   am
    57    43    44    2
    58    28    29    1
    59    51    54    1
    60    51    52    1
    61   106   107    1
    62   106   108    1
    63   107   109    1
    64    83    77   am
    65    54    55    1
    66    66    65    2
    67    21    22   ar
    68    21    23   ar
    69    56    52   am
    70    56    57    1
    71    29    31   ar
    72    29    30   ar
    73    52    53    2
    74    78    77    2
    75    65    64    1
    76    34    31   ar
    77    34    36   ar
    78    77    76    1
    79    67    68    1
    80    67    64    1
    81    60    57    1
    82    60    61    1
    83    60    62    1
    84    70    72   ar
    85    70    68   ar
    86    58    57    1
    87    58    59    2
    88    31    33   ar
    89    30    32   ar
    90    72    73   ar
    91    68    69   ar
    92    64    63    1
    93    36    37   ar
    94    76    79    1
    95    76    75    1
    96    32    33   ar
    97    33    35   ar
    98    79    80    1
    99    73    74    1
   100    73    71   ar
   101    69    71   ar
   102    37    35   ar
   103    80    81    1
   104    81    82    1
