@<TRIPOS>MOLECULE
tmp/2wpfA01.pdb
 109 104 0 0 0
SMALL
GASTEIGER

@<TRIPOS>ATOM
      1  N        -25.5350  -24.1670   54.1600 N.3    16  SER16      -0.1217
      2  CA       -26.4430  -24.6500   55.1910 C.3    16  SER16       0.1889
      3  C        -27.2430  -25.8950   54.7040 C.2    16  SER16       0.2288
      4  O        -27.4010  -26.8640   55.4340 O.2    16  SER16      -0.2866
      5  CB       -27.4140  -23.5700   55.5790 C.3    16  SER16       0.2089
      6  OG       -26.6910  -22.4430   56.0280 O.3    16  SER16      -0.2183
      7  N        -24.5550  -28.9650   53.4400 N.3    19  LEU19      -0.1231
      8  CA       -23.9050  -29.6800   54.5140 C.3    19  LEU19       0.1693
      9  C        -24.9010  -30.5300   55.3070 C.2    19  LEU19       0.2591
     10  O        -24.5730  -31.6470   55.7130 O.2    19  LEU19      -0.2718
     11  CB       -23.1560  -28.7340   55.4420 C.3    19  LEU19       0.0284
     12  CG       -21.8750  -28.1290   54.8970 C.3    19  LEU19       0.0019
     13  CD1      -21.2540  -27.1280   55.8980 C.3    19  LEU19       0.0001
     14  CD2      -20.9220  -29.2640   54.4970 C.3    19  LEU19       0.0001
     15  N        -26.1180  -30.0470   55.5100 N.am   20  GLU20      -0.1979
     16  CA       -27.0640  -30.8330   56.2620 C.3    20  GLU20       0.1602
     17  C        -27.3800  -32.1100   55.4620 C.2    20  GLU20       0.2287
     18  O        -27.3080  -33.1850   56.0080 O.2    20  GLU20      -0.2864
     19  CB       -28.3540  -30.0870   56.5130 C.3    20  GLU20       0.0415
     20  CG       -29.4590  -30.9530   57.1650 C.3    20  GLU20       0.1163
     21  CD       -29.2140  -31.0890   58.6350 C.2    20  GLU20       0.3649
     22  OE1      -28.2640  -30.4160   59.1330 O.co2  20  GLU20      -0.2457
     23  OE2      -29.9810  -31.8570   59.2850 O.co2  20  GLU20      -0.2457
     24  N        -24.0690  -34.3790   55.2700 N.3    23  TRP23      -0.1227
     25  CA       -23.8490  -34.9900   56.5510 C.3    23  TRP23       0.1737
     26  C        -24.8590  -36.0720   56.8480 C.2    23  TRP23       0.2595
     27  O        -24.4950  -37.1800   57.2930 O.2    23  TRP23      -0.2718
     28  CB       -23.9500  -33.9530   57.6340 C.3    23  TRP23       0.0564
     29  CG       -23.9330  -34.5540   58.9640 C.ar   23  TRP23       0.0003
     30  CD1      -25.0190  -34.8590   59.7840 C.ar   23  TRP23       0.0946
     31  CD2      -22.7820  -34.9410   59.6630 C.ar   23  TRP23       0.0152
     32  NE1      -24.5680  -35.3940   60.9590 N.ar   23  TRP23      -0.2442
     33  CE2      -23.2040  -35.4310   60.9200 C.ar   23  TRP23       0.0810
     34  CE3      -21.4140  -34.8900   59.3690 C.ar   23  TRP23       0.0012
     35  CZ2      -22.3110  -35.9160   61.8490 C.ar   23  TRP23       0.0191
     36  CZ3      -20.5270  -35.3570   60.3000 C.ar   23  TRP23       0.0001
     37  CH2      -20.9720  -35.8520   61.5310 C.ar   23  TRP23       0.0015
     38  N        -26.1270  -35.7790   56.6000 N.am   24  ASN24      -0.1974
     39  CA       -27.1350  -36.7650   56.8760 C.3    24  ASN24       0.1688
     40  C        -27.0700  -38.0200   55.9760 C.2    24  ASN24       0.2292
     41  O        -27.1970  -39.1510   56.4480 O.2    24  ASN24      -0.2864
     42  CB       -28.5090  -36.1450   56.7890 C.3    24  ASN24       0.1181
     43  CG       -28.8250  -35.2640   57.9670 C.2    24  ASN24       0.2629
     44  OD1      -27.9640  -34.9390   58.7990 O.2    24  ASN24      -0.2716
     45  ND2      -30.0720  -34.8770   58.0420 N.am   24  ASN24      -0.0877
     46  N        -19.3330  -24.0480   54.8440 N.3    51  GLY51      -0.1225
     47  CA       -20.2950  -23.6220   55.8720 C.3    51  GLY51       0.1811
     48  C        -21.2950  -22.6960   55.2640 C.2    51  GLY51       0.2280
     49  O        -22.3300  -22.3720   55.8690 O.2    51  GLY51      -0.2866
     50  N        -24.3430  -18.3280   55.5080 N.3    54  CYS54      -0.1221
     51  CA       -24.6780  -18.2330   56.9470 C.3    54  CYS54       0.1808
     52  C        -23.4190  -18.0700   57.7760 C.2    54  CYS54       0.2601
     53  O        -23.2080  -17.0270   58.4570 O.2    54  CYS54      -0.2717
     54  CB       -25.5000  -19.4880   57.3500 C.3    54  CYS54       0.0970
     55  SG       -25.1000  -20.4630   58.8810 S.3    54  CYS54      -0.0800
     56  N        -22.5610  -19.0900   57.6970 N.am   55  VAL55      -0.1979
     57  CA       -21.2660  -19.1260   58.4360 C.3    55  VAL55       0.1595
     58  C        -20.2870  -18.0120   58.1250 C.2    55  VAL55       0.2287
     59  O        -19.6170  -17.4560   59.0040 O.2    55  VAL55      -0.2864
     60  CB       -20.5320  -20.4910   58.2260 C.3    55  VAL55       0.0276
     61  CG1      -19.1350  -20.4480   58.8270 C.3    55  VAL55       0.0022
     62  CG2      -21.3660  -21.6190   58.8860 C.3    55  VAL55       0.0022
     63  N        -15.1620  -27.3940   60.2140 N.3   112  TYR112     -0.1241
     64  CA       -15.9020  -28.1430   59.1760 C.3   112  TYR112      0.1605
     65  C        -14.9450  -28.8910   58.2880 C.2   112  TYR112      0.2264
     66  O        -15.2130  -30.0210   57.8440 O.2   112  TYR112     -0.2867
     67  CB       -16.7440  -27.2230   58.3160 C.3   112  TYR112      0.0534
     68  CG       -17.9720  -26.7220   59.0110 C.ar  112  TYR112     -0.0201
     69  CD1      -18.3310  -27.2030   60.2760 C.ar  112  TYR112     -0.0009
     70  CD2      -18.7430  -25.7180   58.4270 C.ar  112  TYR112     -0.0009
     71  CE1      -19.4920  -26.6880   60.9470 C.ar  112  TYR112      0.0417
     72  CE2      -19.8880  -25.2290   59.0210 C.ar  112  TYR112      0.0417
     73  CZ       -20.2670  -25.6980   60.2880 C.ar  112  TYR112      0.1957
     74  OH       -21.4160  -25.1830   60.8880 O.3   112  TYR112     -0.2866
     75  N        -14.1040  -32.0120   60.0720 N.3   115  MET115     -0.1230
     76  CA       -15.1450  -33.0630   59.9040 C.3   115  MET115      0.1702
     77  C        -15.1110  -33.7920   58.5500 C.2   115  MET115      0.2592
     78  O        -15.3120  -34.9750   58.4760 O.2   115  MET115     -0.2718
     79  CB       -16.5390  -32.4860   60.1360 C.3   115  MET115      0.0401
     80  CG       -16.5500  -31.7400   61.4890 C.3   115  MET115      0.0596
     81  SD       -18.0090  -30.8580   62.1020 S.3   115  MET115     -0.1393
     82  CE       -18.2540  -31.8210   63.6310 C.3   115  MET115      0.0692
     83  N        -14.9070  -33.0670   57.4830 N.am  116  PHE116     -0.1976
     84  CA       -14.7350  -33.7030   56.1620 C.3   116  PHE116      0.1639
     85  C        -13.5940  -34.6850   56.1540 C.2   116  PHE116      0.2290
     86  O        -13.7540  -35.7820   55.6690 O.2   116  PHE116     -0.2864
     87  CB       -14.5520  -32.6760   55.0650 C.3   116  PHE116      0.0560
     88  CG       -15.8400  -32.1510   54.5180 C.ar  116  PHE116     -0.0200
     89  CD1      -16.7080  -33.0060   53.8790 C.ar  116  PHE116     -0.0042
     90  CD2      -16.1730  -30.7810   54.6340 C.ar  116  PHE116     -0.0042
     91  CE1      -17.8940  -32.5420   53.3310 C.ar  116  PHE116     -0.0003
     92  CE2      -17.3590  -30.2820   54.0760 C.ar  116  PHE116     -0.0003
     93  CZ       -18.2510  -31.1890   53.4390 C.ar  116  PHE116     -0.0000
     94  N        -18.0930  -38.8900   53.4520 N.3   122  LEU122     -0.1245
     95  CA       -18.3970  -37.4530   53.2700 C.3   122  LEU122      0.1561
     96  C        -17.0810  -36.7460   52.9020 C.2   122  LEU122      0.2260
     97  O        -16.1800  -36.5540   53.7540 O.2   122  LEU122     -0.2867
     98  CB       -19.0870  -36.8770   54.5310 C.3   122  LEU122      0.0270
     99  CG       -19.4700  -35.4070   54.5760 C.3   122  LEU122      0.0019
    100  CD1      -20.5370  -35.1790   53.5010 C.3   122  LEU122      0.0001
    101  CD2      -19.9790  -34.9840   55.9590 C.3   122  LEU122      0.0001
    102  N        -31.6650  -26.0570   55.6670 N.3   341  ILE341     -0.1245
    103  CA       -31.3720  -27.2150   56.4830 C.3   341  ILE341      0.1561
    104  C        -32.5400  -28.2140   56.5520 C.2   341  ILE341      0.2260
    105  O        -32.3140  -29.4100   56.3930 O.2   341  ILE341     -0.2867
    106  CB       -30.8640  -26.7780   57.8790 C.3   341  ILE341      0.0252
    107  CG1      -29.5080  -26.0830   57.7450 C.3   341  ILE341      0.0019
    108  CG2      -30.7610  -27.9640   58.9400 C.3   341  ILE341      0.0019
    109  CD1      -29.1030  -25.4080   59.1330 C.3   341  ILE341      0.0001
@<TRIPOS>BOND
     1    96    95    1
     2    96    97    2
     3    95    94    1
     4    95    98    1
     5    91    93   ar
     6    91    89   ar
     7    93    92   ar
     8     7     8    1
     9   100    99    1
    10    89    88   ar
    11    92    90   ar
    12     1     2    1
    13    14    12    1
    14     8     9    1
    15     8    11    1
    16    88    90   ar
    17    88    87    1
    18    98    99    1
    19    99   101    1
    20     3     2    1
    21     3     4    2
    22    46    47    1
    23    12    11    1
    24    12    13    1
    25    87    84    1
    26     2     5    1
    27    48    49    2
    28    48    47    1
    29    24    25    1
    30     9    15   am
    31     9    10    2
    32    17    18    2
    33    17    16    1
    34    50    51    1
    35    15    16    1
    36     5     6    1
    37   102   103    1
    38    86    85    2
    39    40    41    2
    40    40    39    1
    41    85    84    1
    42    84    83    1
    43    16    19    1
    44   105   104    2
    45   103   104    1
    46   103   106    1
    47    19    20    1
    48    25    26    1
    49    25    28    1
    50    38    26   am
    51    38    39    1
    52    42    39    1
    53    42    43    1
    54    26    27    2
    55    51    54    1
    56    51    52    1
    57    20    21    1
    58    54    55    1
    59    83    77   am
    60    28    29    1
    61    56    52   am
    62    56    57    1
    63   107   106    1
    64   107   109    1
    65    52    53    2
    66    66    65    2
    67   106   108    1
    68    43    45   am
    69    43    44    2
    70    58    57    1
    71    58    59    2
    72    60    57    1
    73    60    61    1
    74    60    62    1
    75    65    64    1
    76    67    68    1
    77    67    64    1
    78    70    68   ar
    79    70    72   ar
    80    78    77    2
    81    77    76    1
    82    21    22   ar
    83    21    23   ar
    84    29    31   ar
    85    29    30   ar
    86    68    69   ar
    87    72    73   ar
    88    64    63    1
    89    34    31   ar
    90    34    36   ar
    91    31    33   ar
    92    30    32   ar
    93    76    75    1
    94    76    79    1
    95    79    80    1
    96    69    71   ar
    97    73    74    1
    98    73    71   ar
    99    36    37   ar
   100    33    32   ar
   101    33    35   ar
   102    80    81    1
   103    37    35   ar
   104    81    82    1
