@<TRIPOS>MOLECULE
tmp/2wpkC00.pdb
 169 169 0 0 0
SMALL
GASTEIGER

@<TRIPOS>ATOM
      1  N         15.0620  -12.7030   -5.5970 N.3    25  PHE25      -0.1227
      2  CA        13.9300  -13.3960   -4.9830 C.3    25  PHE25       0.1736
      3  C         12.9950  -14.1390   -5.9330 C.2    25  PHE25       0.2595
      4  O         12.2330  -14.9940   -5.4960 O.2    25  PHE25      -0.2718
      5  CB        13.1200  -12.4330   -4.1080 C.3    25  PHE25       0.0547
      6  CG        12.3940  -11.3670   -4.8720 C.ar   25  PHE25      -0.0202
      7  CD1       13.0350  -10.1880   -5.2320 C.ar   25  PHE25      -0.0042
      8  CD2       11.0510  -11.5280   -5.2100 C.ar   25  PHE25      -0.0042
      9  CE1       12.3510   -9.1780   -5.9140 C.ar   25  PHE25      -0.0003
     10  CE2       10.3570  -10.5170   -5.8990 C.ar   25  PHE25      -0.0003
     11  CZ        11.0040   -9.3500   -6.2470 C.ar   25  PHE25      -0.0000
     12  N         13.0640  -13.8140   -7.2240 N.am   26  CYS26      -0.1970
     13  CA        12.2440  -14.4600   -8.2420 C.3    26  CYS26       0.1712
     14  C         12.8790  -14.3000   -9.6020 C.2    26  CYS26       0.2296
     15  O         13.8220  -13.5420   -9.7720 O.2    26  CYS26      -0.2864
     16  CB        10.8260  -13.8510   -8.3010 C.3    26  CYS26       0.0983
     17  SG         9.6430  -14.4230   -7.0290 S.3    26  CYS26      -0.0798
     18  N          2.6640  -13.4760   -7.3290 N.3    41  HIS41      -0.1241
     19  CA         3.0020  -13.6120   -5.9170 C.3    41  HIS41       0.1621
     20  C          4.3830  -13.0720   -5.5770 C.2    41  HIS41       0.2264
     21  O          4.7270  -12.9620   -4.4150 O.2    41  HIS41      -0.2867
     22  CB         2.8790  -15.0710   -5.4550 C.3    41  HIS41       0.0745
     23  CG         4.0650  -15.9250   -5.7720 C.ar   41  HIS41       0.0817
     24  ND1        4.0240  -16.9360   -6.7080 N.ar   41  HIS41      -0.2268
     25  CD2        5.2840  -16.0030   -5.1880 C.ar   41  HIS41       0.1154
     26  CE1        5.1570  -17.6100   -6.6720 C.ar   41  HIS41       0.1986
     27  NE2        5.9400  -17.0770   -5.7420 N.ar   41  HIS41      -0.2212
     28  N         -3.3040  -18.8760   -5.4280 N.3    86  TYR86      -0.1241
     29  CA        -2.2980  -18.6990   -6.4820 C.3    86  TYR86       0.1605
     30  C         -2.8530  -18.8660   -7.8980 C.2    86  TYR86       0.2264
     31  O         -2.1060  -19.0150   -8.8580 O.2    86  TYR86      -0.2867
     32  CB        -1.0960  -19.6300   -6.2670 C.3    86  TYR86       0.0534
     33  CG        -0.5830  -19.5870   -4.8560 C.ar   86  TYR86      -0.0201
     34  CD1       -0.2650  -18.3700   -4.2540 C.ar   86  TYR86      -0.0009
     35  CD2       -0.5110  -20.7480   -4.0840 C.ar   86  TYR86      -0.0009
     36  CE1        0.0960  -18.3070   -2.9170 C.ar   86  TYR86       0.0417
     37  CE2       -0.1470  -20.6970   -2.7390 C.ar   86  TYR86       0.0417
     38  CZ         0.1510  -19.4710   -2.1630 C.ar   86  TYR86       0.1957
     39  OH         0.4810  -19.3940   -0.8230 O.3    86  TYR86      -0.2866
     40  N         -4.5480  -29.5560   -2.0360 N.3   162  PHE162     -0.1241
     41  CA        -4.7960  -28.2030   -2.5380 C.3   162  PHE162      0.1605
     42  C         -5.4280  -28.2390   -3.9180 C.2   162  PHE162      0.2264
     43  O         -5.2700  -29.1980   -4.6530 O.2   162  PHE162     -0.2867
     44  CB        -3.4940  -27.4060   -2.6150 C.3   162  PHE162      0.0534
     45  CG        -2.7960  -27.2550   -1.2980 C.ar  162  PHE162     -0.0203
     46  CD1       -3.4060  -26.5740   -0.2470 C.ar  162  PHE162     -0.0042
     47  CD2       -1.5210  -27.7880   -1.1070 C.ar  162  PHE162     -0.0042
     48  CE1       -2.7620  -26.4250    0.9710 C.ar  162  PHE162     -0.0003
     49  CE2       -0.8680  -27.6420    0.1110 C.ar  162  PHE162     -0.0003
     50  CZ        -1.4880  -26.9590    1.1530 C.ar  162  PHE162     -0.0000
     51  N         12.8890  -30.6520   -9.6120 N.3   179  ASP179     -0.1225
     52  CA        11.7630  -29.7360   -9.5570 C.3   179  ASP179      0.1805
     53  C         12.2290  -28.2870   -9.5050 C.2   179  ASP179      0.2598
     54  O         13.4070  -28.0060   -9.2640 O.2   179  ASP179     -0.2718
     55  CB        10.9540  -30.0850   -8.3040 C.3   179  ASP179      0.1424
     56  CG         9.6160  -29.3920   -8.2380 C.2   179  ASP179      0.3668
     57  OD1        9.1640  -28.8280   -9.2620 O.co2 179  ASP179     -0.2456
     58  OD2        9.0140  -29.4240   -7.1410 O.co2 179  ASP179     -0.2456
     59  N         11.3160  -27.3600   -9.7670 N.am  180  SER180     -0.1938
     60  CA        11.6710  -25.9550   -9.6420 C.3   180  SER180      0.2055
     61  C         11.4830  -25.7770   -8.1300 C.2   180  SER180      0.2643
     62  O         11.0150  -26.7090   -7.4610 O.2   180  SER180     -0.2714
     63  CB        10.7070  -25.0710  -10.4500 C.3   180  SER180      0.2130
     64  OG         9.3650  -25.3090  -10.0770 O.3   180  SER180     -0.2179
     65  N         11.8370  -24.6180   -7.5790 N.am  181  CYS181     -0.1953
     66  CA        11.7020  -24.4230   -6.1360 C.3   181  CYS181      0.1843
     67  C         11.6540  -22.9260   -5.7490 C.2   181  CYS181      0.2625
     68  O         11.6330  -22.0570   -6.6180 O.2   181  CYS181     -0.2714
     69  CB        12.8740  -25.1500   -5.4440 C.3   181  CYS181      0.0997
     70  SG        12.7380  -25.4450   -3.6450 S.3   181  CYS181     -0.0797
     71  N         11.6220  -22.6350   -4.4480 N.am  182  GLN182     -0.1963
     72  CA        11.5730  -21.2520   -3.9510 C.3   182  GLN182      0.1733
     73  C         12.6390  -20.4160   -4.6300 C.2   182  GLN182      0.2616
     74  O         13.7970  -20.8300   -4.7140 O.2   182  GLN182     -0.2715
     75  CB        11.8330  -21.2030   -2.4470 C.3   182  GLN182      0.0408
     76  CG        11.2030  -22.3450   -1.6970 C.3   182  GLN182      0.0908
     77  CD         9.7170  -22.2320   -1.7170 C.2   182  GLN182      0.2608
     78  OE1        9.0010  -23.2310   -1.6330 O.2   182  GLN182     -0.2717
     79  NE2        9.2280  -20.9990   -1.8280 N.am  182  GLN182     -0.0878
     80  N         12.2550  -19.2290   -5.0860 N.am  183  GLY183     -0.1955
     81  CA        13.2080  -18.3670   -5.7570 C.3   183  GLY183      0.1869
     82  C         13.1050  -18.5050   -7.2660 C.2   183  GLY183      0.2309
     83  O         13.5340  -17.6210   -8.0080 O.2   183  GLY183     -0.2863
     84  N         10.1560  -18.8260   -8.8540 N.3   185  SER185     -0.1217
     85  CA         8.9000  -18.2090   -9.2980 C.3   185  SER185      0.1889
     86  C          9.0690  -17.0440  -10.2830 C.2   185  SER185      0.2288
     87  O         10.0090  -16.2480  -10.1640 O.2   185  SER185     -0.2866
     88  CB         8.0870  -17.7190   -8.0990 C.3   185  SER185      0.2089
     89  OG         7.5690  -18.7900   -7.3300 O.3   185  SER185     -0.2183
     90  N          6.6000  -20.4640  -13.5640 N.3   203  ILE203     -0.1231
     91  CA         6.8780  -21.1830  -12.3220 C.3   203  ILE203      0.1692
     92  C          6.0620  -20.4850  -11.2280 C.2   203  ILE203      0.2593
     93  O          6.2310  -19.2830  -10.9850 O.2   203  ILE203     -0.2718
     94  CB         8.3990  -21.1720  -12.0120 C.3   203  ILE203      0.0266
     95  CG1        9.1550  -21.8860  -13.1490 C.3   203  ILE203      0.0019
     96  CG2        8.6720  -21.8570  -10.6780 C.3   203  ILE203      0.0020
     97  CD1       10.6920  -21.7010  -13.1220 C.3   203  ILE203      0.0001
     98  N          5.1800  -21.2450  -10.5770 N.am  204  SER204     -0.1938
     99  CA         4.2850  -20.6840   -9.5740 C.3   204  SER204      0.2055
    100  C          4.3470  -21.1880   -8.1240 C.2   204  SER204      0.2643
    101  O          4.6050  -20.4060   -7.2120 O.2   204  SER204     -0.2714
    102  CB         2.8420  -20.8040  -10.0820 C.3   204  SER204      0.2130
    103  OG         1.9250  -20.3490   -9.1080 O.3   204  SER204     -0.2179
    104  N          4.0880  -22.4750   -7.8970 N.am  205  TRP205     -0.1959
    105  CA         4.1150  -22.9960   -6.5280 C.3   205  TRP205      0.1771
    106  C          4.2130  -24.5190   -6.4530 C.2   205  TRP205      0.2620
    107  O          4.2860  -25.2040   -7.4750 O.2   205  TRP205     -0.2715
    108  CB         2.8640  -22.5560   -5.7590 C.3   205  TRP205      0.0590
    109  CG         1.5730  -23.0410   -6.3590 C.ar  205  TRP205      0.0006
    110  CD1        0.9290  -22.5300   -7.4500 C.ar  205  TRP205      0.0946
    111  CD2        0.7760  -24.1480   -5.9060 C.ar  205  TRP205      0.0152
    112  NE1       -0.2240  -23.2500   -7.7020 N.ar  205  TRP205     -0.2442
    113  CE2       -0.3370  -24.2490   -6.7710 C.ar  205  TRP205      0.0810
    114  CE3        0.8970  -25.0660   -4.8540 C.ar  205  TRP205      0.0012
    115  CZ2       -1.3200  -25.2280   -6.6170 C.ar  205  TRP205      0.0191
    116  CZ3       -0.0850  -26.0470   -4.7010 C.ar  205  TRP205      0.0001
    117  CH2       -1.1780  -26.1170   -5.5790 C.ar  205  TRP205      0.0015
    118  N          4.2100  -25.0300   -5.2260 N.am  206  GLY206     -0.1940
    119  CA         4.2810  -26.4610   -5.0120 C.3   206  GLY206      0.2014
    120  C          4.3090  -26.7740   -3.5280 C.2   206  GLY206      0.2639
    121  O          4.2250  -25.8680   -2.6910 O.2   206  GLY206     -0.2714
    122  N          4.3910  -28.0540   -3.1960 N.am  207  GLU207     -0.1963
    123  CA         4.4600  -28.4820   -1.8080 C.3   207  GLU207      0.1733
    124  C          5.8760  -28.9680   -1.6120 C.2   207  GLU207      0.2616
    125  O          6.2470  -30.0220   -2.1180 O.2   207  GLU207     -0.2715
    126  CB         3.4780  -29.6180   -1.5290 C.3   207  GLU207      0.0429
    127  CG         2.0420  -29.1790   -1.3790 C.3   207  GLU207      0.1163
    128  CD         1.1280  -30.3360   -1.0120 C.2   207  GLU207      0.3649
    129  OE1        0.5360  -30.9550   -1.9270 O.co2 207  GLU207     -0.2457
    130  OE2        1.0120  -30.6330    0.1970 O.co2 207  GLU207     -0.2457
    131  N          6.6650  -28.2010   -0.8730 N.am  208  GLU208     -0.1963
    132  CA         8.0560  -28.5510   -0.6610 C.3   208  GLU208      0.1733
    133  C          8.6300  -28.5670   -2.0720 C.2   208  GLU208      0.2616
    134  O          8.0080  -28.0390   -2.9980 O.2   208  GLU208     -0.2715
    135  CB         8.1830  -29.9360   -0.0190 C.3   208  GLU208      0.0429
    136  CG         7.5270  -30.0530    1.3520 C.3   208  GLU208      0.1163
    137  CD         7.7760  -31.4050    2.0070 C.2   208  GLU208      0.3649
    138  OE1        8.9550  -31.7480    2.2440 O.co2 208  GLU208     -0.2457
    139  OE2        6.7930  -32.1250    2.2850 O.co2 208  GLU208     -0.2457
    140  N          9.7970  -29.1740   -2.2420 N.am  209  CYS209     -0.1968
    141  CA        10.4130  -29.2430   -3.5540 C.3   209  CYS209      0.1712
    142  C         10.9920  -30.6170   -3.8360 C.2   209  CYS209      0.2296
    143  O         11.5750  -31.2440   -2.9580 O.2   209  CYS209     -0.2864
    144  CB        11.5310  -28.2080   -3.6660 C.3   209  CYS209      0.0983
    145  SG        11.0010  -26.4800   -3.4600 S.3   209  CYS209     -0.0798
    146  N          4.4670  -32.4940   -7.4650 N.3   215  TYR215     -0.1227
    147  CA         4.9210  -31.9250   -8.7330 C.3   215  TYR215      0.1736
    148  C          4.9850  -30.4060   -8.6370 C.2   215  TYR215      0.2596
    149  O          4.4610  -29.8070   -7.7010 O.2   215  TYR215     -0.2718
    150  CB         3.9590  -32.3040   -9.8620 C.3   215  TYR215      0.0548
    151  CG         3.7840  -33.7930  -10.0450 C.ar  215  TYR215     -0.0200
    152  CD1        4.7630  -34.5600  -10.6840 C.ar  215  TYR215     -0.0009
    153  CD2        2.6770  -34.4440   -9.5160 C.ar  215  TYR215     -0.0009
    154  CE1        4.6470  -35.9370  -10.7870 C.ar  215  TYR215      0.0417
    155  CE2        2.5500  -35.8300   -9.6060 C.ar  215  TYR215      0.0417
    156  CZ         3.5370  -36.5680  -10.2390 C.ar  215  TYR215      0.1957
    157  OH         3.4120  -37.9320  -10.3000 O.3   215  TYR215     -0.2866
    158  N          5.6450  -29.7930   -9.6090 N.am  216  GLY216     -0.1942
    159  CA         5.7210  -28.3540   -9.6390 C.3   216  GLY216      0.2014
    160  C          4.4050  -27.9120  -10.2420 C.2   216  GLY216      0.2638
    161  O          3.8700  -28.6000  -11.1060 O.2   216  GLY216     -0.2714
    162  N          3.8510  -26.8060   -9.7620 N.am  217  ILE217     -0.1977
    163  CA         2.6120  -26.2880  -10.3210 C.3   217  ILE217      0.1596
    164  C          2.9880  -25.0270  -11.0910 C.2   217  ILE217      0.2287
    165  O          3.7080  -24.1780  -10.5970 O.2   217  ILE217     -0.2864
    166  CB         1.5710  -25.9380   -9.2290 C.3   217  ILE217      0.0276
    167  CG1        1.3350  -27.1470   -8.3180 C.3   217  ILE217      0.0022
    168  CG2        0.2530  -25.5570   -9.8900 C.3   217  ILE217      0.0022
    169  CD1        0.9100  -28.4000   -9.0740 C.3   217  ILE217      0.0001
@<TRIPOS>BOND
     1    90    91    1
     2    95    97    1
     3    95    94    1
     4    91    94    1
     5    91    92    1
     6    94    96    1
     7    92    93    2
     8    92    98   am
     9   161   160    2
    10   164   165    2
    11   164   163    1
    12   154   152   ar
    13   154   156   ar
    14   152   151   ar
    15    98    99    1
    16    63    64    1
    17    63    60    1
    18   163   162    1
    19   163   166    1
    20   157   156    1
    21    86    87    2
    22    86    85    1
    23   160   162   am
    24   160   159    1
    25   156   155   ar
    26   102    99    1
    27   102   103    1
    28   151   150    1
    29   151   153   ar
    30   168   166    1
    31   150   147    1
    32    15    14    2
    33    59    60    1
    34    59    53   am
    35    60    61    1
    36   159   158    1
    37    51    52    1
    38   158   148   am
    39   155   153   ar
    40    14    13    1
    41    99   100    1
    42    52    53    1
    43    52    55    1
    44    53    54    2
    45    85    84    1
    46    85    88    1
    47    57    56   ar
    48   166   167    1
    49   169   167    1
    50    31    30    2
    51   147   148    1
    52   147   146    1
    53   148   149    2
    54    55    56    1
    55    16    13    1
    56    16    17    1
    57    13    12    1
    58    56    58   ar
    59    61    65   am
    60    61    62    2
    61   100   104   am
    62   100   101    2
    63    88    89    1
    64    83    82    2
    65    30    29    1
    66   104   105    1
    67   112   110   ar
    68   112   113   ar
    69    65    66    1
    70   107   106    2
    71   110   109   ar
    72    18    19    1
    73    82    81    1
    74    12     3   am
    75   113   115   ar
    76   113   111   ar
    77    24    26   ar
    78    24    23   ar
    79    26    27   ar
    80    68    67    2
    81   115   117   ar
    82   105   106    1
    83   105   108    1
    84    29    32    1
    85    29    28    1
    86   106   118   am
    87   109   111   ar
    88   109   108    1
    89    32    33    1
    90    11     9   ar
    91    11    10   ar
    92    66    67    1
    93    66    69    1
    94     3     4    2
    95     3     2    1
    96    19    20    1
    97    19    22    1
    98     9     7   ar
    99   111   114   ar
   100    10     8   ar
   101    23    22    1
   102    23    25   ar
   103    81    80    1
   104    67    71   am
   105    27    25   ar
   106     1     2    1
   107   117   116   ar
   108    20    21    2
   109    69    70    1
   110     7     6   ar
   111   118   119    1
   112     8     6   ar
   113    80    73   am
   114   119   120    1
   115     2     5    1
   116     6     5    1
   117    33    34   ar
   118    33    35   ar
   119   114   116   ar
   120    74    73    2
   121    43    42    2
   122    73    72    1
   123    71    72    1
   124    34    36   ar
   125    35    37   ar
   126    72    75    1
   127    42    41    1
   128   142   141    1
   129   142   143    2
   130   144   141    1
   131   144   145    1
   132    70   145    1
   133   141   140    1
   134   120   122   am
   135   120   121    2
   136   122   123    1
   137   134   133    2
   138    36    38   ar
   139    37    38   ar
   140    44    41    1
   141    44    45    1
   142    41    40    1
   143    75    76    1
   144   140   133   am
   145    38    39    1
   146   125   124    2
   147   133   132    1
   148   129   128   ar
   149    79    77   am
   150   123   124    1
   151   123   126    1
   152    77    76    1
   153    77    78    2
   154   124   131   am
   155   126   127    1
   156   127   128    1
   157    45    47   ar
   158    45    46   ar
   159    47    49   ar
   160   128   130   ar
   161   131   132    1
   162   132   135    1
   163    46    48   ar
   164   135   136    1
   165    49    50   ar
   166    48    50   ar
   167   136   137    1
   168   137   138   ar
   169   137   139   ar
