@<TRIPOS>MOLECULE
tmp/2wpnA01.pdb
 145 135 0 0 0
SMALL
GASTEIGER

@<TRIPOS>ATOM
      1  N         27.4090   -1.8380   -3.2480 N.3     2  PRO2       -0.2116
      2  CA        26.5660   -2.9820   -2.9470 C.3     2  PRO2        0.1372
      3  C         25.3600   -2.5090   -2.1450 C.2     2  PRO2        0.2244
      4  O         25.5110   -1.6670   -1.2510 O.2     2  PRO2       -0.2868
      5  CB        27.4500   -3.8600   -2.0450 C.3     2  PRO2        0.0268
      6  CG        28.6510   -2.9490   -1.6540 C.3     2  PRO2        0.0207
      7  CD        28.8050   -2.0570   -2.8140 C.3     2  PRO2        0.0892
      8  N         22.2210   -2.9140    0.6000 N.3     4  VAL4       -0.1245
      9  CA        21.9730   -3.5250    1.8820 C.3     4  VAL4        0.1561
     10  C         20.4290   -3.4980    2.0520 C.2     4  VAL4        0.2260
     11  O         19.7690   -2.4600    1.7650 O.2     4  VAL4       -0.2867
     12  CB        22.6510   -2.7140    3.0440 C.3     4  VAL4        0.0252
     13  CG1       22.2130   -3.2300    4.4170 C.3     4  VAL4        0.0019
     14  CG2       24.1850   -2.7680    2.9300 C.3     4  VAL4        0.0019
     15  N         17.7960   -4.0750    5.0880 N.3     6  TRP6       -0.1241
     16  CA        17.6840   -4.1730    6.5210 C.3     6  TRP6        0.1605
     17  C         16.3080   -4.7820    6.8520 C.2     6  TRP6        0.2264
     18  O         15.2640   -4.1250    6.7060 O.2     6  TRP6       -0.2867
     19  CB        17.8720   -2.7780    7.1390 C.3     6  TRP6        0.0550
     20  CG        18.0280   -2.7900    8.6490 C.ar    6  TRP6        0.0003
     21  CD1       17.1130   -3.2230    9.5470 C.ar    6  TRP6        0.0946
     22  CD2       19.1350   -2.2770    9.4140 C.ar    6  TRP6        0.0152
     23  NE1       17.5750   -3.0330   10.8410 N.ar    6  TRP6       -0.2442
     24  CE2       18.8250   -2.4650   10.7750 C.ar    6  TRP6        0.0810
     25  CE3       20.3490   -1.6890    9.0770 C.ar    6  TRP6        0.0012
     26  CZ2       19.6950   -2.0950   11.8090 C.ar    6  TRP6        0.0191
     27  CZ3       21.2130   -1.3180   10.0850 C.ar    6  TRP6        0.0001
     28  CH2       20.8600   -1.5250   11.4670 C.ar    6  TRP6        0.0015
     29  N         22.1340    2.7080   16.1420 N.3    19  LEU19      -0.1245
     30  CA        22.9790    3.0770   15.0130 C.3    19  LEU19       0.1561
     31  C         22.8480    4.5880   14.7560 C.2    19  LEU19       0.2260
     32  O         23.8260    5.2420   14.4510 O.2    19  LEU19      -0.2867
     33  CB        22.5990    2.2720   13.7780 C.3    19  LEU19       0.0270
     34  CG        23.4640    2.4800   12.5470 C.3    19  LEU19       0.0019
     35  CD1       24.9580    2.2810   12.9330 C.3    19  LEU19       0.0001
     36  CD2       23.0650    1.4920   11.4640 C.3    19  LEU19       0.0001
     37  N         29.9590    5.4070    4.9560 N.3    30  VAL30      -0.1231
     38  CA        29.4650    4.0410    4.7600 C.3    30  VAL30       0.1692
     39  C         28.1710    4.1370    3.9490 C.2    30  VAL30       0.2591
     40  O         28.0770    3.5670    2.8510 O.2    30  VAL30      -0.2718
     41  CB        29.3040    3.2490    6.0950 C.3    30  VAL30       0.0266
     42  CG1       28.3780    2.0280    5.9360 C.3    30  VAL30       0.0020
     43  CG2       30.6870    2.8320    6.6460 C.3    30  VAL30       0.0020
     44  N         27.2210    4.9220    4.4620 N.am   31  LEU31      -0.1980
     45  CA        25.8650    4.9750    3.9290 C.3    31  LEU31       0.1596
     46  C         25.7550    5.7610    2.6310 C.2    31  LEU31       0.2287
     47  O         24.8560    5.5180    1.8220 O.2    31  LEU31      -0.2864
     48  CB        24.9270    5.5660    4.9860 C.3    31  LEU31       0.0297
     49  CG        24.6140    4.5320    6.0680 C.3    31  LEU31       0.0022
     50  CD1       24.2350    5.2170    7.3570 C.3    31  LEU31       0.0001
     51  CD2       23.4990    3.6760    5.5460 C.3    31  LEU31       0.0001
     52  N         29.8650    3.8620    0.3950 N.3    34  VAL34      -0.1231
     53  CA        30.2970    2.4700    0.4760 C.3    34  VAL34       0.1692
     54  C         29.1900    1.5040    0.0270 C.2    34  VAL34       0.2591
     55  O         29.3610    0.7160   -0.9140 O.2    34  VAL34      -0.2718
     56  CB        30.7610    2.1720    1.9190 C.3    34  VAL34       0.0266
     57  CG1       30.9430    0.6740    2.1450 C.3    34  VAL34       0.0020
     58  CG2       32.0660    2.9530    2.2180 C.3    34  VAL34       0.0020
     59  N         28.0560    1.5660    0.7310 N.am   35  ILE35      -0.1980
     60  CA        26.8970    0.7850    0.3820 C.3    35  ILE35       0.1595
     61  C         25.7010    1.6730   -0.0050 C.2    35  ILE35       0.2287
     62  O         25.7190    2.9110    0.1440 O.2    35  ILE35      -0.2864
     63  CB        26.5240   -0.1920    1.5340 C.3    35  ILE35       0.0276
     64  CG1       26.3610    0.5350    2.8920 C.3    35  ILE35       0.0022
     65  CG2       27.5610   -1.3140    1.6440 C.3    35  ILE35       0.0022
     66  CD1       25.0150    1.1480    3.1210 C.3    35  ILE35       0.0001
     67  N         21.7430    1.6940    1.1470 N.3    37  LEU37      -0.1245
     68  CA        20.7010    1.1670    2.0280 C.3    37  LEU37       0.1561
     69  C         19.3890    1.1750    1.2590 C.2    37  LEU37       0.2260
     70  O         18.6570    2.1820    1.2520 O.2    37  LEU37      -0.2867
     71  CB        20.5950    2.0330    3.2920 C.3    37  LEU37       0.0270
     72  CG        19.6110    1.4630    4.3070 C.3    37  LEU37       0.0019
     73  CD1       19.9770    0.0300    4.7660 C.3    37  LEU37       0.0001
     74  CD2       19.4740    2.4400    5.5090 C.3    37  LEU37       0.0001
     75  N         24.0350   -7.3290    0.7580 N.3    67  PHE67      -0.1241
     76  CA        24.1700   -7.6860    2.1700 C.3    67  PHE67       0.1605
     77  C         22.8580   -7.5540    2.9160 C.2    67  PHE67       0.2264
     78  O         22.1050   -6.6240    2.6680 O.2    67  PHE67      -0.2867
     79  CB        25.1910   -6.7870    2.8110 C.3    67  PHE67       0.0534
     80  CG        26.5730   -7.0180    2.2960 C.ar   67  PHE67      -0.0203
     81  CD1       27.3870   -7.9790    2.8790 C.ar   67  PHE67      -0.0042
     82  CD2       27.0280   -6.3310    1.1780 C.ar   67  PHE67      -0.0042
     83  CE1       28.7020   -8.2220    2.3660 C.ar   67  PHE67      -0.0003
     84  CE2       28.2830   -6.5580    0.6730 C.ar   67  PHE67      -0.0003
     85  CZ        29.1120   -7.5210    1.2430 C.ar   67  PHE67      -0.0000
     86  N         21.1610   -6.9810    6.4860 N.3    69  VAL69      -0.1245
     87  CA        21.1700   -6.7610    7.9170 C.3    69  VAL69       0.1561
     88  C         19.8260   -7.3160    8.4710 C.2    69  VAL69       0.2260
     89  O         18.7590   -6.9180    7.9950 O.2    69  VAL69      -0.2867
     90  CB        21.3660   -5.2600    8.2760 C.3    69  VAL69       0.0252
     91  CG1       21.1800   -5.0810    9.7980 C.3    69  VAL69       0.0019
     92  CG2       22.7640   -4.8020    7.9390 C.3    69  VAL69       0.0019
     93  N         24.5670   -9.8850    8.4110 N.3   110  LEU110     -0.1245
     94  CA        24.8850   -9.3880    9.7280 C.3   110  LEU110      0.1561
     95  C         23.6680   -9.5030   10.6310 C.2   110  LEU110      0.2260
     96  O         22.6720   -8.8290   10.3970 O.2   110  LEU110     -0.2867
     97  CB        25.2760   -7.9220    9.6470 C.3   110  LEU110      0.0270
     98  CG        26.4900   -7.6700    8.7940 C.3   110  LEU110      0.0019
     99  CD1       25.9980   -7.6520    7.3640 C.3   110  LEU110      0.0001
    100  CD2       27.0850   -6.3220    9.1810 C.3   110  LEU110      0.0001
    101  N         28.6590   -2.1080   15.4890 N.3   160  ILE160     -0.1245
    102  CA        28.0260   -2.2590   14.1630 C.3   160  ILE160      0.1561
    103  C         28.8930   -1.5960   13.0810 C.2   160  ILE160      0.2260
    104  O         29.3680   -2.2780   12.1730 O.2   160  ILE160     -0.2867
    105  CB        26.5770   -1.6740   14.1330 C.3   160  ILE160      0.0252
    106  CG1       25.6480   -2.4660   15.0740 C.3   160  ILE160      0.0019
    107  CG2       26.0110   -1.6130   12.6860 C.3   160  ILE160      0.0019
    108  CD1       24.4020   -1.6960   15.4680 C.3   160  ILE160      0.0001
    109  N         31.5510   -3.3310   10.0730 N.3   164  VAL164     -0.1245
    110  CA        31.4520   -2.9880    8.6550 C.3   164  VAL164      0.1561
    111  C         32.8370   -2.5610    8.2050 C.2   164  VAL164      0.2260
    112  O         33.3040   -3.0010    7.1590 O.2   164  VAL164     -0.2867
    113  CB        30.4270   -1.8780    8.3810 C.3   164  VAL164      0.0252
    114  CG1       30.5290   -1.3450    6.9490 C.3   164  VAL164      0.0019
    115  CG2       28.9840   -2.3770    8.6910 C.3   164  VAL164      0.0019
    116  N         35.2260   -5.4670    8.0790 N.3   167  ALA167     -0.1231
    117  CA        34.8160   -6.2070    6.8640 C.3   167  ALA167      0.1694
    118  C         35.1980   -5.5110    5.5460 C.2   167  ALA167      0.2591
    119  O         35.7090   -6.1580    4.6140 O.2   167  ALA167     -0.2718
    120  CB        33.3180   -6.5820    6.8890 C.3   167  ALA167      0.0304
    121  N         35.0270   -4.1850    5.4830 N.am  168  LEU168     -0.1980
    122  CA        35.4000   -3.4000    4.2830 C.3   168  LEU168      0.1596
    123  C         36.8830   -3.4980    3.9540 C.2   168  LEU168      0.2287
    124  O         37.2380   -3.6590    2.7840 O.2   168  LEU168     -0.2864
    125  CB        34.9930   -1.9270    4.4450 C.3   168  LEU168      0.0297
    126  CG        35.3740   -0.8990    3.3620 C.3   168  LEU168      0.0022
    127  CD1       34.5350   -1.0390    2.0950 C.3   168  LEU168      0.0001
    128  CD2       35.3270    0.5580    3.8870 C.3   168  LEU168      0.0001
    129  N         37.9840   -6.9390    2.5420 N.3   171  ILE171     -0.1231
    130  CA        37.5240   -7.1530    1.1660 C.3   171  ILE171      0.1692
    131  C         38.3260   -6.3340    0.2040 C.2   171  ILE171      0.2591
    132  O         38.6800   -6.7900   -0.8840 O.2   171  ILE171     -0.2718
    133  CB        36.0190   -6.8190    1.0480 C.3   171  ILE171      0.0266
    134  CG1       35.2310   -7.8590    1.8320 C.3   171  ILE171      0.0019
    135  CG2       35.5680   -6.7420   -0.4410 C.3   171  ILE171      0.0020
    136  CD1       33.7010   -7.5680    1.9490 C.3   171  ILE171      0.0001
    137  N         38.6560   -5.1170    0.6130 N.am  172  LYS172     -0.1980
    138  CA        39.5730   -4.3190   -0.1850 C.3   172  LYS172      0.1596
    139  C         40.9460   -4.9860   -0.3370 C.2   172  LYS172      0.2287
    140  O         41.5760   -4.8880   -1.4000 O.2   172  LYS172     -0.2864
    141  CB        39.6950   -2.9040    0.3800 C.3   172  LYS172      0.0298
    142  CG        38.4870   -2.0300    0.0980 C.3   172  LYS172      0.0038
    143  CD        38.9000   -0.5840    0.0260 C.3   172  LYS172      0.0206
    144  CE        38.0780    0.2440    0.9670 C.3   172  LYS172      0.1093
    145  NZ        38.8660    1.3370    1.5960 N.3   172  LYS172     -0.1314
@<TRIPOS>BOND
     1     1     2    1
     2     1     7    1
     3     2     3    1
     4     2     5    1
     5     7     6    1
     6     3     4    2
     7     5     6    1
     8   140   139    2
     9    55    54    2
    10   132   131    2
    11   135   133    1
    12   139   138    1
    13   138   141    1
    14   138   137    1
    15    61    62    2
    16    61    60    1
    17   143   142    1
    18   143   144    1
    19    54    53    1
    20    54    59   am
    21   142   141    1
    22   131   137   am
    23   131   130    1
    24    60    59    1
    25    60    63    1
    26    52    53    1
    27    53    56    1
    28     8     9    1
    29    84    82   ar
    30    84    85   ar
    31    75    76    1
    32   144   145    1
    33   133   130    1
    34   133   134    1
    35    67    68    1
    36   130   129    1
    37    82    80   ar
    38    85    83   ar
    39    70    69    2
    40    69    68    1
    41    63    65    1
    42    63    64    1
    43    11    10    2
    44    47    46    2
    45   134   136    1
    46     9    10    1
    47     9    12    1
    48    56    57    1
    49    56    58    1
    50    68    71    1
    51   127   126    1
    52    76    79    1
    53    76    77    1
    54    80    79    1
    55    80    81   ar
    56    83    81   ar
    57    46    45    1
    58    78    77    2
    59   124   123    2
    60    40    39    2
    61    64    66    1
    62    14    12    1
    63    12    13    1
    64    71    72    1
    65   126   128    1
    66   126   125    1
    67    45    44    1
    68    45    48    1
    69    39    44   am
    70    39    38    1
    71   123   122    1
    72   122   125    1
    73   122   121    1
    74    72    73    1
    75    72    74    1
    76   119   118    2
    77    38    37    1
    78    38    41    1
    79    48    49    1
    80    15    16    1
    81   121   118   am
    82   118   117    1
    83    51    49    1
    84    42    41    1
    85    49    50    1
    86    41    43    1
    87    86    87    1
    88    16    17    1
    89    16    19    1
    90    18    17    2
    91   117   120    1
    92   117   116    1
    93   114   113    1
    94    19    20    1
    95   112   111    2
    96    99    98    1
    97    87    90    1
    98    87    88    1
    99    92    90    1
   100    89    88    2
   101   111   110    1
   102    90    91    1
   103   113   110    1
   104   113   115    1
   105    93    94    1
   106    20    22   ar
   107    20    21   ar
   108   110   109    1
   109    98   100    1
   110    98    97    1
   111    25    22   ar
   112    25    27   ar
   113    22    24   ar
   114    21    23   ar
   115    97    94    1
   116    94    95    1
   117    27    28   ar
   118    96    95    2
   119    24    23   ar
   120    24    26   ar
   121    36    34    1
   122    28    26   ar
   123   104   103    2
   124    34    35    1
   125    34    33    1
   126   107   105    1
   127   103   102    1
   128    33    30    1
   129   105   102    1
   130   105   106    1
   131   102   101    1
   132    32    31    2
   133    31    30    1
   134    30    29    1
   135   106   108    1
