@<TRIPOS>MOLECULE
tmp/2wpnB00.pdb
 98 94 0 0 0
SMALL
GASTEIGER

@<TRIPOS>ATOM
      1  N          8.9470   13.5960    7.8580 N.3   112  ALA112     -0.1231
      2  CA         9.2110   14.6980    6.9400 C.3   112  ALA112      0.1694
      3  C          9.2530   14.3030    5.4440 C.2   112  ALA112      0.2591
      4  O          8.8700   15.0970    4.5880 O.2   112  ALA112     -0.2718
      5  CB        10.4690   15.5050    7.3380 C.3   112  ALA112      0.0304
      6  N          9.6720   13.0870    5.1270 N.am  113  GLN113     -0.1979
      7  CA         9.5960   12.6320    3.7300 C.3   113  GLN113      0.1601
      8  C          8.1950   12.5710    3.1080 C.2   113  GLN113      0.2287
      9  O          8.0840   12.4710    1.8870 O.2   113  GLN113     -0.2864
     10  CB        10.3100   11.3120    3.5360 C.3   113  GLN113      0.0394
     11  CG        11.8090   11.3910    3.7870 C.3   113  GLN113      0.0908
     12  CD        12.5240   10.1760    3.2220 C.2   113  GLN113      0.2608
     13  OE1       12.5830    9.9720    1.9980 O.2   113  GLN113     -0.2717
     14  NE2       13.0390    9.3450    4.1020 N.am  113  GLN113     -0.0878
     15  N          8.6070   16.4470    2.2380 N.3   116  VAL116     -0.1231
     16  CA         9.9280   16.8900    1.7370 C.3   116  VAL116      0.1692
     17  C         10.5480   15.8190    0.8280 C.2   116  VAL116      0.2592
     18  O         10.6000   14.6380    1.2050 O.2   116  VAL116     -0.2718
     19  CB        10.9100   17.1990    2.8950 C.3   116  VAL116      0.0266
     20  CG1       12.2350   17.7950    2.3410 C.3   116  VAL116      0.0020
     21  CG2       10.2550   18.1520    3.9560 C.3   116  VAL116      0.0020
     22  N         10.9930   16.2400   -0.3580 N.am  117  GLN117     -0.1966
     23  CA        11.6720   15.3740   -1.3320 C.3   117  GLN117      0.1733
     24  C         13.1650   15.2070   -0.9640 C.2   117  GLN117      0.2617
     25  O         13.8790   16.1820   -0.8800 O.2   117  GLN117     -0.2715
     26  CB        11.5150   15.9880   -2.7330 C.3   117  GLN117      0.0408
     27  CG        12.3810   15.3890   -3.8320 C.3   117  GLN117      0.0908
     28  CD        11.8900   14.0310   -4.2740 C.2   117  GLN117      0.2608
     29  OE1       10.8220   13.9080   -4.8690 O.2   117  GLN117     -0.2717
     30  NE2       12.6690   13.0000   -3.9860 N.am  117  GLN117     -0.0878
     31  N         13.6170   13.9830   -0.6990 N.am  118  GLY118     -0.1941
     32  CA        15.0060   13.7330   -0.3870 C.3   118  GLY118      0.1998
     33  C         15.8370   13.6790   -1.6590 C.2   118  GLY118      0.2480
     34  O         15.2780   13.6790   -2.7530 O.2   118  GLY118     -0.2729
     35  N         17.1750   13.6050   -1.5350 N.am  119  PRO119     -0.2726
     36  CA        17.9650   13.5980   -2.7710 C.3   119  PRO119      0.1402
     37  C         17.9860   12.2360   -3.4710 C.2   119  PRO119      0.2269
     38  O         17.5580   11.2510   -2.9060 O.2   119  PRO119     -0.2865
     39  CB        19.3720   13.9790   -2.2860 C.3   119  PRO119      0.0296
     40  CG        19.4360   13.3690   -0.8750 C.3   119  PRO119      0.0237
     41  CD        18.0110   13.3500   -0.3410 C.3   119  PRO119      0.0939
     42  N         19.3890    9.4750   -3.7850 N.3   121  THR121     -0.1218
     43  CA        20.2010    8.4060   -3.1800 C.3   121  THR121      0.1862
     44  C         19.3070    7.5520   -2.2940 C.2   121  THR121      0.2287
     45  O         18.3950    8.0900   -1.6630 O.2   121  THR121     -0.2866
     46  CB        21.3730    8.9790   -2.3360 C.3   121  THR121      0.1770
     47  OG1       22.0370    7.9090   -1.6510 O.3   121  THR121     -0.2211
     48  CG2       20.8820    9.9850   -1.2950 C.3   121  THR121      0.0375
     49  N         16.1670    7.3680   -0.0150 N.3   124  PHE124     -0.1241
     50  CA        15.2590    8.4970   -0.2730 C.3   124  PHE124      0.1605
     51  C         14.5640    8.3440   -1.6170 C.2   124  PHE124      0.2264
     52  O         13.6250    9.0690   -1.9400 O.2   124  PHE124     -0.2867
     53  CB        16.0280    9.8260   -0.1620 C.3   124  PHE124      0.0534
     54  CG        16.7640    9.9620    1.1370 C.ar  124  PHE124     -0.0203
     55  CD1       16.0510   10.0200    2.3460 C.ar  124  PHE124     -0.0042
     56  CD2       18.1680    9.9710    1.1670 C.ar  124  PHE124     -0.0042
     57  CE1       16.7180   10.1020    3.5730 C.ar  124  PHE124     -0.0003
     58  CE2       18.8620   10.0580    2.3830 C.ar  124  PHE124     -0.0003
     59  CZ        18.1210   10.1150    3.6080 C.ar  124  PHE124     -0.0000
     60  N         13.8800   21.8430    4.7850 N.3   143  GLY143     -0.1210
     61  CA        13.4350   20.5520    5.2440 C.3   143  GLY143      0.1956
     62  C         14.5620   19.5380    5.2950 C.2   143  GLY143      0.2611
     63  O         14.6940   18.8530    6.3040 O.2   143  GLY143     -0.2717
     64  N         15.3590   19.4550    4.2100 N.am  144  VAL144     -0.1979
     65  CA        16.5340   18.5710    4.1030 C.3   144  VAL144      0.1595
     66  C         17.6350   18.9710    5.0850 C.2   144  VAL144      0.2287
     67  O         18.2010   18.1250    5.7960 O.2   144  VAL144     -0.2864
     68  CB        17.1890   18.5680    2.6780 C.3   144  VAL144      0.0276
     69  CG1       18.4720   17.7230    2.6750 C.3   144  VAL144      0.0022
     70  CG2       16.2460   18.1040    1.5810 C.3   144  VAL144      0.0022
     71  N         16.5520   18.0290    8.5940 N.3   147  TYR147     -0.1227
     72  CA        16.5100   16.5770    8.8320 C.3   147  TYR147      0.1736
     73  C         17.9400   16.1250    9.2160 C.2   147  TYR147      0.2595
     74  O         18.1610   15.3670   10.1580 O.2   147  TYR147     -0.2718
     75  CB        15.9520   15.8780    7.5780 C.3   147  TYR147      0.0548
     76  CG        16.0840   14.3730    7.4800 C.ar  147  TYR147     -0.0200
     77  CD1       14.9590   13.5820    7.2770 C.ar  147  TYR147     -0.0009
     78  CD2       17.3270   13.7450    7.4810 C.ar  147  TYR147     -0.0009
     79  CE1       15.0530   12.2040    7.1040 C.ar  147  TYR147      0.0417
     80  CE2       17.4270   12.3570    7.3250 C.ar  147  TYR147      0.0417
     81  CZ        16.2670   11.5970    7.1560 C.ar  147  TYR147      0.1957
     82  OH        16.3190   10.2310    6.9980 O.3   147  TYR147     -0.2866
     83  N         18.9150   16.6670    8.5260 N.am  148  ILE148     -0.1980
     84  CA        20.3040   16.3940    8.8140 C.3   148  ILE148      0.1595
     85  C         20.7270   16.9420   10.1910 C.2   148  ILE148      0.2287
     86  O         21.3080   16.2040   11.0030 O.2   148  ILE148     -0.2864
     87  CB        21.1710   16.9580    7.6720 C.3   148  ILE148      0.0276
     88  CG1       20.9330   16.1610    6.4010 C.3   148  ILE148      0.0022
     89  CG2       22.6570   17.0330    8.0620 C.3   148  ILE148      0.0022
     90  CD1       21.4750   16.8290    5.1980 C.3   148  ILE148      0.0001
     91  N         19.4750   14.9620   13.0660 N.3   151  LEU151     -0.1245
     92  CA        20.2070   13.7140   13.3380 C.3   151  LEU151      0.1561
     93  C         21.1970   13.9550   14.4750 C.2   151  LEU151      0.2260
     94  O         21.3780   13.0840   15.3250 O.2   151  LEU151     -0.2867
     95  CB        20.9240   13.1760   12.0850 C.3   151  LEU151      0.0270
     96  CG        20.1590   12.5070   10.9150 C.3   151  LEU151      0.0019
     97  CD1       21.1050   12.4100    9.6850 C.3   151  LEU151      0.0001
     98  CD2       19.6110   11.1190   11.2640 C.3   151  LEU151      0.0001
@<TRIPOS>BOND
     1    29    28    2
     2    28    30   am
     3    28    27    1
     4    27    26    1
     5    42    43    1
     6    37    38    2
     7    37    36    1
     8    43    46    1
     9    43    44    1
    10    36    39    1
    11    36    35    1
    12    34    33    2
    13    26    23    1
    14    46    47    1
    15    46    48    1
    16    44    45    2
    17    39    40    1
    18    52    51    2
    19    33    35   am
    20    33    32    1
    21    51    50    1
    22    35    41    1
    23    23    24    1
    24    23    22    1
    25    24    25    2
    26    24    31   am
    27    40    41    1
    28    31    32    1
    29    22    17   am
    30    50    53    1
    31    50    49    1
    32    53    54    1
    33    17    18    2
    34    17    16    1
    35    54    56   ar
    36    54    55   ar
    37    56    58   ar
    38    70    68    1
    39    16    15    1
    40    16    19    1
    41     9     8    2
    42    13    12    2
    43    20    19    1
    44    55    57   ar
    45    58    59   ar
    46    69    68    1
    47    68    65    1
    48    19    21    1
    49     8     7    1
    50    12    11    1
    51    12    14   am
    52    10     7    1
    53    10    11    1
    54    57    59   ar
    55     7     6    1
    56    65    64    1
    57    65    66    1
    58    64    62   am
    59     4     3    2
    60    60    61    1
    61    66    67    2
    62     6     3   am
    63    90    88    1
    64    61    62    1
    65    62    63    2
    66     3     2    1
    67    88    87    1
    68     2     5    1
    69     2     1    1
    70    82    81    1
    71    79    81   ar
    72    79    77   ar
    73    81    80   ar
    74    77    76   ar
    75    80    78   ar
    76    76    78   ar
    77    76    75    1
    78    75    72    1
    79    87    89    1
    80    87    84    1
    81    83    84    1
    82    83    73   am
    83    71    72    1
    84    84    85    1
    85    72    73    1
    86    73    74    2
    87    97    96    1
    88    85    86    2
    89    96    98    1
    90    96    95    1
    91    95    92    1
    92    91    92    1
    93    92    93    1
    94    93    94    2
