@<TRIPOS>MOLECULE
tmp/2wpoC00.pdb
 211 206 0 0 0
SMALL
GASTEIGER

@<TRIPOS>ATOM
      1  N         78.5190    0.7520   17.2410 N.3    28  GLU28      -0.1231
      2  CA        77.1590    1.2960   17.0970 C.3    28  GLU28       0.1699
      3  C         76.8140    1.9140   15.7350 C.2    28  GLU28       0.2592
      4  O         75.6630    2.2750   15.4970 O.2    28  GLU28      -0.2718
      5  CB        76.8500    2.3010   18.2040 C.3    28  GLU28       0.0402
      6  CG        77.7730    3.4720   18.2140 C.3    28  GLU28       0.1161
      7  CD        77.1940    4.6850   18.9060 C.2    28  GLU28       0.3649
      8  OE1       75.9780    4.7350   19.1950 O.co2  28  GLU28      -0.2457
      9  OE2       77.9780    5.6130   19.1570 O.co2  28  GLU28      -0.2457
     10  N         77.8030    2.0560   14.8560 N.am   29  LEU29      -0.1980
     11  CA        77.5630    2.6230   13.5320 C.3    29  LEU29       0.1596
     12  C         77.1800    1.5770   12.4870 C.2    29  LEU29       0.2287
     13  O         76.8180    1.9260   11.3540 O.2    29  LEU29      -0.2864
     14  CB        78.7770    3.4260   13.0560 C.3    29  LEU29       0.0297
     15  CG        79.0050    4.7030   13.8540 C.3    29  LEU29       0.0022
     16  CD1       80.3400    5.2970   13.5270 C.3    29  LEU29       0.0001
     17  CD2       77.8760    5.6760   13.5760 C.3    29  LEU29       0.0001
     18  N         64.3390   -1.7200    7.1120 N.3    39  TRP39      -0.1241
     19  CA        63.8720   -0.4770    7.6880 C.3    39  TRP39       0.1605
     20  C         63.0780    0.3280    6.6760 C.2    39  TRP39       0.2264
     21  O         61.9160    0.6700    6.9320 O.2    39  TRP39      -0.2867
     22  CB        65.0480    0.3490    8.1600 C.3    39  TRP39       0.0550
     23  CG        65.6490   -0.1320    9.4330 C.ar   39  TRP39       0.0003
     24  CD1       65.3480   -1.2790   10.1010 C.ar   39  TRP39       0.0946
     25  CD2       66.6450    0.5410   10.2060 C.ar   39  TRP39       0.0152
     26  NE1       66.0940   -1.3630   11.2430 N.ar   39  TRP39      -0.2442
     27  CE2       66.9000   -0.2590   11.3370 C.ar   39  TRP39       0.0810
     28  CE3       67.3470    1.7430   10.0530 C.ar   39  TRP39       0.0012
     29  CZ2       67.8310    0.1040   12.3200 C.ar   39  TRP39       0.0191
     30  CZ3       68.2750    2.1080   11.0270 C.ar   39  TRP39       0.0001
     31  CH2       68.5070    1.2870   12.1480 C.ar   39  TRP39       0.0015
     32  N         73.4850   19.7360   12.0250 N.3    53  ASN53      -0.1225
     33  CA        74.0630   18.8650   13.0320 C.3    53  ASN53       0.1785
     34  C         73.0900   18.3450   14.0800 C.2    53  ASN53       0.2597
     35  O         73.2580   18.5950   15.2600 O.2    53  ASN53      -0.2718
     36  CB        75.2510   19.5160   13.7130 C.3    53  ASN53       0.1169
     37  CG        76.0710   18.5210   14.4880 C.2    53  ASN53       0.2627
     38  OD1       75.6420   17.3950   14.7230 O.2    53  ASN53      -0.2716
     39  ND2       77.2820   18.9040   14.8430 N.am   53  ASN53      -0.0877
     40  N         72.0260   17.6910   13.6400 N.am   54  HIS54      -0.1975
     41  CA        71.0600   17.0960   14.5540 C.3    54  HIS54       0.1656
     42  C         70.2650   17.9920   15.4910 C.2    54  HIS54       0.2291
     43  O         69.4660   17.4670   16.2710 O.2    54  HIS54      -0.2864
     44  CB        71.7350   16.0400   15.4220 C.3    54  HIS54       0.0771
     45  CG        72.3530   14.9200   14.6540 C.ar   54  HIS54       0.0820
     46  ND1       71.6120   13.8970   14.1010 N.ar   54  HIS54      -0.2267
     47  CD2       73.6480   14.6390   14.3840 C.ar   54  HIS54       0.1154
     48  CE1       72.4240   13.0340   13.5210 C.ar   54  HIS54       0.1986
     49  NE2       73.6630   13.4580   13.6810 N.ar   54  HIS54      -0.2212
     50  N         67.3460   19.9770   16.6860 N.3    56  ASP56      -0.1239
     51  CA        65.9470   20.0540   16.3230 C.3    56  ASP56       0.1674
     52  C         65.4560   21.4640   16.0380 C.2    56  ASP56       0.2266
     53  O         64.4750   21.6430   15.3300 O.2    56  ASP56      -0.2867
     54  CB        65.0770   19.3470   17.3750 C.3    56  ASP56       0.1410
     55  CG        65.7310   19.2940   18.7550 C.2    56  ASP56       0.3668
     56  OD1       66.7430   18.5650   18.9290 O.co2  56  ASP56      -0.2456
     57  OD2       65.2160   19.9730   19.6730 O.co2  56  ASP56      -0.2456
     58  N         77.2770   14.4740    5.7450 N.3   122  LEU122     -0.1231
     59  CA        75.8990   14.0600    5.8940 C.3   122  LEU122      0.1693
     60  C         75.8980   13.0550    7.0390 C.2   122  LEU122      0.2593
     61  O         76.7730   12.1910    7.1110 O.2   122  LEU122     -0.2718
     62  CB        75.4290   13.3940    4.5790 C.3   122  LEU122      0.0284
     63  CG        74.1050   13.8070    3.9180 C.3   122  LEU122      0.0019
     64  CD1       74.0890   15.2830    3.5410 C.3   122  LEU122      0.0001
     65  CD2       73.8600   12.9460    2.7170 C.3   122  LEU122      0.0001
     66  N         74.9590   13.1900    7.9630 N.am  123  SER123     -0.1938
     67  CA        74.8900   12.2470    9.0540 C.3   123  SER123      0.2055
     68  C         73.4730   11.8630    9.4050 C.2   123  SER123      0.2643
     69  O         72.6810   12.7010    9.8230 O.2   123  SER123     -0.2714
     70  CB        75.5990   12.7810   10.2810 C.3   123  SER123      0.2130
     71  OG        75.4080   11.8640   11.3490 O.3   123  SER123     -0.2179
     72  N         73.1660   10.5840    9.2190 N.am  124  LEU124     -0.1963
     73  CA        71.8510   10.0310    9.5260 C.3   124  LEU124      0.1728
     74  C         71.6500    9.8530   11.0390 C.2   124  LEU124      0.2617
     75  O         72.6110    9.7130   11.8000 O.2   124  LEU124     -0.2715
     76  CB        71.6680    8.6790    8.8170 C.3   124  LEU124      0.0311
     77  CG        70.3450    7.9000    8.9530 C.3   124  LEU124      0.0022
     78  CD1       69.1730    8.6150    8.2990 C.3   124  LEU124      0.0001
     79  CD2       70.5250    6.5420    8.3340 C.3   124  LEU124      0.0001
     80  N         70.3940    9.9290   11.4580 N.am  125  SER125     -0.1936
     81  CA        70.0020    9.7450   12.8450 C.3   125  SER125      0.2055
     82  C         69.0320    8.5730   12.7270 C.2   125  SER125      0.2644
     83  O         68.0420    8.6610   11.9950 O.2   125  SER125     -0.2714
     84  CB        69.2800   10.9970   13.3700 C.3   125  SER125      0.2130
     85  OG        68.6190   10.7850   14.6120 O.3   125  SER125     -0.2179
     86  N         69.3150    7.4680   13.4060 N.am  126  SER126     -0.1935
     87  CA        68.4390    6.3140   13.3020 C.3   126  SER126      0.2055
     88  C         68.3240    5.4760   14.5720 C.2   126  SER126      0.2643
     89  O         68.9440    5.7740   15.5950 O.2   126  SER126     -0.2714
     90  CB        68.8810    5.4420   12.1130 C.3   126  SER126      0.2130
     91  OG        70.2900    5.4720   11.9570 O.3   126  SER126     -0.2179
     92  N         67.4810    4.4510   14.4860 N.am  127  ARG127     -0.1963
     93  CA        67.2290    3.4980   15.5600 C.3   127  ARG127      0.1729
     94  C         68.5490    2.8820   16.0440 C.2   127  ARG127      0.2616
     95  O         69.5080    2.7720   15.2830 O.2   127  ARG127     -0.2715
     96  CB        66.2930    2.4180   15.0040 C.3   127  ARG127      0.0348
     97  CG        65.8280    1.3470   15.9540 C.3   127  ARG127      0.0492
     98  CD        64.5560    0.7010   15.4110 C.3   127  ARG127      0.2205
     99  NE        63.4590    1.6700   15.3300 N.pl3 127  ARG127     -0.0865
    100  CZ        62.2780    1.4490   14.7390 C.cat 127  ARG127      0.5346
    101  NH1       62.0000    0.2750   14.1570 N.pl3 127  ARG127      0.1354
    102  NH2       61.3640    2.4190   14.7200 N.pl3 127  ARG127      0.1354
    103  N         68.6190    2.5170   17.3190 N.am  128  ARG128     -0.1963
    104  CA        69.8390    1.9140   17.8480 C.3   128  ARG128      0.1729
    105  C         69.9550    0.4950   17.3040 C.2   128  ARG128      0.2616
    106  O         69.4020   -0.4600   17.8640 O.2   128  ARG128     -0.2715
    107  CB        69.8130    1.8970   19.3690 C.3   128  ARG128      0.0348
    108  CG        71.1850    1.7940   19.9820 C.3   128  ARG128      0.0492
    109  CD        71.1930    2.4090   21.3610 C.3   128  ARG128      0.2205
    110  NE        72.3340    3.2890   21.5880 N.pl3 128  ARG128     -0.0865
    111  CZ        73.6070    2.9810   21.3390 C.cat 128  ARG128      0.5346
    112  NH1       73.9420    1.8030   20.8170 N.pl3 128  ARG128      0.1354
    113  NH2       74.5670    3.8090   21.7360 N.pl3 128  ARG128      0.1354
    114  N         70.6400    0.3900   16.1770 N.am  129  CYS129     -0.1968
    115  CA        70.8460   -0.8620   15.4750 C.3   129  CYS129      0.1712
    116  C         71.9890   -1.6790   16.0770 C.2   129  CYS129      0.2296
    117  O         73.1350   -1.5960   15.6240 O.2   129  CYS129     -0.2864
    118  CB        71.1000   -0.5340   14.0110 C.3   129  CYS129      0.0983
    119  SG        71.7790   -1.8460   13.0910 S.3   129  CYS129     -0.0798
    120  N         65.0210    8.3790   11.6600 N.3   139  LYS139     -0.1231
    121  CA        64.6270    9.5930   12.3450 C.3   139  LYS139      0.1693
    122  C         64.8180   10.9020   11.5700 C.2   139  LYS139      0.2592
    123  O         63.8670   11.6460   11.3660 O.2   139  LYS139     -0.2718
    124  CB        65.3830    9.5940   13.6750 C.3   139  LYS139      0.0285
    125  CG        65.1930   10.7470   14.6000 C.3   139  LYS139      0.0035
    126  CD        65.8530   10.3710   15.9150 C.3   139  LYS139      0.0206
    127  CE        65.7500   11.4600   16.9570 C.3   139  LYS139      0.1093
    128  NZ        66.6620   12.5910   16.6630 N.3   139  LYS139     -0.1314
    129  N         66.0370   11.2000   11.1490 N.am  140  HIS140     -0.1976
    130  CA        66.2830   12.4400   10.4400 C.3   140  HIS140      0.1656
    131  C         67.6990   12.4660    9.9180 C.2   140  HIS140      0.2291
    132  O         68.5330   11.6780   10.3630 O.2   140  HIS140     -0.2864
    133  CB        66.0300   13.6380   11.3660 C.3   140  HIS140      0.0771
    134  CG        67.0970   13.8790   12.3990 C.ar  140  HIS140      0.0820
    135  ND1       66.8800   13.6960   13.7490 N.ar  140  HIS140     -0.2267
    136  CD2       68.3380   14.4170   12.2930 C.ar  140  HIS140      0.1154
    137  CE1       67.9300   14.1240   14.4300 C.ar  140  HIS140      0.1986
    138  NE2       68.8280   14.5670   13.5700 N.ar  140  HIS140     -0.2212
    139  N         76.5640   18.1640    8.6800 N.3   144  CYS144     -0.1221
    140  CA        77.6130   18.4340    9.6560 C.3   144  CYS144      0.1808
    141  C         79.0100   18.6080    9.0840 C.2   144  CYS144      0.2602
    142  O         79.2350   18.3340    7.9180 O.2   144  CYS144     -0.2717
    143  CB        77.6100   17.3500   10.7430 C.3   144  CYS144      0.0970
    144  SG        77.3890   15.6440   10.1870 S.3   144  CYS144     -0.0800
    145  N         79.9450   19.0990    9.8890 N.am  145  SER145     -0.1938
    146  CA        81.2940   19.3000    9.3890 C.3   145  SER145      0.2055
    147  C         81.7740   18.0200    8.7370 C.2   145  SER145      0.2643
    148  O         82.2360   18.0560    7.6070 O.2   145  SER145     -0.2714
    149  CB        82.2590   19.7560   10.4870 C.3   145  SER145      0.2130
    150  OG        82.3210   18.8350   11.5670 O.3   145  SER145     -0.2179
    151  N         81.6390   16.8960    9.4420 N.am  146  VAL146     -0.1963
    152  CA        82.0170   15.5800    8.9190 C.3   146  VAL146      0.1727
    153  C         80.9570   14.5810    9.3180 C.2   146  VAL146      0.2617
    154  O         79.9270   14.9330    9.9090 O.2   146  VAL146     -0.2715
    155  CB        83.3300   15.0410    9.5030 C.3   146  VAL146      0.0290
    156  CG1       84.5080   15.5880    8.7690 C.3   146  VAL146      0.0023
    157  CG2       83.4180   15.3490   10.9740 C.3   146  VAL146      0.0023
    158  N         81.2390   13.3220    9.0230 N.am  147  GLY147     -0.1940
    159  CA        80.3330   12.2520    9.3740 C.3   147  GLY147      0.2014
    160  C         81.1150   11.2210   10.1590 C.2   147  GLY147      0.2639
    161  O         82.3380   11.1170   10.0410 O.2   147  GLY147     -0.2714
    162  N         80.4130   10.4870   11.0080 N.am  148  ARG148     -0.1963
    163  CA        81.0410    9.4500   11.8090 C.3   148  ARG148      0.1729
    164  C         81.1900    8.2220   10.9220 C.2   148  ARG148      0.2616
    165  O         82.0450    7.3670   11.1450 O.2   148  ARG148     -0.2715
    166  CB        80.1780    9.1440   13.0310 C.3   148  ARG148      0.0348
    167  CG        79.9110   10.3630   13.8840 C.3   148  ARG148      0.0492
    168  CD        78.9590   10.0200   14.9730 C.3   148  ARG148      0.2205
    169  NE        79.5440    9.0120   15.8340 N.pl3 148  ARG148     -0.0865
    170  CZ        78.8560    8.0420   16.4170 C.cat 148  ARG148      0.5346
    171  NH1       77.5420    7.9480   16.2380 N.pl3 148  ARG148      0.1354
    172  NH2       79.4980    7.1310   17.1370 N.pl3 148  ARG148      0.1354
    173  N         80.3460    8.1390    9.9080 N.am  149  ARG149     -0.1977
    174  CA        80.4160    7.0350    8.9900 C.3   149  ARG149      0.1597
    175  C         81.1070    7.5330    7.7320 C.2   149  ARG149      0.2287
    176  O         80.6450    8.4930    7.1320 O.2   149  ARG149     -0.2864
    177  CB        79.0070    6.5260    8.7050 C.3   149  ARG149      0.0334
    178  CG        78.4340    5.7140    9.8740 C.3   149  ARG149      0.0492
    179  CD        77.2040    4.9200    9.5030 C.3   149  ARG149      0.2205
    180  NE        76.0260    5.7630    9.4940 N.pl3 149  ARG149     -0.0865
    181  CZ        75.0580    5.6800   10.3880 C.cat 149  ARG149      0.5346
    182  NH1       75.1290    4.7890   11.3670 N.pl3 149  ARG149      0.1354
    183  NH2       74.0030    6.4700   10.2780 N.pl3 149  ARG149      0.1354
    184  N         86.9510   18.4140   16.1090 N.3   205  ILE205     -0.1231
    185  CA        86.7790   17.0180   15.6930 C.3   205  ILE205      0.1692
    186  C         88.0830   16.6310   15.0150 C.2   205  ILE205      0.2591
    187  O         88.4110   17.1480   13.9610 O.2   205  ILE205     -0.2718
    188  CB        85.6290   16.9060   14.6820 C.3   205  ILE205      0.0266
    189  CG1       84.2970   16.9340   15.4050 C.3   205  ILE205      0.0019
    190  CG2       85.7490   15.6670   13.8600 C.3   205  ILE205      0.0020
    191  CD1       83.1740   16.9610   14.4630 C.3   205  ILE205      0.0001
    192  N         88.8270   15.7280   15.6210 N.am  206  ARG206     -0.1980
    193  CA        90.1220   15.3360   15.0910 C.3   206  ARG206      0.1597
    194  C         90.0740   14.5760   13.7630 C.2   206  ARG206      0.2287
    195  O         89.1480   13.8110   13.4960 O.2   206  ARG206     -0.2864
    196  CB        90.9290   14.5980   16.1830 C.3   206  ARG206      0.0334
    197  CG        91.2840   15.5230   17.4090 C.3   206  ARG206      0.0492
    198  CD        91.6150   14.8110   18.7300 C.3   206  ARG206      0.2205
    199  NE        92.9420   14.2030   18.7130 N.pl3 206  ARG206     -0.0865
    200  CZ        93.7760   14.1530   19.7520 C.cat 206  ARG206      0.5346
    201  NH1       93.4330   14.6810   20.9260 N.pl3 206  ARG206      0.1354
    202  NH2       94.9720   13.5790   19.6130 N.pl3 206  ARG206      0.1354
    203  N         89.5130   12.8320    6.8060 N.3   211  LYS211     -0.1245
    204  CA        88.3330   12.0110    6.6020 C.3   211  LYS211      0.1561
    205  C         87.6110   12.4770    5.3610 C.2   211  LYS211      0.2260
    206  O         87.2760   11.6650    4.4970 O.2   211  LYS211     -0.2867
    207  CB        87.4090   12.0880    7.8170 C.3   211  LYS211      0.0271
    208  CG        87.9400   11.3570    9.0570 C.3   211  LYS211      0.0035
    209  CD        87.5740   12.0490   10.3570 C.3   211  LYS211      0.0206
    210  CE        87.1070   11.0490   11.3710 C.3   211  LYS211      0.1093
    211  NZ        85.6480   10.8310   11.1770 N.3   211  LYS211     -0.1314
@<TRIPOS>BOND
     1    65    63    1
     2    64    63    1
     3    63    62    1
     4   206   205    2
     5    62    59    1
     6   205   204    1
     7    58    59    1
     8    59    60    1
     9   204   203    1
    10   204   207    1
    11    20    21    2
    12    20    19    1
    13    60    61    2
    14    60    66   am
    15    18    19    1
    16   176   175    2
    17   148   147    2
    18    19    22    1
    19   175   174    1
    20   207   208    1
    21   142   141    2
    22    66    67    1
    23    22    23    1
    24    78    77    1
    25    79    77    1
    26   139   140    1
    27   177   174    1
    28   177   178    1
    29   147   146    1
    30   147   151   am
    31   156   155    1
    32    76    77    1
    33    76    73    1
    34   152   153    1
    35   152   151    1
    36   152   155    1
    37   174   173    1
    38   158   153   am
    39   158   159    1
    40    67    68    1
    41    67    70    1
    42   208   209    1
    43   141   140    1
    44   141   145   am
    45    72    68   am
    46    72    73    1
    47   153   154    2
    48   159   160    1
    49   146   145    1
    50   146   149    1
    51    68    69    2
    52    23    24   ar
    53    23    25   ar
    54   180   179    1
    55   180   181    2
    56   155   157    1
    57   179   178    1
    58    73    74    1
    59   140   143    1
    60   173   164   am
    61   131   132    2
    62   131   130    1
    63   161   160    2
    64    28    25   ar
    65    28    30   ar
    66    24    26   ar
    67   160   162   am
    68   144   143    1
    69    25    27   ar
    70   183   181    1
    71    70    71    1
    72   209   210    1
    73   181   182    1
    74   130   129    1
    75   130   133    1
    76   149   150    1
    77   164   165    2
    78   164   163    1
    79   162   163    1
    80    30    31   ar
    81    74    80   am
    82    74    75    2
    83   129   122   am
    84   211   210    1
    85    26    27   ar
    86    27    29   ar
    87    13    12    2
    88   133   134    1
    89   123   122    2
    90    80    81    1
    91   122   121    1
    92   120   121    1
    93   163   166    1
    94    91    90    1
    95    83    82    2
    96    32    33    1
    97    90    87    1
    98    31    29   ar
    99   136   134   ar
   100   136   138   ar
   101   121   124    1
   102   134   135   ar
   103    12    11    1
   104    82    81    1
   105    82    86   am
   106    81    84    1
   107   166   167    1
   108    33    36    1
   109    33    34    1
   110    14    11    1
   111    14    15    1
   112   119   118    1
   113    87    86    1
   114    87    88    1
   115    84    85    1
   116   195   194    2
   117    48    49   ar
   118    48    46   ar
   119    16    15    1
   120    11    10    1
   121   138   137   ar
   122    17    15    1
   123    40    34   am
   124    40    41    1
   125   124   125    1
   126    49    47   ar
   127    36    37    1
   128   135   137   ar
   129   194   193    1
   130   190   188    1
   131   167   168    1
   132   187   186    2
   133   118   115    1
   134    34    35    2
   135    46    45   ar
   136   101   100    1
   137    47    45   ar
   138   191   189    1
   139    92    88   am
   140    92    93    1
   141    37    38    2
   142    37    39   am
   143    41    44    1
   144    41    42    1
   145    88    89    2
   146   125   126    1
   147    45    44    1
   148   188   189    1
   149   188   185    1
   150   102   100    1
   151   100    99    2
   152    10     3   am
   153   168   169    1
   154    96    93    1
   155    96    97    1
   156   186   192   am
   157   186   185    1
   158   193   192    1
   159   193   196    1
   160    95    94    2
   161    99    98    1
   162    53    52    2
   163    98    97    1
   164   115   116    1
   165   115   114    1
   166    42    43    2
   167     4     3    2
   168    93    94    1
   169   117   116    2
   170   185   184    1
   171     3     2    1
   172   169   170    2
   173   126   127    1
   174    52    51    1
   175    94   103   am
   176   114   105   am
   177   196   197    1
   178   171   170    1
   179    51    50    1
   180    51    54    1
   181   170   172    1
   182   128   127    1
   183     2     1    1
   184     2     5    1
   185   105   104    1
   186   105   106    2
   187   103   104    1
   188    54    55    1
   189   197   198    1
   190   104   107    1
   191     5     6    1
   192     6     7    1
   193   199   198    1
   194   199   200    2
   195    55    56   ar
   196    55    57   ar
   197     7     9   ar
   198     7     8   ar
   199   107   108    1
   200   202   200    1
   201   200   201    1
   202   108   109    1
   203   112   111    1
   204   111   110    2
   205   111   113    1
   206   109   110    1
