@<TRIPOS>MOLECULE
tmp/2wpuA00.pdb
 154 145 0 0 0
SMALL
GASTEIGER

@<TRIPOS>ATOM
      1  N          9.4500   32.7410   -4.7770 N.3    11  ASN11      -0.1240
      2  CA        10.6920   33.4530   -4.4710 C.3    11  ASN11       0.1653
      3  C         10.8680   34.7320   -5.2870 C.2    11  ASN11       0.2266
      4  O         10.0170   35.0850   -6.1120 O.2    11  ASN11      -0.2867
      5  CB        11.9220   32.5220   -4.5480 C.3    11  ASN11       0.1155
      6  CG        12.3470   32.1740   -5.9710 C.2    11  ASN11       0.2627
      7  OD1       11.8680   32.7400   -6.9560 O.2    11  ASN11      -0.2716
      8  ND2       13.2800   31.2350   -6.0740 N.am   11  ASN11      -0.0877
      9  N         12.7460   35.4550   -7.6780 N.3    13  LEU13      -0.1245
     10  CA        12.9200   35.2350   -9.1140 C.3    13  LEU13       0.1561
     11  C         11.6020   34.9130   -9.8210 C.2    13  LEU13       0.2260
     12  O         11.5520   34.8770  -11.0530 O.2    13  LEU13      -0.2867
     13  CB        13.9120   34.0940   -9.3540 C.3    13  LEU13       0.0270
     14  CG        15.3360   34.3080   -8.8360 C.3    13  LEU13       0.0019
     15  CD1       16.1280   33.0090   -8.8920 C.3    13  LEU13       0.0001
     16  CD2       16.0390   35.4050   -9.6240 C.3    13  LEU13       0.0001
     17  N          9.9670   32.0330   -9.0890 N.3    15  SER15      -0.1217
     18  CA         9.8500   30.5760   -9.0580 C.3    15  SER15       0.1889
     19  C          8.7800   30.1390   -8.0630 C.2    15  SER15       0.2288
     20  O          8.5000   30.8470   -7.0980 O.2    15  SER15      -0.2866
     21  CB        11.1920   29.9380   -8.7000 C.3    15  SER15       0.2089
     22  OG        12.1860   30.2990   -9.6420 O.3    15  SER15      -0.2183
     23  N          8.8260   21.7670   -7.7500 N.3    31  TYR31      -0.1241
     24  CA         9.4700   23.0660   -7.9010 C.3    31  TYR31       0.1605
     25  C          9.4150   23.4890   -9.3620 C.2    31  TYR31       0.2264
     26  O          9.6840   22.6840  -10.2540 O.2    31  TYR31      -0.2867
     27  CB        10.9310   22.9950   -7.4400 C.3    31  TYR31       0.0534
     28  CG        11.5310   24.3490   -7.1230 C.ar   31  TYR31      -0.0201
     29  CD1       12.0300   25.1670   -8.1320 C.ar   31  TYR31      -0.0009
     30  CD2       11.5930   24.8150   -5.8100 C.ar   31  TYR31      -0.0009
     31  CE1       12.5750   26.4130   -7.8440 C.ar   31  TYR31       0.0417
     32  CE2       12.1370   26.0560   -5.5140 C.ar   31  TYR31       0.0417
     33  CZ        12.6210   26.8530   -6.5310 C.ar   31  TYR31       0.1957
     34  OH        13.1560   28.0880   -6.2360 O.3    31  TYR31      -0.2866
     35  N         11.0610   26.5330  -11.6560 N.3    33  SER33      -0.1217
     36  CA        11.9960   27.6500  -11.7270 C.3    33  SER33       0.1889
     37  C         11.5940   28.6430  -12.8120 C.2    33  SER33       0.2288
     38  O         11.3390   28.2530  -13.9510 O.2    33  SER33      -0.2866
     39  CB        13.4090   27.1430  -12.0100 C.3    33  SER33       0.2089
     40  OG        14.3220   28.2230  -12.0680 O.3    33  SER33      -0.2183
     41  N         13.7030   30.8190  -13.8880 N.3    35  VAL35      -0.1231
     42  CA        14.9440   31.0850  -14.6210 C.3    35  VAL35       0.1692
     43  C         15.6960   29.8000  -14.9520 C.2    35  VAL35       0.2593
     44  O         15.3920   28.7260  -14.4220 O.2    35  VAL35      -0.2718
     45  CB        15.8940   32.0110  -13.8190 C.3    35  VAL35       0.0266
     46  CG1       15.2190   33.3430  -13.5070 C.3    35  VAL35       0.0020
     47  CG2       16.3690   31.3240  -12.5350 C.3    35  VAL35       0.0020
     48  N         16.6720   29.9240  -15.8470 N.am   36  GLY36      -0.1942
     49  CA        17.6230   28.8540  -16.1150 C.3    36  GLY36       0.2014
     50  C         17.1460   27.7820  -17.0750 C.2    36  GLY36       0.2639
     51  O         16.1010   27.9140  -17.7210 O.2    36  GLY36      -0.2714
     52  N         17.9390   26.7180  -17.1630 N.am   37  ASN37      -0.1958
     53  CA        17.6570   25.5780  -18.0290 C.3    37  ASN37       0.1819
     54  C         16.6420   24.6570  -17.3540 C.2    37  ASN37       0.2621
     55  O         16.9760   23.5740  -16.8600 O.2    37  ASN37      -0.2715
     56  CB        18.9620   24.8360  -18.3500 C.3    37  ASN37       0.1195
     57  CG        18.7850   23.7390  -19.3920 C.2    37  ASN37       0.2630
     58  OD1       17.7310   23.6170  -20.0220 O.2    37  ASN37      -0.2716
     59  ND2       19.8280   22.9330  -19.5750 N.am   37  ASN37      -0.0877
     60  N         15.3960   25.1160  -17.3330 N.am   38  ALA38      -0.1977
     61  CA        14.3200   24.4230  -16.6430 C.3    38  ALA38       0.1597
     62  C         12.9910   24.7750  -17.2840 C.2    38  ALA38       0.2287
     63  O         12.8150   25.8850  -17.7770 O.2    38  ALA38      -0.2864
     64  CB        14.3060   24.8090  -15.1710 C.3    38  ALA38       0.0319
     65  N         17.3920   18.4680  -11.6330 N.3    67  TRP67      -0.1241
     66  CA        16.7880   19.1960  -12.7460 C.3    67  TRP67       0.1605
     67  C         16.5540   18.3060  -13.9670 C.2    67  TRP67       0.2264
     68  O         16.9110   18.6610  -15.0910 O.2    67  TRP67      -0.2867
     69  CB        17.6360   20.4270  -13.0880 C.3    67  TRP67       0.0550
     70  CG        17.6620   21.4130  -11.9670 C.ar   67  TRP67       0.0003
     71  CD1       18.7120   21.6930  -11.1380 C.ar   67  TRP67       0.0946
     72  CD2       16.5740   22.2260  -11.5250 C.ar   67  TRP67       0.0152
     73  NE1       18.3460   22.6420  -10.2160 N.ar   67  TRP67      -0.2442
     74  CE2       17.0360   22.9850  -10.4310 C.ar   67  TRP67       0.0810
     75  CE3       15.2470   22.3880  -11.9490 C.ar   67  TRP67       0.0012
     76  CZ2       16.2230   23.8990   -9.7600 C.ar   67  TRP67       0.0191
     77  CZ3       14.4400   23.2970  -11.2830 C.ar   67  TRP67       0.0001
     78  CH2       14.9310   24.0390  -10.1970 C.ar   67  TRP67       0.0015
     79  N         18.9340   19.0580  -17.1890 N.3    74  ALA74      -0.1245
     80  CA        20.0490   19.9970  -17.1130 C.3    74  ALA74       0.1562
     81  C         21.2740   19.4090  -16.3950 C.2    74  ALA74       0.2260
     82  O         22.2290   20.1310  -16.1220 O.2    74  ALA74      -0.2867
     83  CB        19.6010   21.2890  -16.4330 C.3    74  ALA74       0.0290
     84  N         22.0070   18.5170  -13.3560 N.3    76  SER76      -0.1217
     85  CA        22.3740   19.2760  -12.1790 C.3    76  SER76       0.1889
     86  C         21.3380   19.0730  -11.0890 C.2    76  SER76       0.2288
     87  O         20.2540   18.5240  -11.3310 O.2    76  SER76      -0.2866
     88  CB        22.5230   20.7600  -12.5280 C.3    76  SER76       0.2089
     89  OG        21.3750   21.2540  -13.1880 O.3    76  SER76      -0.2183
     90  N         19.9920   21.2180   -7.3450 N.3    78  THR78      -0.1218
     91  CA        20.0810   22.3040   -6.3830 C.3    78  THR78       0.1862
     92  C         19.5730   21.8290   -5.0350 C.2    78  THR78       0.2287
     93  O         18.5420   21.1570   -4.9540 O.2    78  THR78      -0.2866
     94  CB        19.2460   23.5150   -6.8160 C.3    78  THR78       0.1770
     95  OG1       19.6790   23.9510   -8.1070 O.3    78  THR78      -0.2211
     96  CG2       19.3990   24.6660   -5.8130 C.3    78  THR78       0.0375
     97  N         18.5240   23.5770   -1.3290 N.3    80  TRP80      -0.1241
     98  CA        18.2600   24.7850   -0.5610 C.3    80  TRP80       0.1605
     99  C         18.3630   24.4260    0.9160 C.2    80  TRP80       0.2264
    100  O         17.7580   23.4580    1.3620 O.2    80  TRP80      -0.2867
    101  CB        16.8470   25.3080   -0.8290 C.3    80  TRP80       0.0550
    102  CG        16.6070   25.9380   -2.1650 C.ar   80  TRP80       0.0003
    103  CD1       16.5210   27.2690   -2.4320 C.ar   80  TRP80       0.0946
    104  CD2       16.3530   25.2640   -3.4030 C.ar   80  TRP80       0.0152
    105  NE1       16.2490   27.4720   -3.7620 N.ar   80  TRP80      -0.2442
    106  CE2       16.1390   26.2560   -4.3820 C.ar   80  TRP80       0.0810
    107  CE3       16.2940   23.9170   -3.7820 C.ar   80  TRP80       0.0012
    108  CZ2       15.8750   25.9470   -5.7160 C.ar   80  TRP80       0.0191
    109  CZ3       16.0260   23.6090   -5.1080 C.ar   80  TRP80       0.0001
    110  CH2       15.8210   24.6230   -6.0590 C.ar   80  TRP80       0.0015
    111  N         21.4250   28.4130   -1.2910 N.3    96  TRP96      -0.1241
    112  CA        21.4100   27.2020   -2.1080 C.3    96  TRP96       0.1605
    113  C         22.7380   26.9090   -2.7880 C.2    96  TRP96       0.2264
    114  O         23.5550   27.8040   -2.9940 O.2    96  TRP96      -0.2867
    115  CB        20.2710   27.2300   -3.1380 C.3    96  TRP96       0.0550
    116  CG        20.1970   28.4490   -4.0130 C.ar   96  TRP96       0.0003
    117  CD1       19.3490   29.5070   -3.8680 C.ar   96  TRP96       0.0946
    118  CD2       20.9680   28.7150   -5.1900 C.ar   96  TRP96       0.0152
    119  NE1       19.5580   30.4240   -4.8640 N.ar   96  TRP96      -0.2442
    120  CE2       20.5470   29.9640   -5.6920 C.ar   96  TRP96       0.0810
    121  CE3       21.9870   28.0270   -5.8600 C.ar   96  TRP96       0.0012
    122  CZ2       21.1030   30.5370   -6.8370 C.ar   96  TRP96       0.0191
    123  CZ3       22.5380   28.5970   -6.9970 C.ar   96  TRP96       0.0001
    124  CH2       22.0960   29.8380   -7.4730 C.ar   96  TRP96       0.0015
    125  N         23.9210   24.8510   -6.2840 N.3    98  LEU98      -0.1245
    126  CA        23.5700   24.1800   -7.5380 C.3    98  LEU98       0.1561
    127  C         24.8200   23.5050   -8.0900 C.2    98  LEU98       0.2260
    128  O         25.7530   24.1840   -8.5120 O.2    98  LEU98      -0.2867
    129  CB        23.0280   25.2000   -8.5430 C.3    98  LEU98       0.0270
    130  CG        22.4710   24.7060   -9.8880 C.3    98  LEU98       0.0019
    131  CD1       21.8350   25.8680  -10.6410 C.3    98  LEU98       0.0001
    132  CD2       23.5360   24.0520  -10.7430 C.3    98  LEU98       0.0001
    133  N         26.4740   20.9200  -10.9330 N.3   100  SER100     -0.1217
    134  CA        26.2890   20.2870  -12.2330 C.3   100  SER100      0.1889
    135  C         27.2250   19.1000  -12.3870 C.2   100  SER100      0.2288
    136  O         28.3370   19.1010  -11.8580 O.2   100  SER100     -0.2866
    137  CB        26.5550   21.2910  -13.3520 C.3   100  SER100      0.2089
    138  OG        25.5920   22.3240  -13.3290 O.3   100  SER100     -0.2183
    139  N         27.4180   26.4330   -8.2660 N.3   112  LEU112     -0.1245
    140  CA        26.9610   27.8030   -8.0510 C.3   112  LEU112      0.1561
    141  C         26.3720   27.9240   -6.6510 C.2   112  LEU112      0.2260
    142  O         25.8260   26.9590   -6.1140 O.2   112  LEU112     -0.2867
    143  CB        25.9020   28.2020   -9.0770 C.3   112  LEU112      0.0270
    144  CG        26.3620   28.4180  -10.5190 C.3   112  LEU112      0.0019
    145  CD1       25.1620   28.3840  -11.4580 C.3   112  LEU112      0.0001
    146  CD2       27.1230   29.7320  -10.6450 C.3   112  LEU112      0.0001
    147  N         17.7750   32.3680   -1.9500 N.3   116  ASP116     -0.1239
    148  CA        16.3810   32.6230   -2.3060 C.3   116  ASP116      0.1674
    149  C         15.5680   32.8920   -1.0480 C.2   116  ASP116      0.2266
    150  O         15.7500   32.2250   -0.0300 O.2   116  ASP116     -0.2867
    151  CB        15.7660   31.4080   -3.0030 C.3   116  ASP116      0.1410
    152  CG        16.2860   31.1950   -4.4030 C.2   116  ASP116      0.3668
    153  OD1       17.0050   32.0660   -4.9370 O.co2 116  ASP116     -0.2456
    154  OD2       15.9650   30.1330   -4.9740 O.co2 116  ASP116     -0.2456
@<TRIPOS>BOND
     1    58    57    2
     2    59    57   am
     3    57    56    1
     4    56    53    1
     5    53    54    1
     6    53    52    1
     7    63    62    2
     8    51    50    2
     9    54    60   am
    10    54    55    2
    11    60    61    1
    12    62    61    1
    13    79    80    1
    14    52    50   am
    15    80    83    1
    16    80    81    1
    17    50    49    1
    18    61    64    1
    19    81    82    2
    20    49    48    1
    21    48    43   am
    22    68    67    2
    23    43    42    1
    24    43    44    2
    25    42    41    1
    26    42    45    1
    27    67    66    1
    28    38    37    2
    29    45    46    1
    30    45    47    1
    31    84    85    1
    32   137   138    1
    33   137   134    1
    34    89    88    1
    35    69    66    1
    36    69    70    1
    37    37    36    1
    38    66    65    1
    39    88    85    1
    40   135   134    1
    41   135   136    2
    42   134   133    1
    43    85    86    1
    44    40    39    1
    45    39    36    1
    46    70    72   ar
    47    70    71   ar
    48    75    72   ar
    49    75    77   ar
    50    36    35    1
    51    72    74   ar
    52   145   144    1
    53    87    86    2
    54    77    78   ar
    55    71    73   ar
    56    12    11    2
    57   132   130    1
    58   146   144    1
    59   131   130    1
    60   144   143    1
    61    74    73   ar
    62    74    76   ar
    63    26    25    2
    64    78    76   ar
    65   130   129    1
    66    11    10    1
    67    22    21    1
    68    16    14    1
    69    25    24    1
    70    13    10    1
    71    13    14    1
    72    10     9    1
    73    17    18    1
    74   143   140    1
    75    18    21    1
    76    18    19    1
    77    15    14    1
    78   129   126    1
    79   128   127    2
    80   139   140    1
    81    29    31   ar
    82    29    28   ar
    83    95    94    1
    84   127   126    1
    85    19    20    2
    86   140   141    1
    87    24    23    1
    88    24    27    1
    89    31    33   ar
    90   126   125    1
    91   124   123   ar
    92   124   122   ar
    93    27    28    1
    94    90    91    1
    95    28    30   ar
    96   123   121   ar
    97     7     6    2
    98   122   120   ar
    99    94    91    1
   100    94    96    1
   101   141   142    2
   102    33    34    1
   103    33    32   ar
   104    91    92    1
   105     4     3    2
   106     8     6   am
   107   110   108   ar
   108   110   109   ar
   109     6     5    1
   110   121   118   ar
   111    30    32   ar
   112   108   106   ar
   113   120   118   ar
   114   120   119   ar
   115     3     2    1
   116   118   116   ar
   117   109   107   ar
   118    92    93    2
   119   154   152   ar
   120   153   152   ar
   121   119   117   ar
   122     1     2    1
   123     5     2    1
   124   152   151    1
   125   106   105   ar
   126   106   104   ar
   127   116   117   ar
   128   116   115    1
   129   107   104   ar
   130   105   103   ar
   131   104   102   ar
   132   115   112    1
   133   151   148    1
   134   114   113    2
   135   113   112    1
   136   103   102   ar
   137   148   147    1
   138   148   149    1
   139   102   101    1
   140   112   111    1
   141    97    98    1
   142   149   150    2
   143   101    98    1
   144    98    99    1
   145    99   100    2
