@<TRIPOS>MOLECULE
tmp/2wpxA00.pdb
 225 221 0 0 0
SMALL
GASTEIGER

@<TRIPOS>ATOM
      1  N        -73.5230   93.9120   39.2030 N.3    27  ALA27      -0.1245
      2  CA       -74.1820   95.1080   39.8070 C.3    27  ALA27       0.1562
      3  C        -73.1650   96.0030   40.5060 C.2    27  ALA27       0.2260
      4  O        -73.3700   97.2110   40.5740 O.2    27  ALA27      -0.2867
      5  CB       -75.3340   94.7560   40.8130 C.3    27  ALA27       0.0290
      6  N        -72.5920  101.4740   44.5770 N.3    32  PRO32      -0.2116
      7  CA       -71.8230  102.3600   45.4660 C.3    32  PRO32       0.1372
      8  C        -70.3300  102.0320   45.4440 C.2    32  PRO32       0.2244
      9  O        -69.9410  100.9060   45.1980 O.2    32  PRO32      -0.2868
     10  CB       -72.3990  102.0560   46.8490 C.3    32  PRO32       0.0268
     11  CG       -73.7020  101.3340   46.5700 C.3    32  PRO32       0.0207
     12  CD       -73.5400  100.6220   45.3060 C.3    32  PRO32       0.0892
     13  N        -83.3010   93.2450   55.8960 N.3    83  VAL83      -0.1245
     14  CA       -82.9810   92.9880   54.5040 C.3    83  VAL83       0.1561
     15  C        -81.5040   93.0700   54.2730 C.2    83  VAL83       0.2260
     16  O        -80.9750   94.1440   54.1830 O.2    83  VAL83      -0.2867
     17  CB       -83.7370   93.9390   53.5410 C.3    83  VAL83       0.0252
     18  CG1      -83.3740   93.6240   52.0960 C.3    83  VAL83       0.0019
     19  CG2      -85.2420   93.7590   53.7530 C.3    83  VAL83       0.0019
     20  N        -81.2070   93.1780   48.7340 N.3    86  LEU86      -0.1231
     21  CA       -82.2890   93.2290   47.7600 C.3    86  LEU86       0.1693
     22  C        -81.7070   93.8430   46.4750 C.2    86  LEU86       0.2592
     23  O        -81.5230   95.0480   46.3840 O.2    86  LEU86      -0.2718
     24  CB       -83.4820   94.0640   48.3040 C.3    86  LEU86       0.0284
     25  CG       -84.8060   93.9170   47.5420 C.3    86  LEU86       0.0019
     26  CD1      -85.9920   94.2760   48.4050 C.3    86  LEU86       0.0001
     27  CD2      -84.8180   94.7410   46.1820 C.3    86  LEU86       0.0001
     28  N        -81.4530   93.0200   45.4680 N.am   87  LEU87      -0.1966
     29  CA       -80.6540   93.4230   44.3180 C.3    87  LEU87       0.1728
     30  C        -81.3170   92.9930   42.9750 C.2    87  LEU87       0.2616
     31  O        -81.8090   91.8620   42.8250 O.2    87  LEU87      -0.2715
     32  CB       -79.2550   92.7990   44.4620 C.3    87  LEU87       0.0311
     33  CG       -78.0970   93.1180   43.5020 C.3    87  LEU87       0.0022
     34  CD1      -76.8130   92.4950   43.9320 C.3    87  LEU87       0.0001
     35  CD2      -78.4190   92.5260   42.1750 C.3    87  LEU87       0.0001
     36  N        -81.3670   93.9060   42.0160 N.am   88  VAL88      -0.1977
     37  CA       -82.0050   93.6250   40.7370 C.3    88  VAL88       0.1596
     38  C        -80.9160   93.8350   39.6790 C.2    88  VAL88       0.2287
     39  O        -80.1240   94.7850   39.7760 O.2    88  VAL88      -0.2864
     40  CB       -83.2490   94.5370   40.5540 C.3    88  VAL88       0.0276
     41  CG1      -83.8160   94.4900   39.1470 C.3    88  VAL88       0.0022
     42  CG2      -84.3540   94.1450   41.5210 C.3    88  VAL88       0.0022
     43  N        -82.1050   94.8750   34.1290 N.3    92  ARG92      -0.1231
     44  CA       -83.5700   94.5860   34.2100 C.3    92  ARG92       0.1694
     45  C        -84.2960   95.4360   35.2310 C.2    92  ARG92       0.2592
     46  O        -85.2950   94.9870   35.8290 O.2    92  ARG92      -0.2718
     47  CB       -83.8270   93.0880   34.5210 C.3    92  ARG92       0.0321
     48  CG       -83.0160   92.1290   33.6370 C.3    92  ARG92       0.0489
     49  CD       -83.8780   91.5070   32.5420 C.3    92  ARG92       0.2205
     50  NE       -84.4310   92.4700   31.6140 N.pl3  92  ARG92      -0.0865
     51  CZ       -85.7100   92.5540   31.2520 C.cat  92  ARG92       0.5346
     52  NH1      -86.6100   91.7100   31.7040 N.pl3  92  ARG92       0.1354
     53  NH2      -86.0770   93.4780   30.3790 N.pl3  92  ARG92       0.1354
     54  N        -83.7730   96.6440   35.4550 N.am   93  ARG93      -0.1966
     55  CA       -84.3170   97.5870   36.4500 C.3    93  ARG93       0.1729
     56  C        -85.5100   98.4180   35.9500 C.2    93  ARG93       0.2616
     57  O        -85.7050   98.6090   34.7440 O.2    93  ARG93      -0.2715
     58  CB       -83.1930   98.4630   37.0160 C.3    93  ARG93       0.0348
     59  CG       -82.8450   98.1530   38.4950 C.3    93  ARG93       0.0492
     60  CD       -81.5170   97.3660   38.8400 C.3    93  ARG93       0.2205
     61  NE       -80.4550   98.3170   38.9760 N.pl3  93  ARG93      -0.0865
     62  CZ       -79.2820   98.1910   39.5840 C.cat  93  ARG93       0.5346
     63  NH1      -78.8530   97.1020   40.1810 N.pl3  93  ARG93       0.1354
     64  NH2      -78.4890   99.2270   39.5270 N.pl3  93  ARG93       0.1354
     65  N        -86.3540   98.8740   36.8620 N.am   94  ARG94      -0.1963
     66  CA       -87.5530   99.6050   36.4890 C.3    94  ARG94       0.1729
     67  C        -88.5800   98.7840   35.6980 C.2    94  ARG94       0.2616
     68  O        -89.2150   99.2850   34.7880 O.2    94  ARG94      -0.2715
     69  CB       -87.1850  100.8790   35.7150 C.3    94  ARG94       0.0348
     70  CG       -86.3610  101.8090   36.5250 C.3    94  ARG94       0.0492
     71  CD       -87.1480  102.3260   37.7670 C.3    94  ARG94       0.2205
     72  NE       -86.8940  103.7480   37.9040 N.pl3  94  ARG94      -0.0865
     73  CZ       -87.8110  104.6790   37.8840 C.cat  94  ARG94       0.5346
     74  NH1      -89.0760  104.3570   37.8120 N.pl3  94  ARG94       0.1354
     75  NH2      -87.4470  105.9200   38.0220 N.pl3  94  ARG94       0.1354
     76  N        -88.7860   97.5530   36.1240 N.am   95  ARG95      -0.1963
     77  CA       -89.5850   96.6100   35.3920 C.3    95  ARG95       0.1729
     78  C        -90.4860   95.9180   36.4490 C.2    95  ARG95       0.2617
     79  O        -91.3500   95.0910   36.1330 O.2    95  ARG95      -0.2715
     80  CB       -88.6220   95.6390   34.6720 C.3    95  ARG95       0.0348
     81  CG       -88.9500   95.2470   33.2420 C.3    95  ARG95       0.0492
     82  CD       -88.2710   96.0570   32.1800 C.3    95  ARG95       0.2205
     83  NE       -86.8540   96.0780   32.3890 N.pl3  95  ARG95      -0.0865
     84  CZ       -86.0000   96.7780   31.6430 C.cat  95  ARG95       0.5346
     85  NH1      -86.4350   97.4960   30.6190 N.pl3  95  ARG95       0.1354
     86  NH2      -84.7080   96.7640   31.9200 N.pl3  95  ARG95       0.1354
     87  N        -90.3270   96.3080   37.7140 N.am   96  GLY96      -0.1940
     88  CA       -91.1760   95.7740   38.7910 C.3    96  GLY96       0.2014
     89  C        -90.5790   94.6180   39.6010 C.2    96  GLY96       0.2639
     90  O        -91.2220   94.1150   40.5240 O.2    96  GLY96      -0.2714
     91  N        -89.3420   94.2240   39.2640 N.am   97  ILE97      -0.1963
     92  CA       -88.6710   93.0850   39.8800 C.3    97  ILE97       0.1727
     93  C        -88.3460   93.4100   41.3640 C.2    97  ILE97       0.2617
     94  O        -88.6060   92.6270   42.2770 O.2    97  ILE97      -0.2715
     95  CB       -87.3680   92.6830   39.1030 C.3    97  ILE97       0.0290
     96  CG1      -87.6820   92.3160   37.6580 C.3    97  ILE97       0.0022
     97  CG2      -86.6350   91.5200   39.8370 C.3    97  ILE97       0.0023
     98  CD1      -86.4210   92.0590   36.7650 C.3    97  ILE97       0.0001
     99  N        -87.7920   94.5840   41.5890 N.am   98  GLY98      -0.1940
    100  CA       -87.5650   95.0200   42.9700 C.3    98  GLY98       0.2014
    101  C        -88.8720   95.0230   43.7600 C.2    98  GLY98       0.2638
    102  O        -88.9340   94.5430   44.9270 O.2    98  GLY98      -0.2714
    103  N        -89.9220   95.5610   43.1490 N.am   99  ARG99      -0.1977
    104  CA       -91.1990   95.5820   43.8280 C.3    99  ARG99       0.1597
    105  C        -91.6320   94.1750   44.2450 C.2    99  ARG99       0.2287
    106  O        -92.0750   93.9400   45.3740 O.2    99  ARG99      -0.2864
    107  CB       -92.3010   96.1860   42.9400 C.3    99  ARG99       0.0334
    108  CG       -93.6720   96.1450   43.5970 C.3    99  ARG99       0.0492
    109  CD       -94.6970   96.8500   42.7130 C.3    99  ARG99       0.2205
    110  NE       -94.6750   98.3050   42.8680 N.pl3  99  ARG99      -0.0865
    111  CZ       -94.1120   99.1550   42.0150 C.cat  99  ARG99       0.5346
    112  NH1      -93.5080   98.7100   40.8950 N.pl3  99  ARG99       0.1354
    113  NH2      -94.1790  100.4600   42.2800 N.pl3  99  ARG99       0.1354
    114  N        -89.6430   92.9160   47.2040 N.3   102  TRP102     -0.1241
    115  CA       -90.0870   93.5120   48.4050 C.3   102  TRP102      0.1605
    116  C        -91.3860   92.8550   48.8820 C.2   102  TRP102      0.2264
    117  O        -91.6000   92.6510   50.1010 O.2   102  TRP102     -0.2867
    118  CB       -90.3450   94.9830   48.1120 C.3   102  TRP102      0.0550
    119  CG       -90.8470   95.6420   49.2860 C.ar  102  TRP102      0.0003
    120  CD1      -92.1480   95.8970   49.5900 C.ar  102  TRP102      0.0946
    121  CD2      -90.0730   96.0760   50.4060 C.ar  102  TRP102      0.0152
    122  NE1      -92.2360   96.5420   50.8180 N.ar  102  TRP102     -0.2442
    123  CE2      -90.9730   96.6490   51.3400 C.ar  102  TRP102      0.0810
    124  CE3      -88.6960   96.0860   50.6970 C.ar  102  TRP102      0.0012
    125  CZ2      -90.5430   97.1830   52.5420 C.ar  102  TRP102      0.0191
    126  CZ3      -88.2730   96.6170   51.9090 C.ar  102  TRP102      0.0001
    127  CH2      -89.1980   97.1480   52.8160 C.ar  102  TRP102      0.0015
    128  N        -83.8540   97.9850   56.9680 N.3   119  ALA119     -0.1231
    129  CA       -83.0120   98.1010   55.8260 C.3   119  ALA119      0.1694
    130  C        -82.0030   99.2220   55.9910 C.2   119  ALA119      0.2593
    131  O        -82.3080  100.2590   56.5790 O.2   119  ALA119     -0.2718
    132  CB       -83.9000   98.3570   54.5640 C.3   119  ALA119      0.0304
    133  N        -80.8090   99.0000   55.4730 N.am  120  THR120     -0.1939
    134  CA       -79.8240  100.0350   55.3230 C.3   120  THR120      0.2028
    135  C        -79.7600  100.5400   53.8520 C.2   120  THR120      0.2642
    136  O        -79.5650   99.7680   52.9140 O.2   120  THR120     -0.2714
    137  CB       -78.4680   99.5620   55.7450 C.3   120  THR120      0.1808
    138  OG1      -78.5650   99.0220   57.0630 O.3   120  THR120     -0.2208
    139  CG2      -77.5300  100.7160   55.7910 C.3   120  THR120      0.0379
    140  N        -79.9180  101.8410   53.6670 N.am  121  VAL121     -0.1977
    141  CA       -80.0130  102.3740   52.3410 C.3   121  VAL121      0.1596
    142  C        -78.8500  103.2780   52.1190 C.2   121  VAL121      0.2287
    143  O        -78.4900  104.0920   52.9960 O.2   121  VAL121     -0.2864
    144  CB       -81.3140  103.1670   52.1600 C.3   121  VAL121      0.0276
    145  CG1      -81.3620  103.7220   50.7530 C.3   121  VAL121      0.0022
    146  CG2      -82.5520  102.2650   52.5050 C.3   121  VAL121      0.0022
    147  N        -76.3850  107.7940   43.9720 N.3   132  ASP132     -0.1225
    148  CA       -77.6320  107.3530   43.3420 C.3   132  ASP132      0.1790
    149  C        -78.8640  107.4590   44.2750 C.2   132  ASP132      0.2440
    150  O        -78.9480  106.7930   45.2930 O.2   132  ASP132     -0.2733
    151  CB       -77.4750  105.9340   42.8180 C.3   132  ASP132      0.1423
    152  CG       -78.6050  105.5220   41.8430 C.2   132  ASP132      0.3668
    153  OD1      -78.4370  104.4480   41.2180 O.co2 132  ASP132     -0.2456
    154  OD2      -79.6620  106.2080   41.7250 O.co2 132  ASP132     -0.2456
    155  N        -79.8420  108.2780   43.9070 N.am  133  PRO133     -0.2718
    156  CA       -81.0450  108.4590   44.7390 C.3   133  PRO133      0.1535
    157  C        -82.1080  107.3130   44.5750 C.2   133  PRO133      0.2599
    158  O        -83.1180  107.2640   45.2970 O.2   133  PRO133     -0.2715
    159  CB       -81.5720  109.8270   44.2750 C.3   133  PRO133      0.0310
    160  CG       -81.1800  109.8340   42.7720 C.3   133  PRO133      0.0237
    161  CD       -79.8200  109.1390   42.7180 C.3   133  PRO133      0.0939
    162  N        -81.8510  106.3930   43.6380 N.am  134  GLY134     -0.1941
    163  CA       -82.7010  105.2000   43.4170 C.3   134  GLY134      0.1998
    164  C        -83.1320  104.4350   44.6560 C.2   134  GLY134      0.2480
    165  O        -84.3140  104.3640   44.9730 O.2   134  GLY134     -0.2729
    166  N        -82.1790  103.8670   45.3840 N.am  135  PRO135     -0.2726
    167  CA       -82.5630  103.0540   46.5520 C.3   135  PRO135      0.1402
    168  C        -83.5650  103.7470   47.4990 C.2   135  PRO135      0.2269
    169  O        -84.5830  103.1690   47.9000 O.2   135  PRO135     -0.2865
    170  CB       -81.2170  102.8640   47.2790 C.3   135  PRO135      0.0296
    171  CG       -80.1830  102.8180   46.1630 C.3   135  PRO135      0.0237
    172  CD       -80.7070  103.9630   45.2260 C.3   135  PRO135      0.0939
    173  N        -85.4730  106.3240   46.7710 N.3   137  ALA137     -0.1231
    174  CA       -86.7310  106.5440   46.0430 C.3   137  ALA137      0.1694
    175  C        -87.5340  105.2120   45.9290 C.2   137  ALA137      0.2592
    176  O        -88.7640  105.1840   46.0790 O.2   137  ALA137     -0.2718
    177  CB       -86.4460  107.1470   44.6780 C.3   137  ALA137      0.0304
    178  N        -86.8370  104.1090   45.7090 N.am  138  PHE138     -0.1962
    179  CA       -87.4490  102.7790   45.8360 C.3   138  PHE138      0.1771
    180  C        -87.9850  102.5140   47.2370 C.2   138  PHE138      0.2619
    181  O        -89.1640  102.2110   47.3880 O.2   138  PHE138     -0.2715
    182  CB       -86.4470  101.6930   45.3990 C.3   138  PHE138      0.0574
    183  CG       -86.9160  100.2790   45.6230 C.ar  138  PHE138     -0.0200
    184  CD1      -87.9340   99.7090   44.8360 C.ar  138  PHE138     -0.0042
    185  CD2      -86.3010   99.4930   46.5810 C.ar  138  PHE138     -0.0042
    186  CE1      -88.3610   98.3980   45.0490 C.ar  138  PHE138     -0.0003
    187  CE2      -86.7230   98.1910   46.8100 C.ar  138  PHE138     -0.0003
    188  CZ       -87.7420   97.6370   46.0450 C.ar  138  PHE138     -0.0000
    189  N        -87.1700  102.7080   48.2730 N.am  139  ALA139     -0.1977
    190  CA       -87.6100  102.3680   49.6160 C.3   139  ALA139      0.1597
    191  C        -88.8730  103.1900   49.9940 C.2   139  ALA139      0.2287
    192  O        -89.8380  102.6300   50.5400 O.2   139  ALA139     -0.2864
    193  CB       -86.4710  102.5380   50.6400 C.3   139  ALA139      0.0319
    194  N        -90.9990  104.2310   47.8900 N.3   141  ALA141     -0.1231
    195  CA       -92.0620  103.8010   47.0140 C.3   141  ALA141      0.1694
    196  C        -92.6590  102.4910   47.5120 C.2   141  ALA141      0.2591
    197  O        -93.8230  102.2430   47.2750 O.2   141  ALA141     -0.2718
    198  CB       -91.5650  103.6850   45.6040 C.3   141  ALA141      0.0304
    199  N        -91.8470  101.6480   48.1700 N.am  142  MET142     -0.1979
    200  CA       -92.3340  100.4290   48.8390 C.3   142  MET142      0.1605
    201  C        -93.1000  100.6970   50.1350 C.2   142  MET142      0.2287
    202  O        -93.6360   99.7360   50.6950 O.2   142  MET142     -0.2864
    203  CB       -91.1840   99.4950   49.2290 C.3   142  MET142      0.0413
    204  CG       -90.3590   98.9960   48.0410 C.3   142  MET142      0.0598
    205  SD       -91.3530   98.7650   46.5320 S.3   142  MET142     -0.1393
    206  CE       -92.2760   97.4180   46.8820 C.3   142  MET142      0.0692
    207  N        -91.7010  102.1840   52.9880 N.3   144  ALA144     -0.1245
    208  CA       -90.8010  102.2320   54.1390 C.3   144  ALA144      0.1562
    209  C        -90.6000  103.7220   54.4770 C.2   144  ALA144      0.2260
    210  O        -90.8810  104.6090   53.6440 O.2   144  ALA144     -0.2867
    211  CB       -89.4680  101.5640   53.8040 C.3   144  ALA144      0.0290
    212  N        -83.8230  102.4230   57.4190 N.3   319  TRP319     -0.1241
    213  CA       -85.2300  102.5410   57.0590 C.3   319  TRP319      0.1605
    214  C        -85.9700  101.3680   57.6430 C.2   319  TRP319      0.2264
    215  O        -85.3810  100.3170   57.8980 O.2   319  TRP319     -0.2867
    216  CB       -85.4290  102.5400   55.5400 C.3   319  TRP319      0.0550
    217  CG       -84.9620  103.7900   54.6890 C.ar  319  TRP319      0.0003
    218  CD1      -83.7030  104.2400   54.5170 C.ar  319  TRP319      0.0946
    219  CD2      -85.7840  104.6310   53.8930 C.ar  319  TRP319      0.0152
    220  NE1      -83.6650  105.2930   53.6380 N.ar  319  TRP319     -0.2442
    221  CE2      -84.9400  105.5740   53.2590 C.ar  319  TRP319      0.0810
    222  CE3      -87.1680  104.7040   53.6710 C.ar  319  TRP319      0.0012
    223  CZ2      -85.4230  106.5620   52.3810 C.ar  319  TRP319      0.0191
    224  CZ3      -87.6480  105.6790   52.8020 C.ar  319  TRP319      0.0001
    225  CH2      -86.7720  106.6040   52.1760 C.ar  319  TRP319      0.0015
@<TRIPOS>BOND
     1    53    51    1
     2    85    84    1
     3    51    50    2
     4    51    52    1
     5    50    49    1
     6    84    86    1
     7    84    83    2
     8    82    83    1
     9    82    81    1
    10    49    48    1
    11    81    80    1
    12    48    47    1
    13    43    44    1
    14    44    47    1
    15    44    45    1
    16    80    77    1
    17    57    56    2
    18    68    67    2
    19    45    54   am
    20    45    46    2
    21    77    76    1
    22    77    78    1
    23    54    55    1
    24    67    76   am
    25    67    66    1
    26    69    66    1
    27    69    70    1
    28    56    55    1
    29    56    65   am
    30    79    78    2
    31    78    87   am
    32    55    58    1
    33    66    65    1
    34    70    71    1
    35    98    96    1
    36    58    59    1
    37    96    95    1
    38    87    88    1
    39    71    72    1
    40    74    73    1
    41    73    72    2
    42    73    75    1
    43    59    60    1
    44    88    89    1
    45    60    61    1
    46    61    62    2
    47    95    97    1
    48    95    92    1
    49    41    40    1
    50     1     2    1
    51    91    89   am
    52    91    92    1
    53    64    62    1
    54    62    63    1
    55    89    90    2
    56    38    39    2
    57    38    37    1
    58     2     3    1
    59     2     5    1
    60    92    93    1
    61     3     4    2
    62    40    37    1
    63    40    42    1
    64    37    36    1
    65   112   111    1
    66   153   152   ar
    67    93    99   am
    68    93    94    2
    69    99   100    1
    70   154   152   ar
    71   152   151    1
    72   111   113    1
    73   111   110    2
    74    36    30   am
    75    35    33    1
    76   109   110    1
    77   109   108    1
    78   161   160    1
    79   161   155    1
    80   160   159    1
    81   151   148    1
    82    31    30    2
    83   107   108    1
    84   107   104    1
    85   100   101    1
    86    30    29    1
    87   103   101   am
    88   103   104    1
    89   148   147    1
    90   148   149    1
    91   163   162    1
    92   163   164    1
    93    33    34    1
    94    33    32    1
    95   162   157   am
    96   101   102    2
    97   104   105    1
    98   155   149   am
    99   155   156    1
   100   105   106    2
   101   159   156    1
   102   149   150    2
   103    29    32    1
   104    29    28    1
   105   157   156    1
   106   157   158    2
   107     6    12    1
   108     6     7    1
   109   164   165    2
   110   164   166   am
   111   177   174    1
   112   184   186   ar
   113   184   183   ar
   114   186   188   ar
   115     9     8    2
   116   172   166    1
   117   172   171    1
   118    12    11    1
   119   166   167    1
   120   182   183    1
   121   182   179    1
   122     8     7    1
   123     7    10    1
   124    28    22   am
   125   198   195    1
   126   183   185   ar
   127   178   179    1
   128   178   175   am
   129   179   180    1
   130   175   174    1
   131   175   176    2
   132   174   173    1
   133   188   187   ar
   134   171   170    1
   135    27    25    1
   136    23    22    2
   137    22    21    1
   138   205   206    1
   139   205   204    1
   140   167   170    1
   141   167   168    1
   142    11    10    1
   143   185   187   ar
   144   195   196    1
   145   195   194    1
   146   114   115    1
   147   180   181    2
   148   180   189   am
   149   197   196    2
   150   168   169    2
   151   196   199   am
   152    25    24    1
   153    25    26    1
   154    21    24    1
   155    21    20    1
   156   204   203    1
   157   118   115    1
   158   118   119    1
   159   199   200    1
   160   189   190    1
   161   115   116    1
   162   200   203    1
   163   200   201    1
   164   116   117    2
   165   119   120   ar
   166   119   121   ar
   167   120   122   ar
   168   190   191    1
   169   190   193    1
   170   191   192    2
   171   201   202    2
   172   121   124   ar
   173   121   123   ar
   174   124   126   ar
   175   145   144    1
   176   122   123   ar
   177   123   125   ar
   178   126   127   ar
   179    18    17    1
   180   142   141    1
   181   142   143    2
   182   144   141    1
   183   144   146    1
   184   225   223   ar
   185   225   224   ar
   186   141   140    1
   187   223   221   ar
   188   125   127   ar
   189   224   222   ar
   190   136   135    2
   191   207   208    1
   192   221   220   ar
   193   221   219   ar
   194    17    19    1
   195    17    14    1
   196   220   218   ar
   197   210   209    2
   198   140   135   am
   199   222   219   ar
   200   211   208    1
   201   135   134    1
   202   219   217   ar
   203   208   209    1
   204    16    15    2
   205    15    14    1
   206    14    13    1
   207   218   217   ar
   208   132   129    1
   209   217   216    1
   210   134   133    1
   211   134   137    1
   212   133   130   am
   213   216   213    1
   214   137   139    1
   215   137   138    1
   216   129   130    1
   217   129   128    1
   218   130   131    2
   219   213   212    1
   220   213   214    1
   221   214   215    2
