@<TRIPOS>MOLECULE
tmp/2wq5A00.pdb
 117 118 0 0 0
SMALL
GASTEIGER

@<TRIPOS>ATOM
      1  N        -17.0480    6.6640   22.1730 N.3     2  LEU2       -0.1245
      2  CA       -15.9180    7.5200   21.8020 C.3     2  LEU2        0.1561
      3  C        -14.7930    7.5210   22.8220 C.2     2  LEU2        0.2260
      4  O        -13.6040    7.5160   22.4690 O.2     2  LEU2       -0.2867
      5  CB       -16.4070    8.9500   21.4980 C.3     2  LEU2        0.0270
      6  CG       -15.3980    9.9940   21.0280 C.3     2  LEU2        0.0019
      7  CD1      -14.5650    9.4360   19.8870 C.3     2  LEU2        0.0001
      8  CD2      -16.1540   11.2660   20.5960 C.3     2  LEU2        0.0001
      9  N        -12.8620    4.2700   22.5760 N.3     5  PHE5       -0.1241
     10  CA       -11.9270    4.3560   21.4270 C.3     5  PHE5        0.1605
     11  C        -10.6640    5.1650   21.7930 C.2     5  PHE5        0.2264
     12  O         -9.5410    4.7400   21.5280 O.2     5  PHE5       -0.2867
     13  CB       -12.6160    4.9910   20.2140 C.3     5  PHE5        0.0534
     14  CG       -11.8020    4.9510   18.9400 C.ar    5  PHE5       -0.0203
     15  CD1      -10.9100    3.9050   18.6620 C.ar    5  PHE5       -0.0042
     16  CD2      -11.9570    5.9660   17.9990 C.ar    5  PHE5       -0.0042
     17  CE1      -10.1710    3.8950   17.4770 C.ar    5  PHE5       -0.0003
     18  CE2      -11.2350    5.9350   16.8030 C.ar    5  PHE5       -0.0003
     19  CZ       -10.3360    4.8820   16.5580 C.ar    5  PHE5       -0.0000
     20  N         -4.6170   11.7980   22.0650 N.3    18  TRP18      -0.1227
     21  CA        -5.8290   11.5660   21.2810 C.3    18  TRP18       0.1737
     22  C         -6.0480   12.6430   20.2350 C.2    18  TRP18       0.2595
     23  O         -6.5150   12.3680   19.1370 O.2    18  TRP18      -0.2718
     24  CB        -7.0420   11.5690   22.2060 C.3    18  TRP18       0.0564
     25  CG        -8.3580   11.8410   21.5180 C.ar   18  TRP18       0.0003
     26  CD1       -9.0890   13.0000   21.5580 C.ar   18  TRP18       0.0946
     27  CD2       -9.0990   10.9310   20.6960 C.ar   18  TRP18       0.0152
     28  NE1      -10.2380   12.8680   20.8150 N.ar   18  TRP18      -0.2442
     29  CE2      -10.2710   11.6030   20.2810 C.ar   18  TRP18       0.0810
     30  CE3       -8.8940    9.6110   20.2800 C.ar   18  TRP18       0.0012
     31  CZ2      -11.2300   10.9970   19.4680 C.ar   18  TRP18       0.0191
     32  CZ3       -9.8520    9.0150   19.4660 C.ar   18  TRP18       0.0001
     33  CH2      -11.0070    9.7070   19.0770 C.ar   18  TRP18       0.0015
     34  N         -5.7210   13.8790   20.5970 N.am   19  TRP19      -0.1976
     35  CA        -5.9510   15.0090   19.7220 C.3    19  TRP19       0.1640
     36  C         -5.1740   14.8910   18.4030 C.2    19  TRP19       0.2290
     37  O         -5.6360   15.3750   17.3720 O.2    19  TRP19      -0.2864
     38  CB        -5.6560   16.3140   20.4650 C.3    19  TRP19       0.0576
     39  CG        -6.5190   16.3930   21.6810 C.ar   19  TRP19       0.0006
     40  CD1       -6.1330   16.2360   22.9880 C.ar   19  TRP19       0.0946
     41  CD2       -7.9360   16.5590   21.7010 C.ar   19  TRP19       0.0152
     42  NE1       -7.2220   16.3300   23.8140 N.ar   19  TRP19      -0.2442
     43  CE2       -8.3420   16.5280   23.0500 C.ar   19  TRP19       0.0810
     44  CE3       -8.9010   16.7310   20.7080 C.ar   19  TRP19       0.0012
     45  CZ2       -9.6740   16.6690   23.4320 C.ar   19  TRP19       0.0191
     46  CZ3      -10.2200   16.8720   21.0870 C.ar   19  TRP19       0.0001
     47  CH2      -10.5970   16.8380   22.4350 C.ar   19  TRP19       0.0015
     48  N         -4.8250   12.3330   16.5770 N.3    21  PHE21      -0.1227
     49  CA        -5.5530   11.4500   15.6790 C.3    21  PHE21       0.1736
     50  C         -6.9600   11.9570   15.3570 C.2    21  PHE21       0.2595
     51  O         -7.6610   11.3470   14.5230 O.2    21  PHE21      -0.2718
     52  CB        -5.6860   10.0740   16.3320 C.3    21  PHE21       0.0547
     53  CG        -4.3970    9.3590   16.4700 C.ar   21  PHE21      -0.0202
     54  CD1       -3.7830    8.8060   15.3410 C.ar   21  PHE21      -0.0042
     55  CD2       -3.7890    9.2140   17.7220 C.ar   21  PHE21      -0.0042
     56  CE1       -2.5750    8.1400   15.4450 C.ar   21  PHE21      -0.0003
     57  CE2       -2.5960    8.5440   17.8410 C.ar   21  PHE21      -0.0003
     58  CZ        -1.9790    7.9890   16.6870 C.ar   21  PHE21      -0.0000
     59  N         -7.3770   13.0300   16.0410 N.am   22  ALA22      -0.1966
     60  CA        -8.7500   13.5000   15.9870 C.3    22  ALA22       0.1728
     61  C         -9.0120   14.4510   14.8190 C.2    22  ALA22       0.2616
     62  O        -10.1600   14.8580   14.5780 O.2    22  ALA22      -0.2715
     63  CB        -9.1160   14.1890   17.3170 C.3    22  ALA22       0.0334
     64  N         -7.9470   14.8430   14.1350 N.am   23  ASP23      -0.1971
     65  CA        -8.0300   15.6860   12.9550 C.3    23  ASP23       0.1709
     66  C         -6.7470   15.4660   12.1690 C.2    23  ASP23       0.2293
     67  O         -5.8070   16.2600   12.2380 O.2    23  ASP23      -0.2864
     68  CB        -8.1390   17.1380   13.3770 C.3    23  ASP23       0.1436
     69  CG        -8.4150   18.0770   12.2250 C.2    23  ASP23       0.3671
     70  OD1       -8.5840   17.6340   11.0590 O.co2  23  ASP23      -0.2456
     71  OD2       -8.4760   19.2820   12.5250 O.co2  23  ASP23      -0.2456
     72  N        -11.0390   11.2030   12.1250 N.3    29  GLY29      -0.1210
     73  CA       -12.0300   12.1540   12.5680 C.3    29  GLY29       0.1956
     74  C        -13.1240   12.4760   11.5680 C.2    29  GLY29       0.2611
     75  O        -13.9120   13.3860   11.7630 O.2    29  GLY29      -0.2717
     76  N        -13.2180   11.6700   10.5270 N.am   30  ARG30      -0.1979
     77  CA       -13.9770   12.0440    9.3530 C.3    30  ARG30       0.1597
     78  C        -14.3750   10.7520    8.6700 C.2    30  ARG30       0.2287
     79  O        -14.5190    9.7230    9.3210 O.2    30  ARG30      -0.2864
     80  CB       -13.0830   12.8770    8.4380 C.3    30  ARG30       0.0334
     81  CG       -13.7920   13.8950    7.5880 C.3    30  ARG30       0.0492
     82  CD       -13.4530   15.3020    8.0310 C.3    30  ARG30       0.2205
     83  NE       -14.1390   15.6920    9.2620 N.pl3  30  ARG30      -0.0865
     84  CZ       -13.5910   15.7900   10.4780 C.cat  30  ARG30       0.5346
     85  NH1      -12.3060   15.5120   10.6960 N.pl3  30  ARG30       0.1354
     86  NH2      -14.3550   16.1690   11.4980 N.pl3  30  ARG30       0.1354
     87  N        -23.1070   -0.3630   11.8390 N.3    55  GLU55      -0.1245
     88  CA       -24.3310    0.4010   11.8080 C.3    55  GLU55       0.1567
     89  C        -25.4770   -0.3220   11.0910 C.2    55  GLU55       0.2260
     90  O        -26.6380    0.1020   11.1550 O.2    55  GLU55      -0.2867
     91  CB       -24.0780    1.7270   11.1310 C.3    55  GLU55       0.0388
     92  CG       -23.4040    2.7170   12.0390 C.3    55  GLU55       0.1160
     93  CD       -23.2430    4.0560   11.3490 C.2    55  GLU55       0.3649
     94  OE1      -24.2560    4.5880   10.8790 O.co2  55  GLU55      -0.2457
     95  OE2      -22.1070    4.5700   11.2970 O.co2  55  GLU55      -0.2457
     96  N        -20.2320    5.5400   18.1080 N.3    63  PHE63      -0.1227
     97  CA       -19.5910    6.4790   19.0410 C.3    63  PHE63       0.1736
     98  C        -20.3430    6.5860   20.3620 C.2    63  PHE63       0.2595
     99  O        -19.7680    7.0700   21.3410 O.2    63  PHE63      -0.2718
    100  CB       -19.3910    7.8520   18.4270 C.3    63  PHE63       0.0547
    101  CG       -18.2310    7.9050   17.4280 C.ar   63  PHE63      -0.0202
    102  CD1      -16.9540    7.6430   17.8350 C.ar   63  PHE63      -0.0042
    103  CD2      -18.4570    8.1900   16.0970 C.ar   63  PHE63      -0.0042
    104  CE1      -15.8690    7.7070   16.9320 C.ar   63  PHE63      -0.0003
    105  CE2      -17.4040    8.2350   15.1790 C.ar   63  PHE63      -0.0003
    106  CZ       -16.1110    8.0010   15.6050 C.ar   63  PHE63      -0.0000
    107  N        -21.6010    6.1180   20.3890 N.am   64  PHE64      -0.1976
    108  CA       -22.4460    6.1570   21.5840 C.3    64  PHE64       0.1639
    109  C        -22.5290    4.8200   22.3330 C.2    64  PHE64       0.2290
    110  O        -22.9740    4.7620   23.5030 O.2    64  PHE64      -0.2864
    111  CB       -23.8700    6.6060   21.2210 C.3    64  PHE64       0.0560
    112  CG       -23.9950    8.0350   20.7900 C.ar   64  PHE64      -0.0200
    113  CD1      -23.1140    9.0390   21.2090 C.ar   64  PHE64      -0.0042
    114  CD2      -25.1030    8.4060   20.0160 C.ar   64  PHE64      -0.0042
    115  CE1      -23.3020   10.3550   20.8090 C.ar   64  PHE64      -0.0003
    116  CE2      -25.3200    9.7090   19.6410 C.ar   64  PHE64      -0.0003
    117  CZ       -24.4270   10.7010   20.0250 C.ar   64  PHE64      -0.0000
@<TRIPOS>BOND
     1    81    82    1
     2    81    80    1
     3    82    83    1
     4    80    77    1
     5    78    79    2
     6    78    77    1
     7    83    84    2
     8    77    76    1
     9    84    85    1
    10    84    86    1
    11    76    74   am
    12    94    93   ar
    13    70    69   ar
    14    89    90    2
    15    89    88    1
    16    91    88    1
    17    91    92    1
    18    95    93   ar
    19    93    92    1
    20    74    75    2
    21    74    73    1
    22    88    87    1
    23    72    73    1
    24    66    67    2
    25    66    65    1
    26    69    71   ar
    27    69    68    1
    28    65    68    1
    29    65    64    1
    30    64    61   am
    31    51    50    2
    32    62    61    2
    33    61    60    1
    34   105   106   ar
    35   105   103   ar
    36    54    56   ar
    37    54    53   ar
    38    50    49    1
    39    50    59   am
    40    56    58   ar
    41   106   104   ar
    42    49    52    1
    43    49    48    1
    44    60    59    1
    45    60    63    1
    46   103   101   ar
    47    52    53    1
    48    53    55   ar
    49    19    18   ar
    50    19    17   ar
    51    58    57   ar
    52    18    16   ar
    53   104   102   ar
    54    37    36    2
    55   101   102   ar
    56   101   100    1
    57    17    15   ar
    58    55    57   ar
    59    16    14   ar
    60    96    97    1
    61    36    35    1
    62   100    97    1
    63    15    14   ar
    64    14    13    1
    65    97    98    1
    66    33    32   ar
    67    33    31   ar
    68    23    22    2
    69    32    30   ar
    70    31    29   ar
    71   116   114   ar
    72   116   117   ar
    73    35    38    1
    74    35    34    1
    75     7     6    1
    76   114   112   ar
    77   117   115   ar
    78    13    10    1
    79    22    34   am
    80    22    21    1
    81    30    27   ar
    82    29    27   ar
    83    29    28   ar
    84    98   107   am
    85    98    99    2
    86   107   108    1
    87    38    39    1
    88     8     6    1
    89    27    25   ar
    90    44    46   ar
    91    44    41   ar
    92   112   113   ar
    93   112   111    1
    94   115   113   ar
    95    28    26   ar
    96     6     5    1
    97    46    47   ar
    98   111   108    1
    99    21    20    1
   100    21    24    1
   101    10    11    1
   102    10     9    1
   103     5     2    1
   104    25    26   ar
   105    25    24    1
   106    12    11    2
   107   108   109    1
   108    39    41   ar
   109    39    40   ar
   110    41    43   ar
   111     2     1    1
   112     2     3    1
   113   109   110    2
   114    47    45   ar
   115     4     3    2
   116    40    42   ar
   117    43    45   ar
   118    43    42   ar
