@<TRIPOS>MOLECULE
tmp/2wqaF00.pdb
 211 202 0 0 0
SMALL
GASTEIGER

@<TRIPOS>ATOM
      1  N         67.4550  -58.4950  -13.8820 N.3    29  LYS29      -0.1245
      2  CA        66.9780  -58.1460  -12.5550 C.3    29  LYS29       0.1561
      3  C         66.0370  -59.2150  -12.0250 C.2    29  LYS29       0.2260
      4  O         65.1790  -59.7040  -12.7690 O.2    29  LYS29      -0.2867
      5  CB        66.2390  -56.8150  -12.6260 C.3    29  LYS29       0.0271
      6  CG        65.8100  -56.2270  -11.2990 C.3    29  LYS29       0.0035
      7  CD        64.5860  -55.3460  -11.5070 C.3    29  LYS29       0.0206
      8  CE        64.2960  -54.4890  -10.3050 C.3    29  LYS29       0.1093
      9  NZ        62.8960  -53.9750  -10.3960 N.3    29  LYS29      -0.1314
     10  N         61.6170  -57.5960   -6.7870 N.3    32  PRO32      -0.2116
     11  CA        61.0580  -57.8830   -5.4750 C.3    32  PRO32       0.1372
     12  C         59.5440  -57.7320   -5.5700 C.2    32  PRO32       0.2244
     13  O         59.0350  -57.2960   -6.5910 O.2    32  PRO32      -0.2868
     14  CB        61.6530  -56.7770   -4.6290 C.3    32  PRO32       0.0268
     15  CG        61.6800  -55.5710   -5.5820 C.3    32  PRO32       0.0207
     16  CD        61.9800  -56.1630   -6.9210 C.3    32  PRO32       0.0892
     17  N         56.2940  -55.6290   -5.2670 N.3    34  GLY34      -0.1210
     18  CA        56.1720  -54.1920   -5.4170 C.3    34  GLY34       0.1956
     19  C         57.2970  -53.6560   -6.2640 C.2    34  GLY34       0.2612
     20  O         58.0470  -52.8130   -5.8020 O.2    34  GLY34      -0.2717
     21  N         57.4130  -54.1410   -7.5040 N.am   35  LEU35      -0.1965
     22  CA        58.5990  -53.8630   -8.3390 C.3    35  LEU35       0.1728
     23  C         58.6260  -52.4180   -8.8380 C.2    35  LEU35       0.2616
     24  O         57.5920  -51.8480   -9.0550 O.2    35  LEU35      -0.2715
     25  CB        58.7210  -54.8840   -9.4890 C.3    35  LEU35       0.0311
     26  CG        58.0320  -54.7080  -10.8500 C.3    35  LEU35       0.0022
     27  CD1       58.7960  -53.7310  -11.7080 C.3    35  LEU35       0.0001
     28  CD2       57.9720  -56.0350  -11.5760 C.3    35  LEU35       0.0001
     29  N         59.7980  -51.8440   -9.0400 N.am   36  PHE36      -0.1960
     30  CA        59.9190  -50.4070   -9.2950 C.3    36  PHE36       0.1771
     31  C         60.5920  -50.0990  -10.6440 C.2    36  PHE36       0.2619
     32  O         59.9190  -49.6840  -11.5820 O.2    36  PHE36      -0.2715
     33  CB        60.6510  -49.7300   -8.1160 C.3    36  PHE36       0.0574
     34  CG        60.7890  -48.2410   -8.2360 C.ar   36  PHE36      -0.0200
     35  CD1       59.6670  -47.4200   -8.3480 C.ar   36  PHE36      -0.0042
     36  CD2       62.0480  -47.6480   -8.1980 C.ar   36  PHE36      -0.0042
     37  CE1       59.8010  -46.0400   -8.4760 C.ar   36  PHE36      -0.0003
     38  CE2       62.2050  -46.2350   -8.2940 C.ar   36  PHE36      -0.0003
     39  CZ        61.0880  -45.4380   -8.4360 C.ar   36  PHE36      -0.0000
     40  N         61.9020  -50.3230  -10.7490 N.am   37  LEU37      -0.1977
     41  CA        62.6350  -50.1370  -11.9940 C.3    37  LEU37       0.1596
     42  C         62.2500  -51.2210  -12.9720 C.2    37  LEU37       0.2287
     43  O         62.3440  -52.3860  -12.6460 O.2    37  LEU37      -0.2864
     44  CB        64.1340  -50.1670  -11.7260 C.3    37  LEU37       0.0297
     45  CG        64.6590  -49.0030  -10.8740 C.3    37  LEU37       0.0022
     46  CD1       66.1290  -49.1320  -10.5650 C.3    37  LEU37       0.0001
     47  CD2       64.3840  -47.6810  -11.5410 C.3    37  LEU37       0.0001
     48  N         67.7610  -49.4270  -17.4210 N.3    41  ILE41      -0.1245
     49  CA        68.4060  -49.0710  -16.1630 C.3    41  ILE41       0.1561
     50  C         69.9060  -48.9500  -16.2910 C.2    41  ILE41       0.2260
     51  O         70.5700  -49.8940  -16.6820 O.2    41  ILE41      -0.2867
     52  CB        68.0790  -50.0870  -15.0700 C.3    41  ILE41       0.0252
     53  CG1       66.5720  -50.2700  -14.9760 C.3    41  ILE41       0.0019
     54  CG2       68.6760  -49.6650  -13.7340 C.3    41  ILE41       0.0019
     55  CD1       66.1720  -51.5810  -14.3420 C.3    41  ILE41       0.0001
     56  N         73.3010  -47.3210  -14.0150 N.3    43  ALA43      -0.1245
     57  CA        73.7860  -46.7260  -12.7710 C.3    43  ALA43       0.1562
     58  C         75.1540  -46.1010  -12.9380 C.2    43  ALA43       0.2260
     59  O         75.9770  -46.5880  -13.7200 O.2    43  ALA43      -0.2867
     60  CB        73.8500  -47.7570  -11.7080 C.3    43  ALA43       0.0290
     61  N         78.2390  -45.1420  -10.4140 N.3    45  PHE45      -0.1241
     62  CA        78.7950  -45.2600   -9.0620 C.3    45  PHE45       0.1605
     63  C         79.9960  -44.3150   -8.8410 C.2    45  PHE45       0.2264
     64  O         80.8620  -44.1970   -9.7110 O.2    45  PHE45      -0.2867
     65  CB        79.2120  -46.7050   -8.8220 C.3    45  PHE45       0.0534
     66  CG        78.0880  -47.6080   -8.4200 C.ar   45  PHE45      -0.0203
     67  CD1       77.9450  -48.0160   -7.0910 C.ar   45  PHE45      -0.0042
     68  CD2       77.1830  -48.0770   -9.3540 C.ar   45  PHE45      -0.0042
     69  CE1       76.9050  -48.8640   -6.7000 C.ar   45  PHE45      -0.0003
     70  CE2       76.1350  -48.9200   -8.9720 C.ar   45  PHE45      -0.0003
     71  CZ        75.9950  -49.3230   -7.6450 C.ar   45  PHE45      -0.0000
     72  N         75.6430  -43.4180   -5.6200 N.3    55  ALA55      -0.1231
     73  CA        75.2990  -43.7400   -6.9970 C.3    55  ALA55       0.1694
     74  C         74.1110  -42.9680   -7.5150 C.2    55  ALA55       0.2593
     75  O         73.4030  -42.2990   -6.7660 O.2    55  ALA55      -0.2718
     76  CB        75.0700  -45.2200   -7.1810 C.3    55  ALA55       0.0304
     77  N         73.8960  -43.1010   -8.8150 N.am   56  THR56      -0.1939
     78  CA        72.8310  -42.4500   -9.5510 C.3    56  THR56       0.2028
     79  C         72.2630  -43.5220  -10.4360 C.2    56  THR56       0.2642
     80  O         72.9730  -44.4670  -10.7770 O.2    56  THR56      -0.2714
     81  CB        73.4930  -41.3670  -10.4230 C.3    56  THR56       0.1808
     82  OG1       73.5680  -40.1980   -9.6240 O.3    56  THR56      -0.2208
     83  CG2       72.7310  -41.0480  -11.7830 C.3    56  THR56       0.0379
     84  N         71.0180  -43.3920  -10.8480 N.am   57  ALA57      -0.1977
     85  CA        70.5020  -44.3120  -11.8410 C.3    57  ALA57       0.1597
     86  C         69.3750  -43.7190  -12.6480 C.2    57  ALA57       0.2287
     87  O         68.5840  -42.9230  -12.1520 O.2    57  ALA57      -0.2864
     88  CB        70.0640  -45.6060  -11.1850 C.3    57  ALA57       0.0319
     89  N         67.2740  -41.6210  -10.1180 N.3    73  MET73      -0.1230
     90  CA        67.3760  -42.1150   -8.7620 C.3    73  MET73       0.1702
     91  C         68.6780  -41.7060   -8.1790 C.2    73  MET73       0.2592
     92  O         69.6010  -41.4010   -8.9110 O.2    73  MET73      -0.2718
     93  CB        67.2480  -43.6250   -8.7300 C.3    73  MET73       0.0401
     94  CG        65.8670  -44.1400   -9.1130 C.3    73  MET73       0.0596
     95  SD        64.6050  -43.6840   -7.8930 S.3    73  MET73      -0.1393
     96  CE        63.7850  -42.3820   -8.7520 C.3    73  MET73       0.0692
     97  N         68.7400  -41.6690   -6.8560 N.am   74  VAL74      -0.1966
     98  CA        69.9830  -41.3900   -6.1420 C.3    74  VAL74       0.1727
     99  C         70.0560  -42.2230   -4.8640 C.2    74  VAL74       0.2616
    100  O         69.0410  -42.4090   -4.2020 O.2    74  VAL74      -0.2715
    101  CB        70.2440  -39.8300   -5.9220 C.3    74  VAL74       0.0290
    102  CG1       69.0020  -39.0190   -6.1040 C.3    74  VAL74       0.0023
    103  CG2       70.9280  -39.5280   -4.6040 C.3    74  VAL74       0.0023
    104  N         71.2410  -42.7480   -4.5540 N.am   75  GLY75      -0.1955
    105  CA        71.4160  -43.5380   -3.3620 C.3    75  GLY75       0.1869
    106  C         72.7500  -43.3110   -2.6820 C.2    75  GLY75       0.2309
    107  O         73.7240  -43.0570   -3.3530 O.2    75  GLY75      -0.2863
    108  N         75.4800  -45.0040    0.2990 N.3    77  PHE77      -0.1241
    109  CA        75.7970  -46.2450    0.9420 C.3    77  PHE77       0.1605
    110  C         76.5350  -45.9850    2.2410 C.2    77  PHE77       0.2264
    111  O         77.5710  -45.3310    2.2410 O.2    77  PHE77      -0.2867
    112  CB        76.6600  -47.0780   -0.0010 C.3    77  PHE77       0.0534
    113  CG        76.0060  -47.3620   -1.3000 C.ar   77  PHE77      -0.0203
    114  CD1       76.1420  -46.4810   -2.3600 C.ar   77  PHE77      -0.0042
    115  CD2       75.2220  -48.4980   -1.4570 C.ar   77  PHE77      -0.0042
    116  CE1       75.5100  -46.7260   -3.5660 C.ar   77  PHE77      -0.0003
    117  CE2       74.5760  -48.7570   -2.6420 C.ar   77  PHE77      -0.0003
    118  CZ        74.7140  -47.8720   -3.7030 C.ar   77  PHE77      -0.0000
    119  N         71.7560  -48.9490    1.8710 N.3    88  MET88      -0.1245
    120  CA        71.5220  -47.9560    0.8380 C.3    88  MET88       0.1570
    121  C         70.2940  -47.0920    1.1730 C.2    88  MET88       0.2261
    122  O         69.1710  -47.5930    1.2550 O.2    88  MET88      -0.2867
    123  CB        71.3490  -48.6500   -0.5220 C.3    88  MET88       0.0387
    124  CG        71.2820  -47.6980   -1.7040 C.3    88  MET88       0.0595
    125  SD        70.7760  -48.4220   -3.2860 S.3    88  MET88      -0.1393
    126  CE        69.1340  -49.0190   -2.9090 C.3    88  MET88       0.0692
    127  N         67.9490  -44.2890   -0.3460 N.3    90  TYR90      -0.1241
    128  CA        67.6940  -43.8860   -1.7150 C.3    90  TYR90       0.1605
    129  C         66.3480  -43.2010   -1.8580 C.2    90  TYR90       0.2264
    130  O         65.3860  -43.4990   -1.1250 O.2    90  TYR90      -0.2867
    131  CB        67.7030  -45.1060   -2.6380 C.3    90  TYR90       0.0534
    132  CG        66.4840  -46.0450   -2.5380 C.ar   90  TYR90      -0.0201
    133  CD1       66.4510  -47.0970   -1.6260 C.ar   90  TYR90      -0.0009
    134  CD2       65.3940  -45.8790   -3.3640 C.ar   90  TYR90      -0.0009
    135  CE1       65.3440  -47.9410   -1.5340 C.ar   90  TYR90       0.0417
    136  CE2       64.2870  -46.6970   -3.2880 C.ar   90  TYR90       0.0417
    137  CZ        64.2610  -47.7290   -2.3800 C.ar   90  TYR90       0.1957
    138  OH        63.1540  -48.5540   -2.3350 O.3    90  TYR90      -0.2866
    139  N         59.4530  -43.6100   -5.5270 N.3    98  GLN98      -0.1245
    140  CA        59.8010  -44.4810   -4.4020 C.3    98  GLN98       0.1566
    141  C         61.0510  -44.1300   -3.6170 C.2    98  GLN98       0.2260
    142  O         62.0770  -43.8380   -4.2100 O.2    98  GLN98      -0.2867
    143  CB        59.9630  -45.9120   -4.8660 C.3    98  GLN98       0.0367
    144  CG        60.2320  -46.8780   -3.7210 C.3    98  GLN98       0.0905
    145  CD        60.2440  -48.3140   -4.1860 C.2    98  GLN98       0.2608
    146  OE1       61.2670  -49.0340   -4.0400 O.2    98  GLN98      -0.2717
    147  NE2       59.1150  -48.7450   -4.7820 N.am   98  GLN98      -0.0878
    148  N         72.3920  -53.5060    0.7160 N.3   104  HIS104     -0.1241
    149  CA        72.9050  -53.5320   -0.6550 C.3   104  HIS104      0.1621
    150  C         74.1850  -54.3570   -0.6760 C.2   104  HIS104      0.2264
    151  O         75.1740  -53.9260   -0.0850 O.2   104  HIS104     -0.2867
    152  CB        73.1980  -52.1030   -1.1700 C.3   104  HIS104      0.0745
    153  CG        73.6590  -52.0670   -2.5960 C.ar  104  HIS104      0.0817
    154  ND1       72.8110  -51.7740   -3.6450 N.ar  104  HIS104     -0.2268
    155  CD2       74.8700  -52.3270   -3.1550 C.ar  104  HIS104      0.1154
    156  CE1       73.4740  -51.8680   -4.7880 C.ar  104  HIS104      0.1986
    157  NE2       74.7290  -52.1820   -4.5170 N.ar  104  HIS104     -0.2212
    158  N         74.7340  -57.9070   -7.7310 N.3   117  GLN117     -0.1245
    159  CA        74.3020  -57.2530   -6.5060 C.3   117  GLN117      0.1566
    160  C         73.1050  -58.0180   -5.9290 C.2   117  GLN117      0.2260
    161  O         72.3720  -58.6720   -6.6570 O.2   117  GLN117     -0.2867
    162  CB        73.8900  -55.8270   -6.8800 C.3   117  GLN117      0.0367
    163  CG        73.1250  -55.0170   -5.8150 C.3   117  GLN117      0.0905
    164  CD        71.6420  -55.3390   -5.7220 C.2   117  GLN117      0.2608
    165  OE1       71.0820  -56.0550   -6.5660 O.2   117  GLN117     -0.2717
    166  NE2       70.9870  -54.7900   -4.6910 N.am  117  GLN117     -0.0878
    167  N         65.1490  -57.8400    1.5170 N.3   121  ARG121     -0.1245
    168  CA        64.2620  -56.8580    2.1350 C.3   121  ARG121      0.1563
    169  C         63.4870  -57.4100    3.2980 C.2   121  ARG121      0.2260
    170  O         63.1370  -56.6680    4.1840 O.2   121  ARG121     -0.2867
    171  CB        63.2480  -56.3240    1.1420 C.3   121  ARG121      0.0307
    172  CG        63.6540  -55.0540    0.5300 C.3   121  ARG121      0.0489
    173  CD        62.7420  -54.6670   -0.5840 C.3   121  ARG121      0.2205
    174  NE        63.1890  -53.4060   -1.1690 N.pl3 121  ARG121     -0.0865
    175  CZ        62.6240  -52.8150   -2.2200 C.cat 121  ARG121      0.5346
    176  NH1       61.5660  -53.3660   -2.8120 N.pl3 121  ARG121      0.1354
    177  NH2       63.1180  -51.6740   -2.6870 N.pl3 121  ARG121      0.1354
    178  N         65.5970  -58.5480   -4.0500 N.3   133  TYR133     -0.1241
    179  CA        65.9140  -58.2360   -5.4260 C.3   133  TYR133      0.1605
    180  C         67.3920  -58.4370   -5.7600 C.2   133  TYR133      0.2264
    181  O         68.2730  -58.3230   -4.8970 O.2   133  TYR133     -0.2867
    182  CB        65.4200  -56.8760   -5.8280 C.3   133  TYR133      0.0534
    183  CG        66.0070  -55.6860   -5.1210 C.ar  133  TYR133     -0.0201
    184  CD1       67.1130  -55.0120   -5.6410 C.ar  133  TYR133     -0.0009
    185  CD2       65.4000  -55.1590   -3.9820 C.ar  133  TYR133     -0.0009
    186  CE1       67.6430  -53.8720   -5.0060 C.ar  133  TYR133      0.0417
    187  CE2       65.9130  -54.0140   -3.3500 C.ar  133  TYR133      0.0417
    188  CZ        67.0300  -53.3760   -3.8570 C.ar  133  TYR133      0.1957
    189  OH        67.5200  -52.2510   -3.2040 O.3   133  TYR133     -0.2866
    190  N         70.3840  -57.5590   -8.9000 N.3   135  PHE135     -0.1241
    191  CA        70.7530  -57.0370  -10.2070 C.3   135  PHE135      0.1605
    192  C         72.0580  -57.6530  -10.7400 C.2   135  PHE135      0.2264
    193  O         73.0190  -57.8500   -9.9560 O.2   135  PHE135     -0.2867
    194  CB        71.0080  -55.5520  -10.0700 C.3   135  PHE135      0.0534
    195  CG        69.7990  -54.7030  -10.1760 C.ar  135  PHE135     -0.0203
    196  CD1       69.1820  -54.2110   -9.0260 C.ar  135  PHE135     -0.0042
    197  CD2       69.3230  -54.3050  -11.4150 C.ar  135  PHE135     -0.0042
    198  CE1       68.0900  -53.3590   -9.0860 C.ar  135  PHE135     -0.0003
    199  CE2       68.2070  -53.4500  -11.4940 C.ar  135  PHE135     -0.0003
    200  CZ        67.5910  -52.9760  -10.3070 C.ar  135  PHE135     -0.0000
    201  N         74.9500  -56.5790  -13.3930 N.3   137  PHE137     -0.1241
    202  CA        75.3880  -55.4230  -14.1850 C.3   137  PHE137      0.1605
    203  C         76.5130  -55.8310  -15.1030 C.2   137  PHE137      0.2264
    204  O         77.2230  -56.8190  -14.8440 O.2   137  PHE137     -0.2867
    205  CB        75.9250  -54.3150  -13.3110 C.3   137  PHE137      0.0534
    206  CG        74.9180  -53.7170  -12.3800 C.ar  137  PHE137     -0.0203
    207  CD1       74.9740  -53.9850  -11.0210 C.ar  137  PHE137     -0.0042
    208  CD2       73.9590  -52.8240  -12.8480 C.ar  137  PHE137     -0.0042
    209  CE1       74.0600  -53.3910  -10.1340 C.ar  137  PHE137     -0.0003
    210  CE2       73.0380  -52.2380  -11.9830 C.ar  137  PHE137     -0.0003
    211  CZ        73.0880  -52.5280  -10.6120 C.ar  137  PHE137     -0.0000
@<TRIPOS>BOND
     1    48    49    1
     2    51    50    2
     3    50    49    1
     4    49    52    1
     5   203   204    2
     6   203   202    1
     7    52    53    1
     8    52    54    1
     9    53    55    1
    10   202   201    1
    11   202   205    1
    12    56    57    1
    13     1     2    1
    14    59    58    2
    15   205   206    1
    16    42    43    2
    17    42    41    1
    18    58    57    1
    19   208   206   ar
    20   208   210   ar
    21    57    60    1
    22     4     3    2
    23    86    87    2
    24    86    85    1
    25     5     2    1
    26     5     6    1
    27     2     3    1
    28   206   207   ar
    29    41    44    1
    30    41    40    1
    31   210   211   ar
    32    85    88    1
    33    85    84    1
    34    83    81    1
    35    44    45    1
    36    27    26    1
    37    32    31    2
    38    28    26    1
    39    47    45    1
    40     7     6    1
    41     7     8    1
    42   199   197   ar
    43   199   200   ar
    44   197   195   ar
    45   207   209   ar
    46    45    46    1
    47    26    25    1
    48    84    79   am
    49    80    79    2
    50    40    31   am
    51   192   191    1
    52   192   193    2
    53    31    30    1
    54   211   209   ar
    55    79    78    1
    56    81    82    1
    57    81    78    1
    58    61    62    1
    59     9     8    1
    60   200   198   ar
    61   191   194    1
    62   191   190    1
    63   195   194    1
    64   195   196   ar
    65    89    90    1
    66    64    63    2
    67    78    77    1
    68    25    22    1
    69    68    70   ar
    70    68    66   ar
    71    30    29    1
    72    30    33    1
    73    94    93    1
    74    94    95    1
    75   198   196   ar
    76    62    63    1
    77    62    65    1
    78    24    23    2
    79    29    23   am
    80    70    71   ar
    81    92    91    2
    82    23    22    1
    83    65    66    1
    84    77    74   am
    85    90    93    1
    86    90    91    1
    87    96    95    1
    88    37    39   ar
    89    37    35   ar
    90    39    38   ar
    91    66    67   ar
    92    35    34   ar
    93    22    21    1
    94    38    36   ar
    95    34    36   ar
    96    34    33    1
    97    91    97   am
    98   158   159    1
    99    71    69   ar
   100    74    73    1
   101    74    75    2
   102    21    19   am
   103    76    73    1
   104    67    69   ar
   105    73    72    1
   106    16    10    1
   107    16    15    1
   108   162   159    1
   109   162   163    1
   110    97    98    1
   111    10    11    1
   112   161   160    2
   113    13    12    2
   114   165   164    2
   115   159   160    1
   116    19    20    2
   117    19    18    1
   118    98   101    1
   119    98    99    1
   120   102   101    1
   121   101   103    1
   122   182   179    1
   123   182   183    1
   124   163   164    1
   125   180   179    1
   126   180   181    2
   127   164   166   am
   128   184   183   ar
   129   184   186   ar
   130    15    14    1
   131    12    11    1
   132   139   140    1
   133    11    14    1
   134   179   178    1
   135    18    17    1
   136   183   185   ar
   137   186   188   ar
   138   143   140    1
   139   143   144    1
   140    99   104   am
   141    99   100    2
   142   156   157   ar
   143   156   154   ar
   144   147   145   am
   145   104   105    1
   146   157   155   ar
   147   140   141    1
   148   142   141    2
   149   145   146    2
   150   145   144    1
   151   185   187   ar
   152   188   187   ar
   153   188   189    1
   154   118   116   ar
   155   118   117   ar
   156   154   153   ar
   157   116   114   ar
   158   134   136   ar
   159   134   132   ar
   160   105   106    1
   161   107   106    2
   162   136   137   ar
   163   125   126    1
   164   125   124    1
   165   155   153   ar
   166   176   175    1
   167   177   175    1
   168   117   115   ar
   169   131   132    1
   170   131   128    1
   171   153   152    1
   172   132   133   ar
   173   137   138    1
   174   137   135   ar
   175   114   113   ar
   176   175   174    2
   177   129   128    1
   178   129   130    2
   179   128   127    1
   180   124   123    1
   181   133   135   ar
   182   115   113   ar
   183   113   112    1
   184   152   149    1
   185   174   173    1
   186   150   149    1
   187   150   151    2
   188   149   148    1
   189   173   172    1
   190   123   120    1
   191   112   109    1
   192   108   109    1
   193   172   171    1
   194   120   121    1
   195   120   119    1
   196   109   110    1
   197   171   168    1
   198   121   122    2
   199   167   168    1
   200   168   169    1
   201   111   110    2
   202   169   170    2
