@<TRIPOS>MOLECULE
tmp/2wqbA00.pdb
 146 136 0 0 0
SMALL
GASTEIGER

@<TRIPOS>ATOM
      1  N         42.9770   43.9320   31.1120 N.3    15  ILE15      -0.1245
      2  CA        43.4550   43.2900   32.3370 C.3    15  ILE15       0.1561
      3  C         43.1840   41.7790   32.3430 C.2    15  ILE15       0.2260
      4  O         42.0560   41.3480   32.1050 O.2    15  ILE15      -0.2867
      5  CB        42.9370   44.0150   33.6300 C.3    15  ILE15       0.0252
      6  CG1       41.4050   44.1000   33.6920 C.3    15  ILE15       0.0019
      7  CG2       43.5630   45.4240   33.7230 C.3    15  ILE15       0.0019
      8  CD1       40.8720   45.3230   34.4570 C.3    15  ILE15       0.0001
      9  N         37.1900   35.5880   31.1090 N.3    19  GLY19      -0.1225
     10  CA        37.1330   35.8550   29.6880 C.3    19  GLY19       0.1811
     11  C         37.8530   37.1390   29.3000 C.2    19  GLY19       0.2280
     12  O         38.9900   37.3760   29.7340 O.2    19  GLY19      -0.2866
     13  N         38.4060   40.9990   29.5060 N.3    21  VAL21      -0.1245
     14  CA        38.1330   42.2020   30.3580 C.3    21  VAL21       0.1561
     15  C         39.1200   43.3720   30.2470 C.2    21  VAL21       0.2260
     16  O         40.2830   43.1820   29.9350 O.2    21  VAL21      -0.2867
     17  CB        37.8830   41.8640   31.8870 C.3    21  VAL21       0.0252
     18  CG1       37.3000   40.4740   32.0450 C.3    21  VAL21       0.0019
     19  CG2       39.1110   42.0330   32.7060 C.3    21  VAL21       0.0019
     20  N         35.6620   48.0630   35.7520 N.3    36  ALA36      -0.1231
     21  CA        36.1800   46.9750   34.9550 C.3    36  ALA36       0.1694
     22  C         34.9970   46.5290   34.1140 C.2    36  ALA36       0.2592
     23  O         33.9260   46.2870   34.6490 O.2    36  ALA36      -0.2718
     24  CB        36.6660   45.8370   35.8460 C.3    36  ALA36       0.0304
     25  N         35.1900   46.4500   32.8010 N.am   37  ILE37      -0.1966
     26  CA        34.1220   46.1160   31.8780 C.3    37  ILE37       0.1727
     27  C         34.4340   44.7700   31.2200 C.2    37  ILE37       0.2616
     28  O         35.5230   44.5770   30.6690 O.2    37  ILE37      -0.2715
     29  CB        33.9790   47.1810   30.7750 C.3    37  ILE37       0.0290
     30  CG1       34.1300   48.6180   31.3170 C.3    37  ILE37       0.0022
     31  CG2       32.6670   47.0140   30.0410 C.3    37  ILE37       0.0023
     32  CD1       32.8940   49.2430   31.9080 C.3    37  ILE37       0.0001
     33  N         33.4860   43.8370   31.2880 N.am   38  LYS38      -0.1977
     34  CA        33.5740   42.5740   30.5410 C.3    38  LYS38       0.1596
     35  C         32.4490   42.4930   29.5160 C.2    38  LYS38       0.2287
     36  O         31.2950   42.8090   29.8110 O.2    38  LYS38      -0.2864
     37  CB        33.4990   41.3530   31.4790 C.3    38  LYS38       0.0298
     38  CG        33.9340   39.9950   30.8230 C.3    38  LYS38       0.0038
     39  CD        33.4490   38.7320   31.6030 C.3    38  LYS38       0.0206
     40  CE        34.1080   37.4410   31.0650 C.3    38  LYS38       0.1093
     41  NZ        34.0880   36.3230   32.0420 N.3    38  LYS38      -0.1314
     42  N         32.1830   43.1550   45.3780 N.3    56  ILE56      -0.1245
     43  CA        32.3480   43.8880   44.1400 C.3    56  ILE56       0.1561
     44  C         31.0060   44.3830   43.5910 C.2    56  ILE56       0.2260
     45  O         30.1600   43.5710   43.2230 O.2    56  ILE56      -0.2867
     46  CB        33.0610   43.0030   43.1010 C.3    56  ILE56       0.0252
     47  CG1       34.2160   43.7740   42.4940 C.3    56  ILE56       0.0019
     48  CG2       32.1100   42.5100   42.1020 C.3    56  ILE56       0.0019
     49  CD1       35.2350   44.2400   43.5580 C.3    56  ILE56       0.0001
     50  N         29.3690   44.6890   30.6870 N.3    70  LEU70      -0.1245
     51  CA        29.0530   44.7380   32.1190 C.3    70  LEU70       0.1561
     52  C         30.1220   45.4770   32.9590 C.2    70  LEU70       0.2260
     53  O         31.2160   44.9820   33.1360 O.2    70  LEU70      -0.2867
     54  CB        28.9370   43.2860   32.5730 C.3    70  LEU70       0.0270
     55  CG        28.5630   42.9300   34.0040 C.3    70  LEU70       0.0019
     56  CD1       27.1750   43.4490   34.3270 C.3    70  LEU70       0.0001
     57  CD2       28.6410   41.4020   34.1720 C.3    70  LEU70       0.0001
     58  N         31.6510   46.7630   36.3930 N.3    72  ILE72      -0.1231
     59  CA        31.5710   46.4750   37.8290 C.3    72  ILE72       0.1692
     60  C         32.6900   47.1920   38.5760 C.2    72  ILE72       0.2592
     61  O         33.7010   47.5280   37.9890 O.2    72  ILE72      -0.2718
     62  CB        31.6540   44.9680   38.1270 C.3    72  ILE72       0.0266
     63  CG1       33.1070   44.5040   38.0420 C.3    72  ILE72       0.0019
     64  CG2       30.8140   44.1880   37.1590 C.3    72  ILE72       0.0020
     65  CD1       33.2920   43.0200   38.0800 C.3    72  ILE72       0.0001
     66  N         32.5020   47.4070   39.8780 N.am   73  GLU73      -0.1966
     67  CA        33.4700   48.1420   40.7020 C.3    73  GLU73       0.1733
     68  C         34.8720   47.6530   40.4210 C.2    73  GLU73       0.2616
     69  O         35.0910   46.4380   40.4010 O.2    73  GLU73      -0.2715
     70  CB        33.1340   47.9650   42.1860 C.3    73  GLU73       0.0429
     71  CG        34.2890   48.1900   43.1470 C.3    73  GLU73       0.1163
     72  CD        33.8550   48.2340   44.6170 C.2    73  GLU73       0.3649
     73  OE1       32.7540   47.7040   44.9760 O.co2  73  GLU73      -0.2457
     74  OE2       34.6440   48.8320   45.4010 O.co2  73  GLU73      -0.2457
     75  N         35.8000   48.5930   40.2060 N.am   74  TYR74      -0.1960
     76  CA        37.2210   48.3030   39.8560 C.3    74  TYR74       0.1771
     77  C         38.1220   48.1600   41.0760 C.2    74  TYR74       0.2619
     78  O         38.1130   49.0120   41.9500 O.2    74  TYR74      -0.2715
     79  CB        37.8080   49.4260   38.9890 C.3    74  TYR74       0.0574
     80  CG        39.2850   49.2710   38.6930 C.ar   74  TYR74      -0.0198
     81  CD1       39.7460   48.2280   37.8630 C.ar   74  TYR74      -0.0009
     82  CD2       40.2160   50.1630   39.1850 C.ar   74  TYR74      -0.0009
     83  CE1       41.0740   48.0600   37.5620 C.ar   74  TYR74       0.0417
     84  CE2       41.5830   50.0080   38.8740 C.ar   74  TYR74       0.0417
     85  CZ        41.9920   48.9420   38.0580 C.ar   74  TYR74       0.1957
     86  OH        43.3150   48.7490   37.7620 O.3    74  TYR74      -0.2866
     87  N         38.9140   47.0950   41.1120 N.am   75  ALA75      -0.1977
     88  CA        39.8420   46.8090   42.2190 C.3    75  ALA75       0.1597
     89  C         41.2630   47.2000   41.8270 C.2    75  ALA75       0.2287
     90  O         41.9090   46.4740   41.0770 O.2    75  ALA75      -0.2864
     91  CB        39.7870   45.3290   42.5920 C.3    75  ALA75       0.0319
     92  N         44.6530   44.1010   42.4560 N.3    78  GLY78      -0.1210
     93  CA        44.7660   42.6930   42.0860 C.3    78  GLY78       0.1956
     94  C         44.0470   41.7750   43.0510 C.2    78  GLY78       0.2611
     95  O         43.3450   42.2620   43.9600 O.2    78  GLY78      -0.2717
     96  N         44.1820   40.4600   42.8340 N.am   79  ASN79      -0.1974
     97  CA        43.6450   39.4650   43.7580 C.3    79  ASN79       0.1688
     98  C         44.4130   39.4730   45.0860 C.2    79  ASN79       0.2292
     99  O         45.5790   39.8500   45.1270 O.2    79  ASN79      -0.2864
    100  CB        43.6870   38.0770   43.1330 C.3    79  ASN79       0.1181
    101  CG        45.0750   37.4790   43.1190 C.2    79  ASN79       0.2629
    102  OD1       45.5950   37.0620   44.1490 O.2    79  ASN79      -0.2716
    103  ND2       45.6800   37.4370   41.9560 N.am   79  ASN79      -0.0877
    104  N         43.2820   33.8920   45.9880 N.3   138  ARG138     -0.1231
    105  CA        43.3570   34.3760   44.6290 C.3   138  ARG138      0.1694
    106  C         42.0000   34.8540   44.1270 C.2   138  ARG138      0.2592
    107  O         41.9400   35.4690   43.0730 O.2   138  ARG138     -0.2718
    108  CB        43.8260   33.2680   43.7040 C.3   138  ARG138      0.0321
    109  CG        42.6940   32.3410   43.3120 C.3   138  ARG138      0.0489
    110  CD        43.0980   31.0060   42.6460 C.3   138  ARG138      0.2205
    111  NE        41.9990   30.0650   42.9240 N.pl3 138  ARG138     -0.0865
    112  CZ        42.0760   28.9350   43.6340 C.cat 138  ARG138      0.5346
    113  NH1       43.2340   28.4840   44.1130 N.pl3 138  ARG138      0.1354
    114  NH2       40.9640   28.2320   43.8340 N.pl3 138  ARG138      0.1354
    115  N         40.9110   34.5230   44.8270 N.am  139  ASN139     -0.1974
    116  CA        39.5380   34.7770   44.3230 C.3   139  ASN139      0.1688
    117  C         38.8390   35.9350   45.0160 C.2   139  ASN139      0.2292
    118  O         37.6610   36.1830   44.7880 O.2   139  ASN139     -0.2864
    119  CB        38.6960   33.5060   44.3980 C.3   139  ASN139      0.1181
    120  CG        38.9510   32.5850   43.2330 C.2   139  ASN139      0.2629
    121  OD1       39.4170   33.0090   42.1940 O.2   139  ASN139     -0.2716
    122  ND2       38.6460   31.3180   43.4040 N.am  139  ASN139     -0.0877
    123  N         39.3820   40.0950   45.7030 N.3   141  LEU141     -0.1245
    124  CA        40.0370   41.2710   45.1620 C.3   141  LEU141      0.1561
    125  C         40.2290   42.2610   46.2810 C.2   141  LEU141      0.2260
    126  O         39.3870   42.3800   47.1690 O.2   141  LEU141     -0.2867
    127  CB        39.1800   41.9180   44.0990 C.3   141  LEU141      0.0270
    128  CG        38.9560   41.2060   42.7690 C.3   141  LEU141      0.0019
    129  CD1       37.6170   41.6450   42.2370 C.3   141  LEU141      0.0001
    130  CD2       40.0300   41.5250   41.7450 C.3   141  LEU141      0.0001
    131  N         33.7340   38.4620   44.7960 N.3   151  ALA151     -0.1245
    132  CA        33.0580   38.4240   43.5140 C.3   151  ALA151      0.1562
    133  C         31.7180   37.6750   43.6060 C.2   151  ALA151      0.2260
    134  O         31.6830   36.4710   43.8770 O.2   151  ALA151     -0.2867
    135  CB        33.9580   37.7210   42.4860 C.3   151  ALA151      0.0290
    136  N         29.6960   36.6460   41.1080 N.3   153  PHE153     -0.1241
    137  CA        29.1880   36.0310   39.8480 C.3   153  PHE153      0.1605
    138  C         29.0860   34.5140   39.9430 C.2   153  PHE153      0.2264
    139  O         29.9150   33.8630   40.5840 O.2   153  PHE153     -0.2867
    140  CB        30.0120   36.3760   38.5870 C.3   153  PHE153      0.0534
    141  CG        30.8450   37.5970   38.7130 C.ar  153  PHE153     -0.0203
    142  CD1       32.2340   37.4970   38.7510 C.ar  153  PHE153     -0.0042
    143  CD2       30.2520   38.8530   38.8100 C.ar  153  PHE153     -0.0042
    144  CE1       33.0260   38.6350   38.8780 C.ar  153  PHE153     -0.0003
    145  CE2       31.0410   40.0010   38.9490 C.ar  153  PHE153     -0.0003
    146  CZ        32.4320   39.8850   38.9760 C.ar  153  PHE153     -0.0000
@<TRIPOS>BOND
     1    11    10    1
     2    11    12    2
     3    13    14    1
     4    35    36    2
     5    35    34    1
     6    10     9    1
     7    16    15    2
     8    31    29    1
     9    15    14    1
    10    14    17    1
    11    34    33    1
    12    34    37    1
    13    28    27    2
    14    50    51    1
    15    29    30    1
    16    29    26    1
    17    38    37    1
    18    38    39    1
    19    40    39    1
    20    40    41    1
    21     1     2    1
    22    27    33   am
    23    27    26    1
    24    30    32    1
    25    26    25    1
    26    17    18    1
    27    17    19    1
    28     4     3    2
    29    51    54    1
    30    51    52    1
    31     2     3    1
    32     2     5    1
    33    54    55    1
    34    25    22   am
    35    52    53    2
    36     5     6    1
    37     5     7    1
    38     6     8    1
    39    55    57    1
    40    55    56    1
    41    22    23    2
    42    22    21    1
    43    21    20    1
    44    21    24    1
    45    58    59    1
    46    64    62    1
    47    83    81   ar
    48    83    85   ar
    49    86    85    1
    50    59    62    1
    51    59    60    1
    52    81    80   ar
    53    61    60    2
    54    63    65    1
    55    63    62    1
    56    85    84   ar
    57    60    66   am
    58   140   141    1
    59   140   137    1
    60    80    79    1
    61    80    82   ar
    62   141   142   ar
    63   141   143   ar
    64   142   144   ar
    65   143   145   ar
    66    84    82   ar
    67   144   146   ar
    68   145   146   ar
    69    79    76    1
    70   137   138    1
    71   137   136    1
    72    76    75    1
    73    76    77    1
    74    66    67    1
    75   138   139    2
    76    75    68   am
    77    69    68    2
    78    68    67    1
    79    67    70    1
    80    77    87   am
    81    77    78    2
    82    90    89    2
    83    87    88    1
    84   130   128    1
    85    89    88    1
    86   103   101   am
    87    93    92    1
    88    93    94    1
    89    48    46    1
    90    70    71    1
    91   121   120    2
    92    88    91    1
    93   129   128    1
    94   135   132    1
    95    47    46    1
    96    47    49    1
    97   110   111    1
    98   110   109    1
    99   128   127    1
   100    96    94   am
   101    96    97    1
   102   111   112    2
   103    94    95    2
   104   107   106    2
   105    46    43    1
   106   101   100    1
   107   101   102    2
   108   100    97    1
   109    71    72    1
   110    45    44    2
   111   120   122   am
   112   120   119    1
   113   109   108    1
   114   132   133    1
   115   132   131    1
   116    44    43    1
   117   133   134    2
   118   112   114    1
   119   112   113    1
   120   108   105    1
   121    97    98    1
   122   127   124    1
   123   106   105    1
   124   106   115   am
   125    43    42    1
   126   116   119    1
   127   116   115    1
   128   116   117    1
   129    72    73   ar
   130    72    74   ar
   131   105   104    1
   132   118   117    2
   133    98    99    2
   134   124   123    1
   135   124   125    1
   136   125   126    2
