@<TRIPOS>MOLECULE
tmp/2wqeA00.pdb
 161 152 0 0 0
SMALL
GASTEIGER

@<TRIPOS>ATOM
      1  N        -29.5720   13.1220   -8.2810 N.3    13  LEU13      -0.1231
      2  CA       -28.7080   14.2880   -8.2020 C.3    13  LEU13       0.1693
      3  C        -27.5000   14.1490   -9.1110 C.2    13  LEU13       0.2593
      4  O        -26.9280   15.1500   -9.5150 O.2    13  LEU13      -0.2718
      5  CB       -28.2510   14.5110   -6.7690 C.3    13  LEU13       0.0284
      6  CG       -29.3850   14.8860   -5.8320 C.3    13  LEU13       0.0019
      7  CD1      -28.9260   14.7920   -4.3790 C.3    13  LEU13       0.0001
      8  CD2      -29.8800   16.2800   -6.1880 C.3    13  LEU13       0.0001
      9  N        -27.1220   12.9100   -9.4300 N.am   14  GLY14      -0.1942
     10  CA       -26.0290   12.6300  -10.3510 C.3    14  GLY14       0.2014
     11  C        -25.6380   11.1550  -10.3760 C.2    14  GLY14       0.2639
     12  O        -25.9580   10.4020   -9.4540 O.2    14  GLY14      -0.2714
     13  N        -24.9580   10.7370  -11.4400 N.am   15  LYS15      -0.1963
     14  CA       -24.4290    9.3750  -11.5300 C.3    15  LYS15       0.1728
     15  C        -22.9270    9.3400  -11.2240 C.2    15  LYS15       0.2617
     16  O        -22.1590   10.1740  -11.7090 O.2    15  LYS15      -0.2715
     17  CB       -24.7090    8.7640  -12.9090 C.3    15  LYS15       0.0311
     18  CG       -24.2020    7.3320  -13.0620 C.3    15  LYS15       0.0038
     19  CD       -24.8610    6.6310  -14.2320 C.3    15  LYS15       0.0206
     20  CE       -24.2510    5.2670  -14.5180 C.3    15  LYS15       0.1093
     21  NZ       -23.9930    4.4430  -13.2970 N.3    15  LYS15      -0.1314
     22  N        -22.5140    8.3760  -10.4100 N.am   16  GLY16      -0.1940
     23  CA       -21.1140    8.2450  -10.0450 C.3    16  GLY16       0.2014
     24  C        -20.4890    7.0100  -10.6610 C.2    16  GLY16       0.2639
     25  O        -21.1240    6.3130  -11.4550 O.2    16  GLY16      -0.2714
     26  N        -19.2420    6.7390  -10.2900 N.am   17  LYS17      -0.1963
     27  CA       -18.5270    5.5820  -10.8110 C.3    17  LYS17       0.1728
     28  C        -19.2640    4.2700  -10.5360 C.2    17  LYS17       0.2616
     29  O        -19.2790    3.3810  -11.3890 O.2    17  LYS17      -0.2715
     30  CB       -17.1110    5.5190  -10.2300 C.3    17  LYS17       0.0311
     31  CG       -16.2440    6.7150  -10.5540 C.3    17  LYS17       0.0038
     32  CD       -16.0770    6.8690  -12.0520 C.3    17  LYS17       0.0206
     33  CE       -14.9230    7.8010  -12.3790 C.3    17  LYS17       0.1093
     34  NZ       -15.0650    9.0700  -11.6140 N.3    17  LYS17      -0.1314
     35  N        -19.8840    4.1580   -9.3590 N.am   18  PHE18      -0.1960
     36  CA       -20.4320    2.8790   -8.8910 C.3    18  PHE18       0.1771
     37  C        -21.9370    2.8840   -8.6110 C.2    18  PHE18       0.2620
     38  O        -22.4570    1.9530   -7.9870 O.2    18  PHE18      -0.2715
     39  CB       -19.6950    2.4140   -7.6290 C.3    18  PHE18       0.0574
     40  CG       -18.1940    2.4370   -7.7510 C.ar   18  PHE18      -0.0200
     41  CD1      -17.4510    3.4340   -7.1380 C.ar   18  PHE18      -0.0042
     42  CD2      -17.5250    1.4670   -8.4740 C.ar   18  PHE18      -0.0042
     43  CE1      -16.0650    3.4620   -7.2440 C.ar   18  PHE18      -0.0003
     44  CE2      -16.1380    1.4910   -8.5840 C.ar   18  PHE18      -0.0003
     45  CZ       -15.4100    2.4910   -7.9680 C.ar   18  PHE18      -0.0000
     46  N        -22.6270    3.9330   -9.0600 N.am   19  GLY19      -0.1954
     47  CA       -24.0620    4.0580   -8.8550 C.3    19  GLY19       0.1869
     48  C        -24.6480    5.4640   -8.9630 C.2    19  GLY19       0.2309
     49  O        -24.0220    6.3910   -9.4750 O.2    19  GLY19      -0.2863
     50  N        -26.7930    8.9120   -7.2160 N.3    21  VAL21      -0.1245
     51  CA       -27.0740    9.6980   -6.0300 C.3    21  VAL21       0.1561
     52  C        -28.4780   10.2790   -6.1880 C.2    21  VAL21       0.2260
     53  O        -28.8200   10.7990   -7.2520 O.2    21  VAL21      -0.2867
     54  CB       -26.0480   10.8230   -5.8680 C.3    21  VAL21       0.0252
     55  CG1      -26.2900   11.5790   -4.5850 C.3    21  VAL21       0.0019
     56  CG2      -24.6410   10.2470   -5.8960 C.3    21  VAL21       0.0019
     57  N        -28.9470   13.2320    0.7450 N.3    34  ALA34      -0.1245
     58  CA       -28.5890   12.6280   -0.5260 C.3    34  ALA34       0.1562
     59  C        -28.3690   11.1400   -0.3120 C.2    34  ALA34       0.2260
     60  O        -27.5170   10.7360    0.4840 O.2    34  ALA34      -0.2867
     61  CB       -27.3420   13.2900   -1.0970 C.3    34  ALA34       0.0290
     62  N        -26.8400    7.9300   -1.5460 N.3    36  LYS36      -0.1245
     63  CA       -25.8510    7.4430   -2.5070 C.3    36  LYS36       0.1561
     64  C        -25.8710    5.9180   -2.6020 C.2    36  LYS36       0.2260
     65  O        -25.6140    5.2090   -1.6160 O.2    36  LYS36      -0.2867
     66  CB       -24.4590    7.9440   -2.1410 C.3    36  LYS36       0.0271
     67  CG       -23.3970    7.6150   -3.1650 C.3    36  LYS36       0.0035
     68  CD       -22.1300    8.4090   -2.8990 C.3    36  LYS36       0.0206
     69  CE       -21.0270    8.0260   -3.8680 C.3    36  LYS36       0.1093
     70  NZ       -19.8920    8.9900   -3.7920 N.3    36  LYS36      -0.1314
     71  N        -24.4610    2.4850   -4.0710 N.3    38  LEU38      -0.1245
     72  CA       -23.2900    1.8710   -4.6830 C.3    38  LEU38       0.1561
     73  C        -23.5780    0.4060   -4.9610 C.2    38  LEU38       0.2260
     74  O        -24.1530   -0.2890   -4.1230 O.2    38  LEU38      -0.2867
     75  CB       -22.0800    1.9830   -3.7570 C.3    38  LEU38       0.0270
     76  CG       -21.7100    3.3740   -3.2440 C.3    38  LEU38       0.0019
     77  CD1      -21.5830    3.3820   -1.7330 C.3    38  LEU38       0.0001
     78  CD2      -20.4370    3.8650   -3.8870 C.3    38  LEU38       0.0001
     79  N        -18.3420   17.3570    4.1000 N.3    68  LEU68      -0.1245
     80  CA       -19.6660   16.7700    3.8980 C.3    68  LEU68       0.1561
     81  C        -19.9520   15.6530    4.8960 C.2    68  LEU68       0.2260
     82  O        -19.1910   14.6950    5.0040 O.2    68  LEU68      -0.2867
     83  CB       -19.8310   16.2480    2.4700 C.3    68  LEU68       0.0270
     84  CG       -21.2560   15.8340    2.0950 C.3    68  LEU68       0.0019
     85  CD1      -22.0880   17.0540    1.7000 C.3    68  LEU68       0.0001
     86  CD2      -21.2500   14.8060    0.9740 C.3    68  LEU68       0.0001
     87  N        -25.9000   10.6870    3.0500 N.3    84  LEU84      -0.1231
     88  CA       -25.0200   11.8410    2.9900 C.3    84  LEU84       0.1693
     89  C        -25.7380   13.1500    3.2090 C.2    84  LEU84       0.2592
     90  O        -26.9000   13.3080    2.8400 O.2    84  LEU84      -0.2718
     91  CB       -24.3670   11.9150    1.6100 C.3    84  LEU84       0.0284
     92  CG       -23.4830   10.7500    1.1780 C.3    84  LEU84       0.0019
     93  CD1      -23.0260   10.9750   -0.2520 C.3    84  LEU84       0.0001
     94  CD2      -22.2940   10.5810    2.1400 C.3    84  LEU84       0.0001
     95  N        -25.0150   14.0990    3.7840 N.am   85  GLU85      -0.1966
     96  CA       -25.4150   15.4910    3.7480 C.3    85  GLU85       0.1733
     97  C        -25.7070   15.8700    2.3100 C.2    85  GLU85       0.2616
     98  O        -24.8940   15.6340    1.4200 O.2    85  GLU85      -0.2715
     99  CB       -24.2870   16.3770    4.2820 C.3    85  GLU85       0.0429
    100  CG       -24.5800   17.8780    4.2180 C.3    85  GLU85       0.1163
    101  CD       -23.5370   18.7150    4.9430 C.2    85  GLU85       0.3649
    102  OE1      -23.6670   19.9620    4.9430 O.co2  85  GLU85      -0.2457
    103  OE2      -22.6000   18.1270    5.5290 O.co2  85  GLU85      -0.2457
    104  N        -26.8690   16.4580    2.0840 N.am   86  TYR86      -0.1960
    105  CA       -27.2510   16.9190    0.7600 C.3    86  TYR86       0.1771
    106  C        -26.6670   18.3010    0.5170 C.2    86  TYR86       0.2619
    107  O        -26.9070   19.2130    1.2870 O.2    86  TYR86      -0.2715
    108  CB       -28.7750   16.9640    0.6570 C.3    86  TYR86       0.0574
    109  CG       -29.3320   17.7390   -0.5180 C.ar   86  TYR86      -0.0198
    110  CD1      -28.9950   17.4060   -1.8250 C.ar   86  TYR86      -0.0009
    111  CD2      -30.2360   18.7720   -0.3210 C.ar   86  TYR86      -0.0009
    112  CE1      -29.5230   18.1010   -2.9010 C.ar   86  TYR86       0.0417
    113  CE2      -30.7740   19.4690   -1.3870 C.ar   86  TYR86       0.0417
    114  CZ       -30.4170   19.1340   -2.6730 C.ar   86  TYR86       0.1957
    115  OH       -30.9540   19.8330   -3.7360 O.3    86  TYR86      -0.2866
    116  N        -25.8860   18.4300   -0.5520 N.am   87  ALA87      -0.1977
    117  CA       -25.3110   19.7020   -0.9870 C.3    87  ALA87       0.1597
    118  C        -26.0740   20.2240   -2.2120 C.2    87  ALA87       0.2287
    119  O        -25.8880   19.7220   -3.3190 O.2    87  ALA87      -0.2864
    120  CB       -23.8400   19.5250   -1.3110 C.3    87  ALA87       0.0319
    121  N        -24.5110   21.7390   -5.9590 N.3    90  GLY90      -0.1210
    122  CA       -23.7370   20.9260   -6.8730 C.3    90  GLY90       0.1956
    123  C        -22.2390   20.9660   -6.6240 C.2    90  GLY90       0.2612
    124  O        -21.7880   21.3220   -5.5310 O.2    90  GLY90      -0.2717
    125  N        -21.4650   20.5880   -7.6410 N.am   91  THR91      -0.1952
    126  CA       -20.0280   20.4450   -7.4830 C.3    91  THR91       0.1897
    127  C        -19.3210   21.7440   -7.8420 C.2    91  THR91       0.2313
    128  O        -19.8700   22.5700   -8.5770 O.2    91  THR91      -0.2863
    129  CB       -19.4710   19.2790   -8.3370 C.3    91  THR91       0.1794
    130  OG1      -19.5630   19.6080   -9.7240 O.3    91  THR91      -0.2208
    131  CG2      -20.2360   17.9960   -8.0740 C.3    91  THR91       0.0378
    132  N        -14.2800   17.9090   -8.6700 N.3   134  GLU134     -0.1231
    133  CA       -15.3750   16.9440   -8.6620 C.3   134  GLU134      0.1699
    134  C        -15.6940   16.4660   -7.2370 C.2   134  GLU134      0.2592
    135  O        -16.8320   16.1280   -6.9250 O.2   134  GLU134     -0.2718
    136  CB       -15.0290   15.7510   -9.5680 C.3   134  GLU134      0.0402
    137  CG       -14.2990   16.1360  -10.8870 C.3   134  GLU134      0.1161
    138  CD       -12.8620   16.6730  -10.6650 C.2   134  GLU134      0.3649
    139  OE1      -12.3320   17.4060  -11.5390 O.co2 134  GLU134     -0.2457
    140  OE2      -12.2690   16.3670   -9.6070 O.co2 134  GLU134     -0.2457
    141  N        -14.6770   16.4400   -6.3780 N.am  135  ASN135     -0.1974
    142  CA       -14.8210   15.9940   -4.9940 C.3   135  ASN135      0.1688
    143  C        -15.3030   17.0990   -4.0490 C.2   135  ASN135      0.2292
    144  O        -15.3850   16.8870   -2.8360 O.2   135  ASN135     -0.2864
    145  CB       -13.4790   15.4690   -4.4620 C.3   135  ASN135      0.1181
    146  CG       -13.0370   14.1570   -5.1210 C.2   135  ASN135      0.2629
    147  OD1      -13.8180   13.4880   -5.8030 O.2   135  ASN135     -0.2716
    148  ND2      -11.7700   13.7860   -4.9030 N.am  135  ASN135     -0.0877
    149  N        -18.3360   19.8150   -3.0660 N.3   137  LEU137     -0.1245
    150  CA       -19.7450   20.1450   -3.2400 C.3   137  LEU137      0.1561
    151  C        -20.0450   21.5020   -2.6180 C.2   137  LEU137      0.2260
    152  O        -19.2720   22.0080   -1.8110 O.2   137  LEU137     -0.2867
    153  CB       -20.6230   19.0350   -2.6550 C.3   137  LEU137      0.0270
    154  CG       -20.5890   17.7420   -3.4960 C.3   137  LEU137      0.0019
    155  CD1      -21.0990   16.5480   -2.7400 C.3   137  LEU137      0.0001
    156  CD2      -21.3770   17.8920   -4.7910 C.3   137  LEU137      0.0001
    157  N        -16.0160   16.3260   -0.1890 N.3   147  ALA147     -0.1245
    158  CA       -16.7800   15.0780   -0.2400 C.3   147  ALA147      0.1562
    159  C        -15.9180   13.8080   -0.2930 C.2   147  ALA147      0.2260
    160  O        -16.2090   12.8370    0.4070 O.2   147  ALA147     -0.2867
    161  CB       -17.7670   15.0950   -1.4010 C.3   147  ALA147      0.0290
@<TRIPOS>BOND
     1    20    19    1
     2    20    21    1
     3    19    18    1
     4    18    17    1
     5    17    14    1
     6    33    32    1
     7    33    34    1
     8    32    31    1
     9    16    15    2
    10   139   138   ar
    11    14    13    1
    12    14    15    1
    13    25    24    2
    14    13    11   am
    15    29    28    2
    16    15    22   am
    17   137   138    1
    18   137   136    1
    19    27    28    1
    20    27    26    1
    21    27    30    1
    22   138   140   ar
    23    24    26   am
    24    24    23    1
    25    31    30    1
    26    28    35   am
    27    22    23    1
    28    11    10    1
    29    11    12    2
    30    10     9    1
    31   130   129    1
    32   136   133    1
    33     4     3    2
    34    49    48    2
    35     9     3   am
    36    35    36    1
    37     3     2    1
    38    46    47    1
    39    46    37   am
    40    48    47    1
    41    36    37    1
    42    36    39    1
    43   132   133    1
    44   133   134    1
    45    37    38    2
    46    44    42   ar
    47    44    45   ar
    48   128   127    2
    49    42    40   ar
    50   129   131    1
    51   129   126    1
    52     1     2    1
    53     2     5    1
    54    45    43   ar
    55   127   126    1
    56    40    39    1
    57    40    41   ar
    58   125   126    1
    59   125   123   am
    60    53    52    2
    61    43    41   ar
    62   134   135    2
    63   134   141   am
    64    50    51    1
    65   122   123    1
    66   122   121    1
    67     5     6    1
    68   123   124    2
    69   141   142    1
    70    52    51    1
    71     8     6    1
    72    51    54    1
    73    56    54    1
    74    54    55    1
    75     6     7    1
    76   147   146    2
    77   146   148   am
    78   146   145    1
    79   142   145    1
    80   142   143    1
    81    73    72    1
    82    73    74    2
    83   156   154    1
    84    72    71    1
    85    72    75    1
    86   143   144    2
    87    78    76    1
    88    69    70    1
    89    69    68    1
    90    75    76    1
    91   115   114    1
    92   154   155    1
    93   154   153    1
    94   119   118    2
    95    76    77    1
    96   150   149    1
    97   150   153    1
    98   150   151    1
    99    67    68    1
   100    67    66    1
   101   112   114   ar
   102   112   110   ar
   103   114   113   ar
   104   151   152    2
   105    64    63    1
   106    64    65    2
   107    63    66    1
   108    63    62    1
   109   118   117    1
   110   110   109   ar
   111   161   158    1
   112   113   111   ar
   113   120   117    1
   114    61    58    1
   115   117   116    1
   116   116   106   am
   117    58    59    1
   118    58    57    1
   119   109   111   ar
   120   109   108    1
   121    59    60    2
   122   159   158    1
   123   159   160    2
   124    93    92    1
   125   158   157    1
   126   106   105    1
   127   106   107    2
   128   108   105    1
   129   105   104    1
   130    86    84    1
   131    92    91    1
   132    92    94    1
   133    98    97    2
   134    91    88    1
   135    85    84    1
   136   104    97   am
   137    84    83    1
   138    97    96    1
   139    83    80    1
   140    90    89    2
   141    88    87    1
   142    88    89    1
   143    89    95   am
   144    96    95    1
   145    96    99    1
   146    80    79    1
   147    80    81    1
   148   100    99    1
   149   100   101    1
   150    81    82    2
   151   101   102   ar
   152   101   103   ar
