@<TRIPOS>MOLECULE
tmp/2wqeA02.pdb
 103 99 0 0 0
SMALL
GASTEIGER

@<TRIPOS>ATOM
      1  N        -31.1890    1.3200    9.7310 N.3     2  TRP2       -0.1241
      2  CA       -31.6100    1.9010    8.4460 C.3     2  TRP2        0.1605
      3  C        -32.0010    0.9120    7.3480 C.2     2  TRP2        0.2264
      4  O        -31.3690   -0.1280    7.1710 O.2     2  TRP2       -0.2867
      5  CB       -30.5320    2.8440    7.9010 C.3     2  TRP2        0.0550
      6  CG       -30.4830    4.1550    8.5940 C.ar    2  TRP2        0.0003
      7  CD1      -29.3890    4.7530    9.1570 C.ar    2  TRP2        0.0946
      8  CD2      -31.5860    5.0370    8.8200 C.ar    2  TRP2        0.0152
      9  NE1      -29.7460    5.9620    9.7150 N.ar    2  TRP2       -0.2442
     10  CE2      -31.0890    6.1580    9.5210 C.ar    2  TRP2        0.0810
     11  CE3      -32.9490    4.9870    8.5010 C.ar    2  TRP2        0.0012
     12  CZ2      -31.9040    7.2180    9.9030 C.ar    2  TRP2        0.0191
     13  CZ3      -33.7570    6.0400    8.8840 C.ar    2  TRP2        0.0001
     14  CH2      -33.2320    7.1410    9.5780 C.ar    2  TRP2        0.0015
     15  N        -36.3410   11.5540    4.6500 N.3    26  GLU26      -0.1245
     16  CA       -36.6340   10.5390    5.6330 C.3    26  GLU26       0.1567
     17  C        -38.0850   10.6750    6.0720 C.2    26  GLU26       0.2260
     18  O        -38.4780   11.7150    6.5900 O.2    26  GLU26      -0.2867
     19  CB       -35.7000   10.6950    6.8210 C.3    26  GLU26       0.0388
     20  CG       -35.3820    9.3840    7.4990 C.3    26  GLU26       0.1160
     21  CD       -34.7290    9.5880    8.8410 C.2    26  GLU26       0.3649
     22  OE1      -35.4210    9.3560    9.8540 O.co2  26  GLU26      -0.2457
     23  OE2      -33.5420    9.9950    8.8850 O.co2  26  GLU26      -0.2457
     24  N        -38.2640   11.4280   10.4220 N.3    29  ARG29      -0.1245
     25  CA       -37.9200   12.6960   11.0190 C.3    29  ARG29       0.1563
     26  C        -37.9660   13.7790    9.9580 C.2    29  ARG29       0.2260
     27  O        -37.7780   14.9520   10.2520 O.2    29  ARG29      -0.2867
     28  CB       -36.5550   12.5870   11.6840 C.3    29  ARG29       0.0307
     29  CG       -36.2000   11.1350   11.9800 C.3    29  ARG29       0.0489
     30  CD       -35.4350   10.9450   13.2800 C.3    29  ARG29       0.2205
     31  NE       -34.0070   11.2500   13.1780 N.pl3  29  ARG29      -0.0865
     32  CZ       -33.0920   10.4380   12.6500 C.cat  29  ARG29       0.5346
     33  NH1      -33.4440    9.2630   12.1410 N.pl3  29  ARG29       0.1354
     34  NH2      -31.8190   10.8060   12.6240 N.pl3  29  ARG29       0.1354
     35  N        -36.0210   14.4770    7.5200 N.3    31  PHE31      -0.1227
     36  CA       -34.7280   15.0220    7.1060 C.3    31  PHE31       0.1736
     37  C        -34.5720   14.9770    5.5870 C.2    31  PHE31       0.2595
     38  O        -34.9890   14.0140    4.9430 O.2    31  PHE31      -0.2718
     39  CB       -33.5780   14.1990    7.6940 C.3    31  PHE31       0.0547
     40  CG       -33.3880   14.3570    9.1730 C.ar   31  PHE31      -0.0202
     41  CD1      -33.6080   15.5680    9.7930 C.ar   31  PHE31      -0.0042
     42  CD2      -32.9360   13.2930    9.9360 C.ar   31  PHE31      -0.0042
     43  CE1      -33.4100   15.7130   11.1500 C.ar   31  PHE31      -0.0003
     44  CE2      -32.7300   13.4350   11.2940 C.ar   31  PHE31      -0.0003
     45  CZ       -32.9670   14.6510   11.9000 C.ar   31  PHE31      -0.0000
     46  N        -33.9530   16.0130    5.0270 N.am   32  ILE32      -0.1966
     47  CA       -33.5330   16.0050    3.6280 C.3    32  ILE32       0.1727
     48  C        -32.0930   15.5160    3.5230 C.2    32  ILE32       0.2616
     49  O        -31.2360   15.9080    4.3280 O.2    32  ILE32      -0.2715
     50  CB       -33.5990   17.4140    3.0360 C.3    32  ILE32       0.0290
     51  CG1      -34.9730   18.0420    3.3090 C.3    32  ILE32       0.0022
     52  CG2      -33.2380   17.3920    1.5580 C.3    32  ILE32       0.0023
     53  CD1      -36.1540   17.2060    2.8430 C.3    32  ILE32       0.0001
     54  N        -31.8100   14.6740    2.5330 N.am   33  LEU33      -0.1977
     55  CA       -30.4700   14.1040    2.4160 C.3    33  LEU33       0.1596
     56  C        -30.2020   13.5670    1.0180 C.2    33  LEU33       0.2287
     57  O        -31.1120   13.4610    0.1980 O.2    33  LEU33      -0.2864
     58  CB       -30.2800   12.9860    3.4540 C.3    33  LEU33       0.0297
     59  CG       -31.3770   11.9080    3.4170 C.3    33  LEU33       0.0022
     60  CD1      -31.0280   10.7600    2.4570 C.3    33  LEU33       0.0001
     61  CD2      -31.6630   11.3730    4.8100 C.3    33  LEU33       0.0001
     62  N        -16.6010   16.0920   12.0260 N.3    63  ARG63      -0.1245
     63  CA       -17.6470   17.0930   12.1770 C.3    63  ARG63       0.1563
     64  C        -17.0510   18.4630   11.8820 C.2    63  ARG63       0.2260
     65  O        -16.3120   19.0100   12.7000 O.2    63  ARG63      -0.2867
     66  CB       -18.1990   17.0880   13.6010 C.3    63  ARG63       0.0307
     67  CG       -18.9530   15.8450   13.9850 C.3    63  ARG63       0.0489
     68  CD       -20.3960   15.8960   13.5280 C.3    63  ARG63       0.2205
     69  NE       -21.2060   14.9220   14.2580 N.pl3  63  ARG63      -0.0865
     70  CZ       -21.0910   13.6000   14.1320 C.cat  63  ARG63       0.5346
     71  NH1      -20.1920   13.0830   13.3010 N.pl3  63  ARG63       0.1354
     72  NH2      -21.8770   12.7930   14.8370 N.pl3  63  ARG63       0.1354
     73  N        -21.0590   15.7760    5.6180 N.3    69  ARG69      -0.1245
     74  CA       -21.3900   14.8200    6.6650 C.3    69  ARG69       0.1563
     75  C        -21.9690   13.5100    6.1510 C.2    69  ARG69       0.2260
     76  O        -22.8490   13.4990    5.2960 O.2    69  ARG69      -0.2867
     77  CB       -22.3350   15.4460    7.6900 C.3    69  ARG69       0.0307
     78  CG       -21.6370   16.4140    8.6260 C.3    69  ARG69       0.0489
     79  CD       -22.2680   16.3890   10.0050 C.3    69  ARG69       0.2205
     80  NE       -22.3860   15.0240   10.5020 N.pl3  69  ARG69      -0.0865
     81  CZ       -23.3380   14.6170   11.3360 C.cat  69  ARG69       0.5346
     82  NH1      -24.2520   15.4810   11.7640 N.pl3  69  ARG69       0.1354
     83  NH2      -23.3780   13.3480   11.7350 N.pl3  69  ARG69       0.1354
     84  N        -24.1330   10.7350    7.6010 N.3    71  TYR71      -0.1241
     85  CA       -25.0310   10.4830    8.7180 C.3    71  TYR71       0.1605
     86  C        -25.1630    9.0020    9.0820 C.2    71  TYR71       0.2264
     87  O        -25.3540    8.6600   10.2420 O.2    71  TYR71      -0.2867
     88  CB       -26.4190   11.0320    8.3980 C.3    71  TYR71       0.0534
     89  CG       -26.4730   12.5110    8.1030 C.ar   71  TYR71      -0.0201
     90  CD1      -26.9250   12.9760    6.8770 C.ar   71  TYR71      -0.0009
     91  CD2      -26.0880   13.4440    9.0570 C.ar   71  TYR71      -0.0009
     92  CE1      -26.9890   14.3310    6.6080 C.ar   71  TYR71       0.0417
     93  CE2      -26.1450   14.7980    8.7950 C.ar   71  TYR71       0.0417
     94  CZ       -26.5970   15.2390    7.5700 C.ar   71  TYR71       0.1957
     95  OH       -26.6560   16.5970    7.3080 O.3    71  TYR71      -0.2866
     96  N        -25.8380    7.4310    3.4670 N.3    83  ILE83      -0.1245
     97  CA       -26.6940    8.5440    3.8400 C.3    83  ILE83       0.1561
     98  C        -25.8430    9.7980    4.0340 C.2    83  ILE83       0.2260
     99  O        -25.1500    9.9530    5.0360 O.2    83  ILE83      -0.2867
    100  CB       -27.5020    8.2150    5.1090 C.3    83  ILE83       0.0252
    101  CG1      -28.3790    6.9820    4.8610 C.3    83  ILE83       0.0019
    102  CG2      -28.3350    9.4070    5.5510 C.3    83  ILE83       0.0019
    103  CD1      -28.9050    6.3370    6.1250 C.3    83  ILE83       0.0001
@<TRIPOS>BOND
     1    57    56    2
     2    56    55    1
     3    52    50    1
     4    55    54    1
     5    55    58    1
     6    60    59    1
     7    54    48   am
     8    53    51    1
     9    50    51    1
    10    50    47    1
    11    59    58    1
    12    59    61    1
    13    96    97    1
    14    48    47    1
    15    48    49    2
    16    47    46    1
    17    97    98    1
    18    97   100    1
    19    98    99    2
    20    15    16    1
    21   101   100    1
    22   101   103    1
    23    38    37    2
    24    46    37   am
    25   100   102    1
    26    76    75    2
    27    37    36    1
    28    73    74    1
    29    16    17    1
    30    16    19    1
    31    17    18    2
    32    75    74    1
    33    92    90   ar
    34    92    94   ar
    35    74    77    1
    36    19    20    1
    37    90    89   ar
    38    36    35    1
    39    36    39    1
    40     4     3    2
    41    95    94    1
    42     3     2    1
    43    20    21    1
    44    94    93   ar
    45    84    85    1
    46    77    78    1
    47    39    40    1
    48     5     2    1
    49     5     6    1
    50    89    88    1
    51    89    91   ar
    52    88    85    1
    53     2     1    1
    54    11     8   ar
    55    11    13   ar
    56     6     8   ar
    57     6     7   ar
    58    78    79    1
    59    85    86    1
    60    93    91   ar
    61     8    10   ar
    62    21    23   ar
    63    21    22   ar
    64    13    14   ar
    65    86    87    2
    66     7     9   ar
    67    40    41   ar
    68    40    42   ar
    69    10     9   ar
    70    10    12   ar
    71    14    12   ar
    72    41    43   ar
    73    42    44   ar
    74    26    27    2
    75    26    25    1
    76    79    80    1
    77    24    25    1
    78    80    81    2
    79    25    28    1
    80    43    45   ar
    81    44    45   ar
    82    81    83    1
    83    81    82    1
    84    28    29    1
    85    64    63    1
    86    64    65    2
    87    29    30    1
    88    62    63    1
    89    33    32    1
    90    63    66    1
    91    34    32    1
    92    32    31    2
    93    31    30    1
    94    71    70    1
    95    68    67    1
    96    68    69    1
    97    66    67    1
    98    70    69    2
    99    70    72    1
