@<TRIPOS>MOLECULE
tmp/2wqlC00.pdb
 189 171 0 0 0
SMALL
GASTEIGER

@<TRIPOS>ATOM
      1  N         21.8400    1.5420   77.4800 N.3     6  LEU6       -0.1245
      2  CA        21.7960    1.5150   78.9280 C.3     6  LEU6        0.1561
      3  C         20.6700    2.4290   79.3510 C.2     6  LEU6        0.2260
      4  O         20.6120    3.5490   78.8700 O.2     6  LEU6       -0.2867
      5  CB        23.1140    2.0280   79.5030 C.3     6  LEU6        0.0270
      6  CG        23.1680    2.2170   81.0270 C.3     6  LEU6        0.0019
      7  CD1       23.1000    0.8850   81.7610 C.3     6  LEU6        0.0001
      8  CD2       24.4200    2.9900   81.4260 C.3     6  LEU6        0.0001
      9  N         18.8340    4.0490   82.8450 N.3     8  ILE8       -0.1245
     10  CA        18.9410    4.2280   84.2930 C.3     8  ILE8        0.1561
     11  C         17.7010    4.9560   84.8150 C.2     8  ILE8        0.2260
     12  O         17.3550    6.0520   84.3620 O.2     8  ILE8       -0.2867
     13  CB        20.2070    5.0170   84.6940 C.3     8  ILE8        0.0252
     14  CG1       21.4660    4.3450   84.1480 C.3     8  ILE8        0.0019
     15  CG2       20.3110    5.0900   86.2000 C.3     8  ILE8        0.0019
     16  CD1       22.7080    5.2300   84.1910 C.3     8  ILE8        0.0001
     17  N         23.8720   15.9020   85.1760 N.3    21  ILE21      -0.1231
     18  CA        24.7650   15.0170   84.4090 C.3    21  ILE21       0.1692
     19  C         25.2230   15.6260   83.0880 C.2    21  ILE21       0.2591
     20  O         26.0940   15.0660   82.4370 O.2    21  ILE21      -0.2718
     21  CB        24.1740   13.5960   84.2000 C.3    21  ILE21       0.0266
     22  CG1       23.0140   13.6130   83.2050 C.3    21  ILE21       0.0019
     23  CG2       23.7360   13.0120   85.5340 C.3    21  ILE21       0.0020
     24  CD1       22.2850   12.2840   83.1060 C.3    21  ILE21       0.0001
     25  N         24.6710   16.7720   82.7000 N.am   22  VAL22      -0.1980
     26  CA        25.1260   17.4570   81.4840 C.3    22  VAL22       0.1595
     27  C         25.4900   18.9220   81.7130 C.2    22  VAL22       0.2287
     28  O         26.6490   19.2930   81.5840 O.2    22  VAL22      -0.2864
     29  CB        24.0860   17.3810   80.3310 C.3    22  VAL22       0.0276
     30  CG1       24.5250   18.2840   79.1480 C.3    22  VAL22       0.0022
     31  CG2       23.8850   15.9370   79.8890 C.3    22  VAL22       0.0022
     32  N         27.7300   19.5440   84.9700 N.3    25  VAL25      -0.1245
     33  CA        28.6100   18.4300   85.2910 C.3    25  VAL25       0.1561
     34  C         30.0010   18.8460   85.7980 C.2    25  VAL25       0.2260
     35  O         30.5200   18.2240   86.7140 O.2    25  VAL25      -0.2867
     36  CB        28.7680   17.4750   84.0890 C.3    25  VAL25       0.0252
     37  CG1       29.6320   18.1160   82.9870 C.3    25  VAL25       0.0019
     38  CG2       29.3620   16.1540   84.5530 C.3    25  VAL25       0.0019
     39  N         30.4960   17.2640   89.5450 N.3    29  ILE29      -0.1245
     40  CA        31.3060   16.0560   89.7690 C.3    29  ILE29       0.1561
     41  C         32.3710   16.1930   90.8790 C.2    29  ILE29       0.2260
     42  O         32.5240   15.2820   91.6800 O.2    29  ILE29      -0.2867
     43  CB        31.9460   15.5250   88.4660 C.3    29  ILE29       0.0252
     44  CG1       30.8660   14.9060   87.5790 C.3    29  ILE29       0.0019
     45  CG2       33.0120   14.4810   88.7890 C.3    29  ILE29       0.0019
     46  CD1       31.3640   14.3950   86.2280 C.3    29  ILE29       0.0001
     47  N         37.6420   11.4310   89.4410 N.3    37  TYR37      -0.1241
     48  CA        38.5790   11.9280   88.4360 C.3    37  TYR37       0.1605
     49  C         39.8810   12.3600   89.0730 C.2    37  TYR37       0.2264
     50  O         39.8820   12.9570   90.1540 O.2    37  TYR37      -0.2867
     51  CB        38.0070   13.1410   87.6980 C.3    37  TYR37       0.0534
     52  CG        36.8370   12.8780   86.7500 C.ar   37  TYR37      -0.0201
     53  CD1       36.3830   11.5770   86.4530 C.ar   37  TYR37      -0.0009
     54  CD2       36.2030   13.9630   86.1110 C.ar   37  TYR37      -0.0009
     55  CE1       35.3010   11.3770   85.5510 C.ar   37  TYR37       0.0417
     56  CE2       35.1340   13.7820   85.2230 C.ar   37  TYR37       0.0417
     57  CZ        34.6870   12.4970   84.9420 C.ar   37  TYR37       0.1957
     58  OH        33.6310   12.3580   84.0590 O.3    37  TYR37      -0.2866
     59  N         36.6870   17.3330   76.2150 N.3    52  ARG52      -0.1245
     60  CA        37.1920   17.1110   77.5660 C.3    52  ARG52       0.1563
     61  C         38.2660   16.0210   77.5790 C.2    52  ARG52       0.2260
     62  O         38.0460   14.9190   77.0950 O.2    52  ARG52      -0.2867
     63  CB        36.0550   16.7130   78.5090 C.3    52  ARG52       0.0307
     64  CG        35.0560   17.8040   78.8040 C.3    52  ARG52       0.0489
     65  CD        34.0030   17.3410   79.7920 C.3    52  ARG52       0.2205
     66  NE        33.1740   18.4720   80.2200 N.pl3  52  ARG52      -0.0865
     67  CZ        32.0860   18.9210   79.5840 C.cat  52  ARG52       0.5346
     68  NH1       31.6600   18.3500   78.4670 N.pl3  52  ARG52       0.1354
     69  NH2       31.4200   19.9600   80.0760 N.pl3  52  ARG52       0.1354
     70  N         39.9610   13.6520   80.0320 N.3    54  ILE54      -0.1245
     71  CA        39.7580   13.1170   81.3780 C.3    54  ILE54       0.1561
     72  C         40.8270   12.0640   81.7590 C.2    54  ILE54       0.2260
     73  O         41.2060   11.2110   80.9500 O.2    54  ILE54      -0.2867
     74  CB        38.3620   12.5090   81.5200 C.3    54  ILE54       0.0252
     75  CG1       37.2900   13.5750   81.2580 C.3    54  ILE54       0.0019
     76  CG2       38.1890   11.9380   82.9050 C.3    54  ILE54       0.0019
     77  CD1       35.9280   13.0300   80.8480 C.3    54  ILE54       0.0001
     78  N         40.5570    9.1020   78.9250 N.3    65  MET65      -0.1245
     79  CA        39.5940    9.2220   77.8250 C.3    65  MET65       0.1570
     80  C         39.3950   10.6830   77.3970 C.2    65  MET65       0.2261
     81  O         39.3920   11.5980   78.2270 O.2    65  MET65      -0.2867
     82  CB        38.2600    8.5750   78.1810 C.3    65  MET65       0.0387
     83  CG        37.4520    9.2940   79.2210 C.3    65  MET65       0.0595
     84  SD        36.0410    8.2630   79.7290 S.3    65  MET65      -0.1393
     85  CE        36.6280    7.6400   81.3110 C.3    65  MET65       0.0692
     86  N         36.7310   13.0790   75.3080 N.3    67  VAL67      -0.1245
     87  CA        35.3300   13.0450   74.8990 C.3    67  VAL67       0.1561
     88  C         34.9290   14.3660   74.2520 C.2    67  VAL67       0.2260
     89  O         35.1240   15.4390   74.8310 O.2    67  VAL67      -0.2867
     90  CB        34.3970   12.7470   76.1020 C.3    67  VAL67       0.0252
     91  CG1       32.9290   12.6790   75.6700 C.3    67  VAL67       0.0019
     92  CG2       34.8090   11.4600   76.7550 C.3    67  VAL67       0.0019
     93  N         21.6510   14.7980   74.7530 N.3    79  TYR79      -0.1241
     94  CA        23.0900   15.0620   74.7260 C.3    79  TYR79       0.1605
     95  C         23.7590   13.9860   73.8720 C.2    79  TYR79       0.2264
     96  O         23.5250   12.7890   74.0840 O.2    79  TYR79      -0.2867
     97  CB        23.6640   15.0520   76.1390 C.3    79  TYR79       0.0534
     98  CG        25.1240   15.4510   76.2690 C.ar   79  TYR79      -0.0201
     99  CD1       25.5050   16.7820   76.2270 C.ar   79  TYR79      -0.0009
    100  CD2       26.1160   14.4950   76.4950 C.ar   79  TYR79      -0.0009
    101  CE1       26.8480   17.1660   76.3730 C.ar   79  TYR79       0.0417
    102  CE2       27.4550   14.8540   76.6490 C.ar   79  TYR79       0.0417
    103  CZ        27.8230   16.2010   76.5840 C.ar   79  TYR79       0.1957
    104  OH        29.1490   16.5940   76.7150 O.3    79  TYR79      -0.2866
    105  N         27.5670   12.7620   72.3500 N.3    81  SER81      -0.1217
    106  CA        29.0070   12.9140   72.5230 C.3    81  SER81       0.1889
    107  C         29.7550   11.6770   72.0380 C.2    81  SER81       0.2288
    108  O         29.1880   10.5810   72.0080 O.2    81  SER81      -0.2866
    109  CB        29.3310   13.1580   73.9910 C.3    81  SER81       0.2089
    110  OG        28.8800   12.0700   74.7590 O.3    81  SER81      -0.2183
    111  N         33.5110    9.4320   72.2220 N.3    83  VAL83      -0.1245
    112  CA        34.8340    9.1740   72.7870 C.3    83  VAL83       0.1561
    113  C         35.8210    8.9860   71.6340 C.2    83  VAL83       0.2260
    114  O         35.6510    8.0870   70.8080 O.2    83  VAL83      -0.2867
    115  CB        34.8350    7.9230   73.6970 C.3    83  VAL83       0.0252
    116  CG1       36.1930    7.7490   74.3490 C.3    83  VAL83       0.0019
    117  CG2       33.7260    8.0140   74.7410 C.3    83  VAL83       0.0019
    118  N         40.7100    3.8030   76.9250 N.3    88  ILE88      -0.1245
    119  CA        39.3260    3.3240   76.8370 C.3    88  ILE88       0.1561
    120  C         39.0120    2.6940   75.4750 C.2    88  ILE88       0.2260
    121  O         38.1770    1.8130   75.3740 O.2    88  ILE88      -0.2867
    122  CB        38.3200    4.4740   77.1010 C.3    88  ILE88       0.0252
    123  CG1       36.8830    3.9510   77.1430 C.3    88  ILE88       0.0019
    124  CG2       38.4310    5.5520   76.0470 C.3    88  ILE88       0.0019
    125  CD1       35.8930    4.9920   77.7100 C.3    88  ILE88       0.0001
    126  N         28.0110    8.2060   71.2190 N.3    98  THR98      -0.1218
    127  CA        26.9150    8.0290   72.1930 C.3    98  THR98       0.1862
    128  C         25.8210    9.0710   72.0380 C.2    98  THR98       0.2287
    129  O         26.0910   10.2080   71.6410 O.2    98  THR98      -0.2866
    130  CB        27.4050    8.0980   73.6520 C.3    98  THR98       0.1770
    131  OG1       27.6730    9.4630   73.9930 O.3    98  THR98      -0.2211
    132  CG2       28.6640    7.2680   73.8540 C.3    98  THR98       0.0375
    133  N         22.3320   10.3630   74.2100 N.3   100  MET100     -0.1245
    134  CA        21.5860   10.2670   75.4490 C.3   100  MET100      0.1570
    135  C         20.3290   11.1390   75.4480 C.2   100  MET100      0.2261
    136  O         20.3340   12.2560   74.9250 O.2   100  MET100     -0.2867
    137  CB        22.4810   10.7030   76.5910 C.3   100  MET100      0.0387
    138  CG        21.9330   10.3710   77.9520 C.3   100  MET100      0.0595
    139  SD        23.0160   11.0280   79.2160 S.3   100  MET100     -0.1393
    140  CE        22.5890   12.7670   79.0960 C.3   100  MET100      0.0692
    141  N         16.9350    7.7300   82.0470 N.3   112  THR112     -0.1218
    142  CA        18.0030    8.2810   81.2400 C.3   112  THR112      0.1862
    143  C         18.4890    7.1790   80.3230 C.2   112  THR112      0.2287
    144  O         19.0670    6.1790   80.7970 O.2   112  THR112     -0.2866
    145  CB        19.1580    8.7730   82.1070 C.3   112  THR112      0.1770
    146  OG1       18.7070    9.8680   82.9200 O.3   112  THR112     -0.2211
    147  CG2       20.3200    9.1980   81.2630 C.3   112  THR112      0.0375
    148  N         20.7740    5.8330   77.1540 N.3   114  THR114     -0.1218
    149  CA        21.9470    6.0840   76.3570 C.3   114  THR114      0.1862
    150  C         22.2130    4.9480   75.3790 C.2   114  THR114      0.2287
    151  O         22.2740    3.7880   75.7750 O.2   114  THR114     -0.2866
    152  CB        23.1810    6.1970   77.2340 C.3   114  THR114      0.1770
    153  OG1       22.9400    7.1510   78.2620 O.3   114  THR114     -0.2211
    154  CG2       24.3840    6.6380   76.4150 C.3   114  THR114      0.0375
    155  N         29.4370    4.0470   84.6760 N.3   138  ASN138     -0.1240
    156  CA        28.5570    5.1580   84.3280 C.3   138  ASN138      0.1653
    157  C         27.3660    5.2540   85.2790 C.2   138  ASN138      0.2266
    158  O         26.9160    6.3600   85.6160 O.2   138  ASN138     -0.2867
    159  CB        28.0570    5.0110   82.8830 C.3   138  ASN138      0.1155
    160  CG        29.0970    5.4390   81.8550 C.2   138  ASN138      0.2627
    161  OD1       29.7680    6.4420   82.0310 O.2   138  ASN138     -0.2716
    162  ND2       29.2310    4.6700   80.7780 N.am  138  ASN138     -0.0877
    163  N         28.6100    6.7010   88.6370 N.3   141  LEU141     -0.1231
    164  CA        28.7540    8.1450   88.5710 C.3   141  LEU141      0.1693
    165  C         27.3770    8.8180   88.5370 C.2   141  LEU141      0.2592
    166  O         27.1410    9.7940   89.2420 O.2   141  LEU141     -0.2718
    167  CB        29.6120    8.5310   87.3590 C.3   141  LEU141      0.0284
    168  CG        29.9820   10.0070   87.2140 C.3   141  LEU141      0.0019
    169  CD1       30.7070   10.5340   88.4620 C.3   141  LEU141      0.0001
    170  CD2       30.8220   10.1930   85.9510 C.3   141  LEU141      0.0001
    171  N         26.4660    8.2790   87.7380 N.am  142  PHE142     -0.1976
    172  CA        25.0930    8.7840   87.6870 C.3   142  PHE142      0.1639
    173  C         24.4920    8.8760   89.0840 C.2   142  PHE142      0.2290
    174  O         23.9440    9.8920   89.4760 O.2   142  PHE142     -0.2864
    175  CB        24.2250    7.8690   86.8200 C.3   142  PHE142      0.0560
    176  CG        22.8050    8.3370   86.6630 C.ar  142  PHE142     -0.0200
    177  CD1       22.4010    8.9940   85.5220 C.ar  142  PHE142     -0.0042
    178  CD2       21.8740    8.1020   87.6480 C.ar  142  PHE142     -0.0042
    179  CE1       21.1100    9.4150   85.3650 C.ar  142  PHE142     -0.0003
    180  CE2       20.5760    8.5370   87.5100 C.ar  142  PHE142     -0.0003
    181  CZ        20.1970    9.1940   86.3610 C.ar  142  PHE142     -0.0000
    182  N         25.8570   11.4420   91.4500 N.3   145  ILE145     -0.1245
    183  CA        25.2720   12.7340   91.0810 C.3   145  ILE145      0.1561
    184  C         23.8210   12.8600   91.5450 C.2   145  ILE145      0.2260
    185  O         23.4320   13.8780   92.1010 O.2   145  ILE145     -0.2867
    186  CB        25.3810   13.0020   89.5570 C.3   145  ILE145      0.0252
    187  CG1       26.8430   13.2650   89.1700 C.3   145  ILE145      0.0019
    188  CG2       24.5490   14.2180   89.1610 C.3   145  ILE145      0.0019
    189  CD1       27.1260   13.1340   87.6940 C.3   145  ILE145      0.0001
@<TRIPOS>BOND
     1   114   113    2
     2   126   127    1
     3   113   112    1
     4   129   128    2
     5   108   107    2
     6   107   106    1
     7   128   127    1
     8   127   130    1
     9   111   112    1
    10   105   106    1
    11   106   109    1
    12   112   115    1
    13   130   132    1
    14   130   131    1
    15   115   116    1
    16   115   117    1
    17    95    96    2
    18    95    94    1
    19   109   110    1
    20   133   134    1
    21    88    89    2
    22    88    87    1
    23    94    93    1
    24    94    97    1
    25    87    86    1
    26    87    90    1
    27   136   135    2
    28   121   120    2
    29   150   151    2
    30   150   149    1
    31   135   134    1
    32   134   137    1
    33   120   119    1
    34    91    90    1
    35   124   122    1
    36    90    92    1
    37    97    98    1
    38    59    60    1
    39    99    98   ar
    40    99   101   ar
    41    98   100   ar
    42   149   148    1
    43   149   152    1
    44   101   103   ar
    45   154   152    1
    46   100   102   ar
    47   103   102   ar
    48   103   104    1
    49   137   138    1
    50   119   118    1
    51   119   122    1
    52    62    61    2
    53   122   123    1
    54   123   125    1
    55   152   153    1
    56    80    79    1
    57    80    81    2
    58     1     2    1
    59    60    61    1
    60    60    63    1
    61    79    82    1
    62    79    78    1
    63   138   139    1
    64    82    83    1
    65    68    67    1
    66    63    64    1
    67    64    65    1
    68     4     3    2
    69     2     3    1
    70     2     5    1
    71   140   139    1
    72    30    29    1
    73    83    84    1
    74     5     6    1
    75    67    69    1
    76    67    66    2
    77    84    85    1
    78    65    66    1
    79    31    29    1
    80    70    71    1
    81   143   144    2
    82   143   142    1
    83    29    26    1
    84   162   160   am
    85    77    75    1
    86    73    72    2
    87     6     8    1
    88     6     7    1
    89   142   141    1
    90   142   145    1
    91    75    74    1
    92   147   145    1
    93    71    74    1
    94    71    72    1
    95    26    27    1
    96    26    25    1
    97    74    76    1
    98    28    27    2
    99   160   161    2
   100   160   159    1
   101   145   146    1
   102    20    19    2
   103    25    19   am
   104     9    10    1
   105   159   156    1
   106    37    36    1
   107    19    18    1
   108    24    22    1
   109    22    21    1
   110    58    57    1
   111    36    38    1
   112    36    33    1
   113    14    16    1
   114    14    13    1
   115    21    18    1
   116    21    23    1
   117    10    13    1
   118    10    11    1
   119   156   155    1
   120   156   157    1
   121    12    11    2
   122    18    17    1
   123    13    15    1
   124    57    56   ar
   125    57    55   ar
   126    32    33    1
   127    56    54   ar
   128   157   158    2
   129    33    34    1
   130   179   177   ar
   131   179   181   ar
   132   177   176   ar
   133    55    53   ar
   134    34    35    2
   135   170   168    1
   136    54    52   ar
   137    46    44    1
   138   181   180   ar
   139    53    52   ar
   140   176   175    1
   141   176   178   ar
   142    52    51    1
   143   175   172    1
   144   168   167    1
   145   168   169    1
   146   167   164    1
   147   180   178   ar
   148    44    43    1
   149   172   171    1
   150   172   173    1
   151   189   187    1
   152    51    48    1
   153   171   165   am
   154    48    49    1
   155    48    47    1
   156    43    45    1
   157    43    40    1
   158   165   164    1
   159   165   166    2
   160   164   163    1
   161    49    50    2
   162   173   174    2
   163   188   186    1
   164   187   186    1
   165    39    40    1
   166   186   183    1
   167    40    41    1
   168    41    42    2
   169   183   182    1
   170   183   184    1
   171   184   185    2
