@<TRIPOS>MOLECULE
tmp/2wqlC01.pdb
 107 96 0 0 0
SMALL
GASTEIGER

@<TRIPOS>ATOM
      1  N         40.6400    1.7480   83.2120 N.3    62  ILE62      -0.1245
      2  CA        40.7270    2.8140   82.2110 C.3    62  ILE62       0.1561
      3  C         41.3980    4.0370   82.8530 C.2    62  ILE62       0.2260
      4  O         40.8850    4.5730   83.8340 O.2    62  ILE62      -0.2867
      5  CB        39.3440    3.2600   81.7540 C.3    62  ILE62       0.0252
      6  CG1       38.5980    2.1100   81.0660 C.3    62  ILE62       0.0019
      7  CG2       39.4600    4.4660   80.8190 C.3    62  ILE62       0.0019
      8  CD1       37.1570    2.4900   80.6340 C.3    62  ILE62       0.0001
      9  N         40.5570    9.1020   78.9250 N.3    65  MET65      -0.1245
     10  CA        39.5940    9.2220   77.8250 C.3    65  MET65       0.1570
     11  C         39.3950   10.6830   77.3970 C.2    65  MET65       0.2261
     12  O         39.3920   11.5980   78.2270 O.2    65  MET65      -0.2867
     13  CB        38.2600    8.5750   78.1810 C.3    65  MET65       0.0387
     14  CG        37.4520    9.2940   79.2210 C.3    65  MET65       0.0595
     15  SD        36.0410    8.2630   79.7290 S.3    65  MET65      -0.1393
     16  CE        36.6280    7.6400   81.3110 C.3    65  MET65       0.0692
     17  N         33.5110    9.4320   72.2220 N.3    83  VAL83      -0.1245
     18  CA        34.8340    9.1740   72.7870 C.3    83  VAL83       0.1561
     19  C         35.8210    8.9860   71.6340 C.2    83  VAL83       0.2260
     20  O         35.6510    8.0870   70.8080 O.2    83  VAL83      -0.2867
     21  CB        34.8350    7.9230   73.6970 C.3    83  VAL83       0.0252
     22  CG1       36.1930    7.7490   74.3490 C.3    83  VAL83       0.0019
     23  CG2       33.7260    8.0140   74.7410 C.3    83  VAL83       0.0019
     24  N         40.7100    3.8030   76.9250 N.3    88  ILE88      -0.1245
     25  CA        39.3260    3.3240   76.8370 C.3    88  ILE88       0.1561
     26  C         39.0120    2.6940   75.4750 C.2    88  ILE88       0.2260
     27  O         38.1770    1.8130   75.3740 O.2    88  ILE88      -0.2867
     28  CB        38.3200    4.4740   77.1010 C.3    88  ILE88       0.0252
     29  CG1       36.8830    3.9510   77.1430 C.3    88  ILE88       0.0019
     30  CG2       38.4310    5.5520   76.0470 C.3    88  ILE88       0.0019
     31  CD1       35.8930    4.9920   77.7100 C.3    88  ILE88       0.0001
     32  N         33.7340    5.7910   70.0640 N.3    96  ILE96      -0.1245
     33  CA        32.4640    5.3700   70.6890 C.3    96  ILE96       0.1561
     34  C         31.4570    6.5270   70.6130 C.2    96  ILE96       0.2260
     35  O         31.5530    7.5150   71.3500 O.2    96  ILE96      -0.2867
     36  CB        32.6340    4.9350   72.1680 C.3    96  ILE96       0.0252
     37  CG1       33.7420    3.8850   72.3100 C.3    96  ILE96       0.0019
     38  CG2       31.3370    4.3930   72.7140 C.3    96  ILE96       0.0019
     39  CD1       34.0800    3.5250   73.7380 C.3    96  ILE96       0.0001
     40  N         28.0110    8.2060   71.2190 N.3    98  THR98      -0.1218
     41  CA        26.9150    8.0290   72.1930 C.3    98  THR98       0.1862
     42  C         25.8210    9.0710   72.0380 C.2    98  THR98       0.2287
     43  O         26.0910   10.2080   71.6410 O.2    98  THR98      -0.2866
     44  CB        27.4050    8.0980   73.6520 C.3    98  THR98       0.1770
     45  OG1       27.6730    9.4630   73.9930 O.3    98  THR98      -0.2211
     46  CG2       28.6640    7.2680   73.8540 C.3    98  THR98       0.0375
     47  N         20.7740    5.8330   77.1540 N.3   114  THR114     -0.1218
     48  CA        21.9470    6.0840   76.3570 C.3   114  THR114      0.1862
     49  C         22.2130    4.9480   75.3790 C.2   114  THR114      0.2287
     50  O         22.2740    3.7880   75.7750 O.2   114  THR114     -0.2866
     51  CB        23.1810    6.1970   77.2340 C.3   114  THR114      0.1770
     52  OG1       22.9400    7.1510   78.2620 O.3   114  THR114     -0.2211
     53  CG2       24.3840    6.6380   76.4150 C.3   114  THR114      0.0375
     54  N         25.0660    3.6090   72.7480 N.3   116  ALA116     -0.1245
     55  CA        26.4660    3.6930   72.3700 C.3   116  ALA116      0.1562
     56  C         26.6880    2.8920   71.0940 C.2   116  ALA116      0.2260
     57  O         26.1990    1.7790   70.9690 O.2   116  ALA116     -0.2867
     58  CB        27.3300    3.1530   73.4710 C.3   116  ALA116      0.0290
     59  N         29.7780    1.5070   68.6650 N.3   118  PHE118     -0.1241
     60  CA        31.2160    1.2670   68.6400 C.3   118  PHE118      0.1605
     61  C         31.7110    1.1090   67.2110 C.2   118  PHE118      0.2264
     62  O         31.3510    0.1560   66.5260 O.2   118  PHE118     -0.2867
     63  CB        31.5700    0.0030   69.4230 C.3   118  PHE118      0.0534
     64  CG        31.0310   -0.0140   70.8260 C.ar  118  PHE118     -0.0203
     65  CD1       29.8320   -0.6510   71.1120 C.ar  118  PHE118     -0.0042
     66  CD2       31.7220    0.5930   71.8580 C.ar  118  PHE118     -0.0042
     67  CE1       29.3370   -0.6800   72.3950 C.ar  118  PHE118     -0.0003
     68  CE2       31.2290    0.5720   73.1480 C.ar  118  PHE118     -0.0003
     69  CZ        30.0380   -0.0690   73.4180 C.ar  118  PHE118     -0.0000
     70  N         31.7680   -0.5210   81.5550 N.3   134  ALA134     -0.1231
     71  CA        31.3420    0.8490   81.2720 C.3   134  ALA134      0.1694
     72  C         29.9710    1.1470   81.8970 C.2   134  ALA134      0.2592
     73  O         29.7920    2.1720   82.5290 O.2   134  ALA134     -0.2718
     74  CB        31.3040    1.0980   79.7840 C.3   134  ALA134      0.0304
     75  N         29.0200    0.2350   81.7530 N.am  135  ASP135     -0.1974
     76  CA        27.6870    0.4090   82.3450 C.3   135  ASP135      0.1709
     77  C         27.7130    0.5710   83.8760 C.2   135  ASP135      0.2293
     78  O         26.9990    1.4040   84.4390 O.2   135  ASP135     -0.2864
     79  CB        26.7990   -0.7900   81.9950 C.3   135  ASP135      0.1436
     80  CG        26.3700   -0.8060   80.5250 C.2   135  ASP135      0.3671
     81  OD1       26.6310    0.1850   79.7780 O.co2 135  ASP135     -0.2456
     82  OD2       25.7570   -1.8330   80.1240 O.co2 135  ASP135     -0.2456
     83  N         30.2350    1.5990   85.6840 N.3   137  GLN137     -0.1231
     84  CA        30.9620    2.7870   86.0820 C.3   137  GLN137      0.1698
     85  C         30.1510    4.0530   85.7850 C.2   137  GLN137      0.2592
     86  O         30.1450    4.9990   86.5590 O.2   137  GLN137     -0.2718
     87  CB        32.3190    2.7910   85.3870 C.3   137  GLN137      0.0381
     88  CG        33.2400    3.9030   85.8150 C.3   137  GLN137      0.0905
     89  CD        34.7150    3.4820   85.8200 C.2   137  GLN137      0.2608
     90  OE1       35.1860    2.8270   86.7570 O.2   137  GLN137     -0.2717
     91  NE2       35.4470    3.8860   84.7820 N.am  137  GLN137     -0.0878
     92  N         29.4370    4.0470   84.6760 N.am  138  ASN138     -0.1974
     93  CA        28.5570    5.1580   84.3280 C.3   138  ASN138      0.1688
     94  C         27.3660    5.2540   85.2790 C.2   138  ASN138      0.2292
     95  O         26.9160    6.3600   85.6160 O.2   138  ASN138     -0.2864
     96  CB        28.0570    5.0110   82.8830 C.3   138  ASN138      0.1181
     97  CG        29.0970    5.4390   81.8550 C.2   138  ASN138      0.2629
     98  OD1       29.7680    6.4420   82.0310 O.2   138  ASN138     -0.2716
     99  ND2       29.2310    4.6700   80.7780 N.am  138  ASN138     -0.0877
    100  N         28.6100    6.7010   88.6370 N.3   141  LEU141     -0.1245
    101  CA        28.7540    8.1450   88.5710 C.3   141  LEU141      0.1561
    102  C         27.3770    8.8180   88.5370 C.2   141  LEU141      0.2260
    103  O         27.1410    9.7940   89.2420 O.2   141  LEU141     -0.2867
    104  CB        29.6120    8.5310   87.3590 C.3   141  LEU141      0.0270
    105  CG        29.9820   10.0070   87.2140 C.3   141  LEU141      0.0019
    106  CD1       30.7070   10.5340   88.4620 C.3   141  LEU141      0.0001
    107  CD2       30.8220   10.1930   85.9510 C.3   141  LEU141      0.0001
@<TRIPOS>BOND
     1    62    61    2
     2    61    60    1
     3    60    59    1
     4    60    63    1
     5    63    64    1
     6    32    33    1
     7    34    33    1
     8    34    35    2
     9    33    36    1
    10    20    19    2
    11    64    65   ar
    12    64    66   ar
    13    57    56    2
    14    56    55    1
    15    65    67   ar
    16    40    41    1
    17    19    18    1
    18    43    42    2
    19    66    68   ar
    20    42    41    1
    21    36    37    1
    22    36    38    1
    23    41    44    1
    24    17    18    1
    25    37    39    1
    26    55    54    1
    27    55    58    1
    28    67    69   ar
    29    18    21    1
    30    68    69   ar
    31    44    46    1
    32    44    45    1
    33    21    22    1
    34    21    23    1
    35    27    26    2
    36    49    50    2
    37    49    48    1
    38    26    25    1
    39    30    28    1
    40    48    47    1
    41    48    51    1
    42    53    51    1
    43    25    24    1
    44    25    28    1
    45    28    29    1
    46    29    31    1
    47    51    52    1
    48    11    10    1
    49    11    12    2
    50    10    13    1
    51    10     9    1
    52    13    14    1
    53    14    15    1
    54    15    16    1
    55    81    80   ar
    56    74    71    1
    57    82    80   ar
    58    80    79    1
    59     8     6    1
    60    99    97   am
    61     7     5    1
    62     6     5    1
    63    71    70    1
    64    71    72    1
    65    75    72   am
    66    75    76    1
    67     5     2    1
    68    97    98    2
    69    97    96    1
    70    72    73    2
    71    79    76    1
    72     2     3    1
    73     2     1    1
    74    76    77    1
    75     3     4    2
    76    96    93    1
    77    77    78    2
    78    93    92    1
    79    93    94    1
    80    92    85   am
    81    91    89   am
    82    94    95    2
    83    87    88    1
    84    87    84    1
    85    83    84    1
    86    85    84    1
    87    85    86    2
    88    88    89    1
    89    89    90    2
    90   107   105    1
    91   105   104    1
    92   105   106    1
    93   104   101    1
    94   102   101    1
    95   102   103    2
    96   101   100    1
