@<TRIPOS>MOLECULE
tmp/2wqnA00.pdb
 147 140 0 0 0
SMALL
GASTEIGER

@<TRIPOS>ATOM
      1  N        -17.1560  -38.8180  -44.6260 N.3    20  ILE20      -0.1231
      2  CA       -17.6420  -37.4590  -44.4190 C.3    20  ILE20       0.1692
      3  C        -17.2460  -36.5200  -45.5540 C.2    20  ILE20       0.2593
      4  O        -17.7380  -35.3940  -45.6360 O.2    20  ILE20      -0.2718
      5  CB       -17.1680  -36.8630  -43.0770 C.3    20  ILE20       0.0266
      6  CG1      -15.6460  -36.7430  -43.0470 C.3    20  ILE20       0.0019
      7  CG2      -17.6870  -37.6890  -41.9010 C.3    20  ILE20       0.0020
      8  CD1      -15.1230  -36.0210  -41.8310 C.3    20  ILE20       0.0001
      9  N        -16.3690  -36.9860  -46.4360 N.am   21  GLY21      -0.1942
     10  CA       -15.9410  -36.1710  -47.5540 C.3    21  GLY21       0.2014
     11  C        -15.4230  -36.9660  -48.7350 C.2    21  GLY21       0.2639
     12  O        -14.9160  -38.0800  -48.5840 O.2    21  GLY21      -0.2714
     13  N        -15.5710  -36.3910  -49.9230 N.am   22  ARG22      -0.1963
     14  CA       -14.9520  -36.9380  -51.1230 C.3    22  ARG22       0.1729
     15  C        -14.1210  -35.8420  -51.7720 C.2    22  ARG22       0.2617
     16  O        -14.6310  -34.7590  -52.0720 O.2    22  ARG22      -0.2715
     17  CB       -16.0080  -37.4480  -52.1030 C.3    22  ARG22       0.0348
     18  CG       -15.4260  -38.0260  -53.3930 C.3    22  ARG22       0.0492
     19  CD       -16.4980  -38.7180  -54.2410 C.3    22  ARG22       0.2205
     20  NE       -17.3620  -37.7730  -54.9450 N.pl3  22  ARG22      -0.0865
     21  CZ       -16.9470  -36.9430  -55.9030 C.cat  22  ARG22       0.5346
     22  NH1      -15.6650  -36.9150  -56.2860 N.pl3  22  ARG22       0.1354
     23  NH2      -17.8300  -36.1620  -56.5170 N.pl3  22  ARG22       0.1354
     24  N        -12.8370  -36.1140  -51.9710 N.am   23  GLY23      -0.1940
     25  CA       -11.9550  -35.1370  -52.5780 C.3    23  GLY23       0.2014
     26  C        -11.6270  -35.5090  -54.0090 C.2    23  GLY23       0.2639
     27  O        -12.0400  -36.5670  -54.4950 O.2    23  GLY23      -0.2714
     28  N        -10.8920  -34.6360  -54.6910 N.am   24  GLN24      -0.1963
     29  CA       -10.4400  -34.9330  -56.0410 C.3    24  GLN24       0.1733
     30  C         -9.3600  -36.0100  -55.9940 C.2    24  GLN24       0.2616
     31  O         -9.2590  -36.8450  -56.8920 O.2    24  GLN24      -0.2715
     32  CB        -9.9060  -33.6710  -56.7240 C.3    24  GLN24       0.0408
     33  CG       -10.9250  -32.5620  -56.9750 C.3    24  GLN24       0.0908
     34  CD       -12.0870  -33.0280  -57.8140 C.2    24  GLN24       0.2608
     35  OE1      -11.8600  -33.5970  -58.9000 O.2    24  GLN24      -0.2717
     36  NE2      -13.2790  -32.9290  -57.3150 N.am   24  GLN24      -0.0878
     37  N         -8.5620  -35.9930  -54.9320 N.am   25  PHE25      -0.1960
     38  CA        -7.4510  -36.9280  -54.8080 C.3    25  PHE25       0.1771
     39  C         -7.6410  -37.9280  -53.6700 C.2    25  PHE25       0.2620
     40  O         -6.9030  -38.9100  -53.5760 O.2    25  PHE25      -0.2715
     41  CB        -6.1320  -36.1700  -54.6210 C.3    25  PHE25       0.0574
     42  CG        -5.6680  -35.3280  -55.8230 C.ar   25  PHE25      -0.0200
     43  CD1       -6.1160  -35.6320  -57.0900 C.ar   25  PHE25      -0.0042
     44  CD2       -4.7540  -34.3010  -55.6000 C.ar   25  PHE25      -0.0042
     45  CE1       -5.6290  -34.8790  -58.1390 C.ar   25  PHE25      -0.0003
     46  CE2       -4.2760  -33.5610  -56.6550 C.ar   25  PHE25      -0.0003
     47  CZ        -4.7270  -33.8680  -57.9270 C.ar   25  PHE25      -0.0000
     48  N         -8.6320  -37.6870  -52.8150 N.am   26  SER26      -0.1950
     49  CA        -8.7920  -38.4850  -51.6030 C.3    26  SER26       0.1924
     50  C        -10.2470  -38.7640  -51.2440 C.2    26  SER26       0.2314
     51  O        -11.1700  -38.1730  -51.8090 O.2    26  SER26      -0.2863
     52  CB        -8.1330  -37.7730  -50.4250 C.3    26  SER26       0.2116
     53  OG        -8.8310  -36.5790  -50.1230 O.3    26  SER26      -0.2180
     54  N        -12.4230  -39.0010  -47.5220 N.3    28  VAL28      -0.1245
     55  CA       -12.2330  -38.6170  -46.1200 C.3    28  VAL28       0.1561
     56  C        -13.2590  -39.2200  -45.1570 C.2    28  VAL28       0.2260
     57  O        -14.4660  -39.1260  -45.3740 O.2    28  VAL28      -0.2867
     58  CB       -12.2270  -37.0950  -45.9560 C.3    28  VAL28       0.0252
     59  CG1      -11.8180  -36.7230  -44.5460 C.3    28  VAL28       0.0019
     60  CG2      -11.2860  -36.4620  -46.9660 C.3    28  VAL28       0.0019
     61  N        -10.0820  -37.2690  -38.3760 N.3    41  ALA41      -0.1245
     62  CA       -10.3710  -37.4110  -39.7940 C.3    41  ALA41       0.1562
     63  C         -9.2940  -38.2960  -40.4130 C.2    41  ALA41       0.2260
     64  O         -8.1010  -38.1260  -40.1470 O.2    41  ALA41      -0.2867
     65  CB       -10.4250  -36.0500  -40.4860 C.3    41  ALA41       0.0290
     66  N         -7.8700  -39.5520  -44.0660 N.3    43  LYS43      -0.1245
     67  CA        -7.8250  -39.4540  -45.5240 C.3    43  LYS43       0.1561
     68  C         -7.1610  -40.6890  -46.1190 C.2    43  LYS43       0.2260
     69  O         -6.1460  -41.1560  -45.6030 O.2    43  LYS43      -0.2867
     70  CB        -7.0130  -38.2360  -45.9490 C.3    43  LYS43       0.0271
     71  CG        -7.7580  -36.9290  -45.9260 C.3    43  LYS43       0.0035
     72  CD        -6.8390  -35.8220  -46.4090 C.3    43  LYS43       0.0206
     73  CE        -7.6100  -34.6770  -47.0230 C.3    43  LYS43       0.1093
     74  NZ        -6.6950  -33.8100  -47.8110 N.3    43  LYS43      -0.1314
     75  N         -4.6830  -27.2970  -37.7870 N.3    75  ILE75      -0.1245
     76  CA        -5.1220  -28.6970  -37.7990 C.3    75  ILE75       0.1561
     77  C         -3.9150  -29.6300  -37.5640 C.2    75  ILE75       0.2260
     78  O         -2.8990  -29.5400  -38.2440 O.2    75  ILE75      -0.2867
     79  CB        -5.8450  -29.0620  -39.1190 C.3    75  ILE75       0.0252
     80  CG1       -7.2840  -28.5210  -39.1210 C.3    75  ILE75       0.0019
     81  CG2       -5.8400  -30.5660  -39.3520 C.3    75  ILE75       0.0019
     82  CD1       -8.1590  -29.1100  -38.0440 C.3    75  ILE75       0.0001
     83  N         -5.7570  -36.9120  -39.2400 N.3    91  LEU91      -0.1231
     84  CA        -5.7980  -35.4870  -38.9540 C.3    91  LEU91       0.1693
     85  C         -6.7410  -35.2100  -37.8080 C.2    91  LEU91       0.2592
     86  O         -7.6560  -35.9830  -37.5530 O.2    91  LEU91      -0.2718
     87  CB        -6.3410  -34.7250  -40.1540 C.3    91  LEU91       0.0284
     88  CG        -5.6290  -34.7780  -41.4930 C.3    91  LEU91       0.0019
     89  CD1       -6.6230  -34.4450  -42.5810 C.3    91  LEU91       0.0001
     90  CD2       -4.4890  -33.7850  -41.4970 C.3    91  LEU91       0.0001
     91  N         -6.5240  -34.0880  -37.1360 N.am   92  GLU92      -0.1966
     92  CA        -7.4910  -33.5640  -36.1870 C.3    92  GLU92       0.1733
     93  C         -8.8360  -33.4030  -36.8870 C.2    92  GLU92       0.2616
     94  O         -8.9150  -32.8300  -37.9730 O.2    92  GLU92      -0.2715
     95  CB        -7.0230  -32.2120  -35.6650 C.3    92  GLU92       0.0429
     96  CG        -7.7420  -31.7100  -34.4370 C.3    92  GLU92       0.1163
     97  CD        -7.1900  -30.3720  -33.9860 C.2    92  GLU92       0.3649
     98  OE1       -7.8190  -29.7370  -33.1130 O.co2  92  GLU92      -0.2457
     99  OE2       -6.1260  -29.9550  -34.5170 O.co2  92  GLU92      -0.2457
    100  N         -9.8890  -33.9320  -36.2780 N.am   93  LEU93      -0.1963
    101  CA       -11.2350  -33.7560  -36.8190 C.3    93  LEU93       0.1728
    102  C        -11.6960  -32.3200  -36.5760 C.2    93  LEU93       0.2616
    103  O        -11.6610  -31.8240  -35.4520 O.2    93  LEU93      -0.2715
    104  CB       -12.2260  -34.7730  -36.2110 C.3    93  LEU93       0.0311
    105  CG       -13.6340  -34.8530  -36.8260 C.3    93  LEU93       0.0022
    106  CD1      -13.5940  -35.3950  -38.2530 C.3    93  LEU93       0.0001
    107  CD2      -14.5810  -35.7030  -35.9670 C.3    93  LEU93       0.0001
    108  N        -12.0970  -31.6550  -37.6530 N.am   94  ALA94      -0.1963
    109  CA       -12.6660  -30.3100  -37.5940 C.3    94  ALA94       0.1728
    110  C        -13.9960  -30.4390  -38.2770 C.2    94  ALA94       0.2616
    111  O        -14.0680  -30.5030  -39.5060 O.2    94  ALA94      -0.2715
    112  CB       -11.7900  -29.3130  -38.3340 C.3    94  ALA94       0.0334
    113  N        -15.0540  -30.4720  -37.4740 N.am   95  ASP95      -0.1971
    114  CA       -16.3200  -31.0410  -37.9140 C.3    95  ASP95       0.1709
    115  C        -17.5160  -30.0910  -37.9500 C.2    95  ASP95       0.2293
    116  O        -18.5730  -30.4420  -38.4840 O.2    95  ASP95      -0.2864
    117  CB       -16.6640  -32.2060  -36.9930 C.3    95  ASP95       0.1436
    118  CG       -17.1720  -33.3750  -37.7470 C.2    95  ASP95       0.3671
    119  OD1      -17.1820  -33.2780  -38.9900 O.co2  95  ASP95      -0.2456
    120  OD2      -17.5470  -34.3850  -37.1180 O.co2  95  ASP95      -0.2456
    121  N        -10.9900  -23.4100  -46.1070 N.3   146  ASN146     -0.1240
    122  CA        -9.8920  -24.1130  -45.4690 C.3   146  ASN146      0.1653
    123  C         -9.6090  -23.5700  -44.0720 C.2   146  ASN146      0.2266
    124  O         -8.6260  -23.9430  -43.4390 O.2   146  ASN146     -0.2867
    125  CB        -8.6460  -24.0140  -46.3320 C.3   146  ASN146      0.1155
    126  CG        -8.0420  -25.3510  -46.6050 C.2   146  ASN146      0.2627
    127  OD1       -8.4760  -26.3600  -46.0460 O.2   146  ASN146     -0.2716
    128  ND2       -7.0360  -25.3840  -47.4730 N.am  146  ASN146     -0.0877
    129  N        -11.3520  -23.8270  -40.8480 N.3   148  PHE148     -0.1241
    130  CA       -12.3840  -24.4340  -40.0150 C.3   148  PHE148      0.1605
    131  C        -12.5280  -23.6500  -38.7210 C.2   148  PHE148      0.2264
    132  O        -11.5990  -22.9610  -38.2840 O.2   148  PHE148     -0.2867
    133  CB       -12.0550  -25.8970  -39.6790 C.3   148  PHE148      0.0534
    134  CG       -11.6990  -26.7320  -40.8690 C.ar  148  PHE148     -0.0203
    135  CD1      -12.6700  -27.1390  -41.7620 C.ar  148  PHE148     -0.0042
    136  CD2      -10.3960  -27.1300  -41.0810 C.ar  148  PHE148     -0.0042
    137  CE1      -12.3460  -27.9100  -42.8530 C.ar  148  PHE148     -0.0003
    138  CE2      -10.0630  -27.9090  -42.1710 C.ar  148  PHE148     -0.0003
    139  CZ       -11.0400  -28.2980  -43.0590 C.ar  148  PHE148     -0.0000
    140  N         -5.9920  -28.3590  -43.3740 N.3   159  ASP159     -0.1239
    141  CA        -4.8920  -29.0430  -44.0460 C.3   159  ASP159      0.1674
    142  C         -4.5710  -28.5060  -45.4430 C.2   159  ASP159      0.2266
    143  O         -5.4650  -28.2470  -46.2530 O.2   159  ASP159     -0.2867
    144  CB        -5.1630  -30.5500  -44.0970 C.3   159  ASP159      0.1410
    145  CG        -6.6150  -30.8920  -43.8200 C.2   159  ASP159      0.3668
    146  OD1       -7.1010  -30.5670  -42.7160 O.co2 159  ASP159     -0.2456
    147  OD2       -7.2650  -31.5070  -44.6950 O.co2 159  ASP159     -0.2456
@<TRIPOS>BOND
     1    35    34    2
     2    45    47   ar
     3    45    43   ar
     4    47    46   ar
     5    34    36   am
     6    34    33    1
     7    43    42   ar
     8    33    32    1
     9    31    30    2
    10    32    29    1
    11    46    44   ar
    12    23    21    1
    13    22    21    1
    14    29    30    1
    15    29    28    1
    16    30    37   am
    17    21    20    2
    18    42    44   ar
    19    42    41    1
    20    20    19    1
    21    37    38    1
    22    38    41    1
    23    38    39    1
    24    28    26   am
    25    27    26    2
    26    19    18    1
    27    26    25    1
    28    39    40    2
    29    39    48   am
    30    18    17    1
    31    48    49    1
    32    25    24    1
    33    17    14    1
    34    16    15    2
    35    24    15   am
    36    51    50    2
    37    15    14    1
    38    49    50    1
    39    49    52    1
    40    14    13    1
    41    52    53    1
    42    13    11   am
    43    11    12    2
    44    11    10    1
    45    74    73    1
    46    10     9    1
    47    54    55    1
    48   128   126   am
    49    73    72    1
    50    60    58    1
    51   126   125    1
    52   126   127    2
    53     9     3   am
    54    72    71    1
    55   125   122    1
    56   143   142    2
    57    55    58    1
    58    55    56    1
    59    68    69    2
    60    68    67    1
    61   121   122    1
    62    58    59    1
    63    70    71    1
    64    70    67    1
    65     4     3    2
    66     3     2    1
    67    67    66    1
    68   122   123    1
    69   142   141    1
    70    57    56    2
    71   147   145   ar
    72     1     2    1
    73     2     5    1
    74   144   141    1
    75   144   145    1
    76   123   124    2
    77   141   140    1
    78   145   146   ar
    79     5     6    1
    80     5     7    1
    81   139   137   ar
    82   139   138   ar
    83     6     8    1
    84   137   135   ar
    85    89    88    1
    86   138   136   ar
    87   135   134   ar
    88    90    88    1
    89    88    87    1
    90   136   134   ar
    91   134   133    1
    92   129   130    1
    93    65    62    1
    94    63    64    2
    95    63    62    1
    96    87    84    1
    97   130   133    1
    98   130   131    1
    99    62    61    1
   100   111   110    2
   101    81    79    1
   102    83    84    1
   103    80    79    1
   104    80    82    1
   105    79    76    1
   106   119   118   ar
   107    84    85    1
   108   131   132    2
   109   116   115    2
   110   112   109    1
   111   110   109    1
   112   110   113   am
   113   106   105    1
   114    78    77    2
   115    94    93    2
   116   115   114    1
   117   114   113    1
   118   114   117    1
   119    85    86    2
   120    85    91   am
   121    76    75    1
   122    76    77    1
   123   118   120   ar
   124   118   117    1
   125   108   109    1
   126   108   102   am
   127    91    92    1
   128    93   100   am
   129    93    92    1
   130   105   104    1
   131   105   107    1
   132   101   102    1
   133   101   100    1
   134   101   104    1
   135   102   103    2
   136    92    95    1
   137    95    96    1
   138    99    97   ar
   139    96    97    1
   140    97    98   ar
