@<TRIPOS>MOLECULE
tmp/2wqoA00.pdb
 155 147 0 0 0
SMALL
GASTEIGER

@<TRIPOS>ATOM
      1  N         36.8060   -4.8720   19.9830 N.3    10  TYR10      -0.1241
      2  CA        37.0850   -6.2670   19.7160 C.3    10  TYR10       0.1605
      3  C         35.9680   -6.8990   18.9050 C.2    10  TYR10       0.2264
      4  O         34.8820   -6.3580   18.8150 O.2    10  TYR10      -0.2867
      5  CB        37.3140   -7.0630   21.0010 C.3    10  TYR10       0.0534
      6  CG        36.1440   -7.0230   21.9500 C.ar   10  TYR10      -0.0201
      7  CD1       35.0170   -7.7950   21.7280 C.ar   10  TYR10      -0.0009
      8  CD2       36.1710   -6.1900   23.0840 C.ar   10  TYR10      -0.0009
      9  CE1       33.9570   -7.7560   22.5690 C.ar   10  TYR10       0.0417
     10  CE2       35.0980   -6.1480   23.9410 C.ar   10  TYR10       0.0417
     11  CZ        33.9950   -6.9240   23.6810 C.ar   10  TYR10       0.1957
     12  OH        32.9150   -6.8980   24.5310 O.3    10  TYR10      -0.2866
     13  N         33.0610   -9.4310   17.9410 N.3    12  ILE12      -0.1231
     14  CA        32.0410  -10.2130   18.6040 C.3    12  ILE12       0.1692
     15  C         31.9660  -11.6030   17.9450 C.2    12  ILE12       0.2592
     16  O         32.0610  -12.6280   18.6370 O.2    12  ILE12      -0.2718
     17  CB        30.6860   -9.5180   18.5270 C.3    12  ILE12       0.0266
     18  CG1       30.7280   -8.2200   19.3340 C.3    12  ILE12       0.0019
     19  CG2       29.6000  -10.4390   19.0500 C.3    12  ILE12       0.0020
     20  CD1       29.5000   -7.3630   19.1720 C.3    12  ILE12       0.0001
     21  N         31.8180  -11.6540   16.6230 N.am   13  GLY13      -0.1957
     22  CA        31.7860  -12.8970   15.8980 C.3    13  GLY13       0.1869
     23  C         32.1820  -12.7570   14.4520 C.2    13  GLY13       0.2309
     24  O         32.2140  -11.6320   13.8960 O.2    13  GLY13      -0.2863
     25  N         31.2480   -9.2280   12.9850 N.3    17  CYS17      -0.1235
     26  CA        30.6840   -8.2130   13.8550 C.3    17  CYS17       0.1677
     27  C         31.6620   -7.8040   14.9230 C.2    17  CYS17       0.2270
     28  O         32.3080   -8.6230   15.5490 O.2    17  CYS17      -0.2867
     29  CB        29.3610   -8.6670   14.5180 C.3    17  CYS17       0.0956
     30  SG        28.0060   -8.9570   13.3810 S.3    17  CYS17      -0.0801
     31  N         28.0500   -1.2690   17.6960 N.3    30  VAL30      -0.1245
     32  CA        28.6650   -2.3630   16.9680 C.3    30  VAL30       0.1561
     33  C         28.5090   -2.1360   15.4990 C.2    30  VAL30       0.2260
     34  O         27.6770   -1.3310   15.0750 O.2    30  VAL30      -0.2867
     35  CB        28.1740   -3.8050   17.3840 C.3    30  VAL30       0.0252
     36  CG1       27.4510   -3.7860   18.6940 C.3    30  VAL30       0.0019
     37  CG2       27.3890   -4.4700   16.2820 C.3    30  VAL30       0.0019
     38  N         28.5110   -4.4390   11.6280 N.3    32  LYS32      -0.1245
     39  CA        28.6200   -5.6690   10.8520 C.3    32  LYS32       0.1561
     40  C         29.3550   -5.3130    9.5510 C.2    32  LYS32       0.2260
     41  O         29.0300   -4.2860    8.9320 O.2    32  LYS32      -0.2867
     42  CB        27.2100   -6.2130   10.5430 C.3    32  LYS32       0.0271
     43  CG        27.1740   -7.4370    9.6400 C.3    32  LYS32       0.0035
     44  CD        25.8240   -8.1250    9.6890 C.3    32  LYS32       0.0206
     45  CE        24.6900   -7.1600    9.3530 C.3    32  LYS32       0.1093
     46  NZ        23.4290   -7.9120    9.0410 N.3    32  LYS32      -0.1314
     47  N         16.5540   -4.2290   16.8080 N.3    63  VAL63      -0.1245
     48  CA        17.9060   -3.6920   16.7990 C.3    63  VAL63       0.1561
     49  C         17.9410   -2.4160   15.9020 C.2    63  VAL63       0.2260
     50  O         17.5070   -2.4330   14.7730 O.2    63  VAL63      -0.2867
     51  CB        18.9350   -4.7290   16.3540 C.3    63  VAL63       0.0252
     52  CG1       20.3170   -4.0980   16.2190 C.3    63  VAL63       0.0019
     53  CG2       18.9820   -5.9140   17.3650 C.3    63  VAL63       0.0019
     54  N         19.4710    0.1950   13.5320 N.3    65  TYR65      -0.1241
     55  CA        20.5830    0.4040   12.5840 C.3    65  TYR65       0.1605
     56  C         20.7690    1.8900   12.2810 C.2    65  TYR65       0.2264
     57  O         19.9500    2.5170   11.6160 O.2    65  TYR65      -0.2867
     58  CB        20.3700   -0.3930   11.3070 C.3    65  TYR65       0.0534
     59  CG        20.1230   -1.8640   11.6250 C.ar   65  TYR65      -0.0201
     60  CD1       18.8640   -2.2930   12.0380 C.ar   65  TYR65      -0.0009
     61  CD2       21.1370   -2.7920   11.5520 C.ar   65  TYR65      -0.0009
     62  CE1       18.6130   -3.6160   12.3540 C.ar   65  TYR65       0.0417
     63  CE2       20.9340   -4.1230   11.8650 C.ar   65  TYR65       0.0417
     64  CZ        19.6680   -4.5260   12.2630 C.ar   65  TYR65       0.1957
     65  OH        19.4240   -5.8410   12.5710 O.3    65  TYR65      -0.2866
     66  N         25.1990   -0.2160   14.3150 N.3    81  MET81      -0.1230
     67  CA        23.9480   -0.4490   15.0300 C.3    81  MET81       0.1702
     68  C         24.1620   -0.3660   16.5100 C.2    81  MET81       0.2592
     69  O         25.3140   -0.3230   16.9760 O.2    81  MET81      -0.2718
     70  CB        23.3920   -1.8430   14.6510 C.3    81  MET81       0.0401
     71  CG        24.2130   -2.9730   15.1850 C.3    81  MET81       0.0596
     72  SD        23.7910   -4.5890   14.5110 S.3    81  MET81      -0.1393
     73  CE        24.4710   -4.4650   12.8390 C.3    81  MET81       0.0692
     74  N         23.0650   -0.3420   17.2900 N.am   82  GLU82      -0.1966
     75  CA        23.1740   -0.3270   18.7300 C.3    82  GLU82       0.1733
     76  C         23.8810   -1.5650   19.2690 C.2    82  GLU82       0.2616
     77  O         23.8780   -2.6260   18.6380 O.2    82  GLU82      -0.2715
     78  CB        21.7960   -0.1910   19.3920 C.3    82  GLU82       0.0429
     79  CG        20.8860   -1.3820   19.1610 C.3    82  GLU82       0.1163
     80  CD        19.5140   -1.2040   19.8590 C.2    82  GLU82       0.3649
     81  OE1       19.5060   -1.0640   21.1050 O.co2  82  GLU82      -0.2457
     82  OE2       18.4670   -1.2210   19.1570 O.co2  82  GLU82      -0.2457
     83  N         24.4990   -1.4120   20.4280 N.am   83  TYR83      -0.1960
     84  CA        25.1680   -2.5370   21.1130 C.3    83  TYR83       0.1771
     85  C         24.2120   -3.1330   22.1720 C.2    83  TYR83       0.2620
     86  O         23.6740   -2.3850   22.9850 O.2    83  TYR83      -0.2715
     87  CB        26.4250   -2.0200   21.8240 C.3    83  TYR83       0.0574
     88  CG        27.0960   -3.0240   22.6970 C.ar   83  TYR83      -0.0198
     89  CD1       27.5640   -4.2340   22.1780 C.ar   83  TYR83      -0.0009
     90  CD2       27.3080   -2.7600   24.0610 C.ar   83  TYR83      -0.0009
     91  CE1       28.2020   -5.1600   22.9800 C.ar   83  TYR83       0.0417
     92  CE2       27.9630   -3.6870   24.8710 C.ar   83  TYR83       0.0417
     93  CZ        28.4000   -4.8820   24.3210 C.ar   83  TYR83       0.1957
     94  OH        29.0810   -5.8090   25.1010 O.3    83  TYR83      -0.2866
     95  N         24.0290   -4.4610   22.0930 N.am   84  CYS84      -0.1954
     96  CA        23.2090   -5.2000   23.0450 C.3    84  CYS84       0.1843
     97  C         24.0930   -6.0050   23.9710 C.2    84  CYS84       0.2625
     98  O         24.4930   -7.1440   23.6570 O.2    84  CYS84      -0.2714
     99  CB        22.2700   -6.1520   22.2890 C.3    84  CYS84       0.0997
    100  SG        21.2820   -5.3210   20.9800 S.3    84  CYS84      -0.0797
    101  N         24.3840   -5.4500   25.1300 N.am   85  GLU85      -0.1963
    102  CA        25.4450   -5.9960   25.9820 C.3    85  GLU85       0.1733
    103  C         25.1500   -7.3930   26.4870 C.2    85  GLU85       0.2617
    104  O         26.0320   -8.1070   26.9930 O.2    85  GLU85      -0.2715
    105  CB        25.7040   -5.0570   27.1630 C.3    85  GLU85       0.0429
    106  CG        24.6670   -5.2300   28.2340 C.3    85  GLU85       0.1163
    107  CD        25.0220   -4.4820   29.4960 C.2    85  GLU85       0.3649
    108  OE1       25.0130   -5.1280   30.5850 O.co2  85  GLU85      -0.2457
    109  OE2       25.3040   -3.2620   29.4150 O.co2  85  GLU85      -0.2457
    110  N         23.8700   -7.8240   26.3550 N.am   86  GLY86      -0.1940
    111  CA        23.4640   -9.1050   26.9210 C.3    86  GLY86       0.2014
    112  C         23.7110  -10.2900   26.0150 C.2    86  GLY86       0.2639
    113  O         23.5470  -11.4140   26.4370 O.2    86  GLY86      -0.2714
    114  N         24.0910  -10.0350   24.7540 N.am   87  GLY87      -0.1939
    115  CA        24.3320  -11.1260   23.8170 C.3    87  GLY87       0.2014
    116  C         23.0130  -11.6010   23.1890 C.2    87  GLY87       0.2638
    117  O         22.0280  -10.8950   23.2070 O.2    87  GLY87      -0.2714
    118  N         23.0160  -12.7750   22.6000 N.am   88  ASP88      -0.1971
    119  CA        21.8180  -13.2960   21.9600 C.3    88  ASP88       0.1709
    120  C         21.1570  -14.4000   22.8310 C.2    88  ASP88       0.2293
    121  O         21.7130  -14.8050   23.8050 O.2    88  ASP88      -0.2864
    122  CB        22.0850  -13.8210   20.5810 C.3    88  ASP88       0.1436
    123  CG        23.0180  -15.0280   20.5850 C.2    88  ASP88       0.3671
    124  OD1       23.6940  -15.2760   21.6100 O.co2  88  ASP88      -0.2456
    125  OD2       23.0980  -15.7110   19.5410 O.co2  88  ASP88      -0.2456
    126  N         22.8440  -18.0470   23.2580 N.3    91  SER91      -0.1217
    127  CA        23.8220  -18.1720   24.3400 C.3    91  SER91       0.1889
    128  C         23.1520  -18.2840   25.6880 C.2    91  SER91       0.2288
    129  O         23.6380  -18.9840   26.5720 O.2    91  SER91      -0.2866
    130  CB        24.7900  -16.9540   24.3690 C.3    91  SER91       0.2089
    131  OG        25.4910  -16.8600   23.1580 O.3    91  SER91      -0.2183
    132  N         19.4350  -17.1030   17.7700 N.3   129  ALA129     -0.1245
    133  CA        20.6510  -16.3840   17.3980 C.3   129  ALA129      0.1562
    134  C         20.3400  -15.0090   16.8150 C.2   129  ALA129      0.2260
    135  O         21.2420  -14.2060   16.5980 O.2   129  ALA129     -0.2867
    136  CB        21.4720  -17.2420   16.4090 C.3   129  ALA129      0.0290
    137  N         18.2760  -10.5230   20.6100 N.3   132  PHE132     -0.1241
    138  CA        19.3510   -9.9260   21.4260 C.3   132  PHE132      0.1605
    139  C         18.8330   -9.2500   22.6780 C.2   132  PHE132      0.2264
    140  O         17.6980   -8.7450   22.7120 O.2   132  PHE132     -0.2867
    141  CB        20.1830   -8.9290   20.5580 C.3   132  PHE132      0.0534
    142  CG        20.7550   -9.5450   19.3670 C.ar  132  PHE132     -0.0203
    143  CD1       20.0890   -9.5610   18.1570 C.ar  132  PHE132     -0.0042
    144  CD2       22.0050  -10.2070   19.4410 C.ar  132  PHE132     -0.0042
    145  CE1       20.6240  -10.1890   17.0340 C.ar  132  PHE132     -0.0003
    146  CE2       22.5370  -10.8500   18.3230 C.ar  132  PHE132     -0.0003
    147  CZ        21.8660  -10.8380   17.1450 C.ar  132  PHE132     -0.0000
    148  N         18.9540   -8.7250   12.7290 N.3   143  ASP143     -0.1239
    149  CA        19.1710   -9.2630   11.3970 C.3   143  ASP143      0.1674
    150  C         17.9280   -9.2950   10.5190 C.2   143  ASP143      0.2266
    151  O         17.9350   -8.7420    9.4050 O.2   143  ASP143     -0.2867
    152  CB        19.8120  -10.6580   11.5140 C.3   143  ASP143      0.1410
    153  CG        20.6740  -10.9730   10.3430 C.2   143  ASP143      0.3668
    154  OD1       20.7720  -10.0670    9.4580 O.co2 143  ASP143     -0.2456
    155  OD2       21.2530  -12.1050   10.2970 O.co2 143  ASP143     -0.2456
@<TRIPOS>BOND
     1    41    40    2
     2    46    45    1
     3    45    44    1
     4   151   150    2
     5   154   153   ar
     6    40    39    1
     7    43    44    1
     8    43    42    1
     9   155   153   ar
    10   153   152    1
    11   150   149    1
    12    42    39    1
    13    39    38    1
    14    58    59    1
    15    58    55    1
    16   149   152    1
    17   149   148    1
    18    61    59   ar
    19    61    63   ar
    20    57    56    2
    21    59    60   ar
    22    63    64   ar
    23    60    62   ar
    24    64    62   ar
    25    64    65    1
    26    56    55    1
    27    55    54    1
    28    73    72    1
    29    25    26    1
    30    30    29    1
    31    26    29    1
    32    26    27    1
    33    24    23    2
    34    66    67    1
    35    23    22    1
    36    72    71    1
    37    70    67    1
    38    70    71    1
    39    50    49    2
    40    27    28    2
    41    67    68    1
    42    34    33    2
    43    33    32    1
    44    22    21    1
    45    49    48    1
    46    52    51    1
    47    37    35    1
    48    51    48    1
    49    51    53    1
    50   136   133    1
    51    68    69    2
    52    68    74   am
    53   135   134    2
    54    21    15   am
    55    48    47    1
    56   134   133    1
    57    32    35    1
    58    32    31    1
    59   145   147   ar
    60   145   143   ar
    61   147   146   ar
    62    74    75    1
    63    35    36    1
    64   133   132    1
    65    13    14    1
    66    15    14    1
    67    15    16    2
    68   143   142   ar
    69   146   144   ar
    70    17    14    1
    71    17    19    1
    72    17    18    1
    73    77    76    2
    74    75    76    1
    75    75    78    1
    76     4     3    2
    77     3     2    1
    78    82    80   ar
    79    79    78    1
    80    79    80    1
    81    20    18    1
    82    76    83   am
    83   142   144   ar
    84   142   141    1
    85   125   123   ar
    86     2     1    1
    87     2     5    1
    88    80    81   ar
    89    83    84    1
    90   141   138    1
    91   122   123    1
    92   122   119    1
    93   123   124   ar
    94   137   138    1
    95   100    99    1
    96     5     6    1
    97    84    87    1
    98    84    85    1
    99   138   139    1
   100     7     6   ar
   101     7     9   ar
   102    87    88    1
   103     6     8   ar
   104   119   118    1
   105   119   120    1
   106    95    85   am
   107    95    96    1
   108    85    86    2
   109    89    88   ar
   110    89    91   ar
   111    99    96    1
   112     9    11   ar
   113   118   116   am
   114   139   140    2
   115    88    90   ar
   116   120   121    2
   117    91    93   ar
   118    96    97    1
   119     8    10   ar
   120   131   130    1
   121   116   117    2
   122   116   115    1
   123   126   127    1
   124    98    97    2
   125    11    10   ar
   126    11    12    1
   127   115   114    1
   128    97   101   am
   129    90    92   ar
   130    93    92   ar
   131    93    94    1
   132   127   130    1
   133   127   128    1
   134   114   112   am
   135   101   102    1
   136   128   129    2
   137   102   103    1
   138   102   105    1
   139   112   113    2
   140   112   111    1
   141   110   103   am
   142   110   111    1
   143   103   104    2
   144   105   106    1
   145   106   107    1
   146   109   107   ar
   147   107   108   ar
