@<TRIPOS>MOLECULE
tmp/2wqpA00.pdb
 208 193 0 0 0
SMALL
GASTEIGER

@<TRIPOS>ATOM
      1  N        100.6720  -14.3930   46.5670 N.3    24  GLU24      -0.1245
      2  CA       100.7570  -15.8130   46.8570 C.3    24  GLU24       0.1567
      3  C        100.5850  -16.6210   45.5630 C.2    24  GLU24       0.2260
      4  O         99.4720  -16.8420   45.0890 O.2    24  GLU24      -0.2867
      5  CB        99.6760  -16.1600   47.8960 C.3    24  GLU24       0.0388
      6  CG        99.2060  -17.5860   47.8840 C.3    24  GLU24       0.1160
      7  CD       100.1820  -18.5480   48.4660 C.2    24  GLU24       0.3649
      8  OE1       99.7270  -19.3650   49.3150 O.co2  24  GLU24      -0.2457
      9  OE2      101.3840  -18.5050   48.0840 O.co2  24  GLU24      -0.2457
     10  N        100.1890  -22.8700   44.7390 N.3    27  ILE27      -0.1245
     11  CA       100.1960  -24.0150   43.8560 C.3    27  ILE27       0.1561
     12  C         99.7010  -23.6450   42.4740 C.2    27  ILE27       0.2260
     13  O         99.5210  -24.5280   41.6400 O.2    27  ILE27      -0.2867
     14  CB        99.3480  -25.1900   44.3860 C.3    27  ILE27       0.0252
     15  CG1       97.9100  -24.7430   44.6900 C.3    27  ILE27       0.0019
     16  CG2      100.0270  -25.8130   45.6110 C.3    27  ILE27       0.0019
     17  CD1       96.9010  -25.9020   44.7770 C.3    27  ILE27       0.0001
     18  N        105.1500  -15.1620   47.3990 N.3    51  LYS51      -0.1245
     19  CA       105.1570  -16.2750   48.3320 C.3    51  LYS51       0.1561
     20  C        104.8320  -17.5730   47.6140 C.2    51  LYS51       0.2260
     21  O        104.0040  -17.6020   46.7130 O.2    51  LYS51      -0.2867
     22  CB       104.1540  -16.0610   49.4580 C.3    51  LYS51       0.0271
     23  CG       104.2650  -17.0830   50.5790 C.3    51  LYS51       0.0035
     24  CD       103.1590  -16.9370   51.6060 C.3    51  LYS51       0.0206
     25  CE       101.8530  -17.5050   51.1200 C.3    51  LYS51       0.1093
     26  NZ       101.9730  -18.9660   50.9010 N.3    51  LYS51      -0.1314
     27  N        104.3090  -22.0410   48.0980 N.3    53  GLN53      -0.1245
     28  CA       103.9560  -23.0900   49.0630 C.3    53  GLN53       0.1566
     29  C        104.9350  -24.2410   48.9140 C.2    53  GLN53       0.2260
     30  O        105.1820  -24.7160   47.8100 O.2    53  GLN53      -0.2867
     31  CB       102.5280  -23.5850   48.8360 C.3    53  GLN53       0.0367
     32  CG       101.4850  -22.6150   49.2790 C.3    53  GLN53       0.0905
     33  CD       100.0900  -23.0890   48.9910 C.2    53  GLN53       0.2608
     34  OE1       99.8390  -24.2890   48.8690 O.2    53  GLN53      -0.2717
     35  NE2       99.1670  -22.1510   48.8770 N.am   53  GLN53      -0.0878
     36  N        105.6270  -27.8620   49.3730 N.3    55  HIS55      -0.1241
     37  CA       104.9340  -29.1120   49.5890 C.3    55  HIS55       0.1621
     38  C        105.8610  -30.2800   49.3540 C.2    55  HIS55       0.2264
     39  O        106.5020  -30.3830   48.3080 O.2    55  HIS55      -0.2867
     40  CB       103.7420  -29.2240   48.6500 C.3    55  HIS55       0.0745
     41  CG       102.6270  -28.2890   48.9830 C.ar   55  HIS55       0.0817
     42  ND1      101.7550  -28.5260   50.0220 N.ar   55  HIS55      -0.2268
     43  CD2      102.2340  -27.1280   48.4110 C.ar   55  HIS55       0.1154
     44  CE1      100.8710  -27.5430   50.0770 C.ar   55  HIS55       0.1986
     45  NE2      101.1260  -26.6910   49.1000 N.ar   55  HIS55      -0.2212
     46  N         89.5200  -31.7210   49.1200 N.3    69  PRO69      -0.2116
     47  CA        89.2830  -30.3640   49.6380 C.3    69  PRO69       0.1372
     48  C         87.9930  -29.7630   49.1140 C.2    69  PRO69       0.2244
     49  O         87.3820  -30.3280   48.2090 O.2    69  PRO69      -0.2868
     50  CB        90.4970  -29.5740   49.1440 C.3    69  PRO69       0.0268
     51  CG        91.0630  -30.3400   48.0470 C.3    69  PRO69       0.0207
     52  CD        90.6500  -31.7740   48.1780 C.3    69  PRO69       0.0892
     53  N         87.4990  -27.1920   47.3120 N.3    71  ASN71      -0.1240
     54  CA        87.6420  -26.5560   46.0080 C.3    71  ASN71       0.1653
     55  C         88.2100  -27.4850   44.9510 C.2    71  ASN71       0.2266
     56  O         88.8470  -27.0400   44.0160 O.2    71  ASN71      -0.2867
     57  CB        88.4890  -25.2790   46.1120 C.3    71  ASN71       0.1155
     58  CG        89.8850  -25.5290   46.6760 C.2    71  ASN71       0.2627
     59  OD1       90.1480  -26.5620   47.2920 O.2    71  ASN71      -0.2716
     60  ND2       90.7830  -24.5640   46.4830 N.am   71  ASN71      -0.0877
     61  N         93.4020  -34.4430   48.0850 N.3    76  ILE76      -0.1245
     62  CA        94.4060  -33.4530   48.3660 C.3    76  ILE76       0.1561
     63  C         95.7890  -34.0420   48.0690 C.2    76  ILE76       0.2260
     64  O         96.6680  -33.3360   47.5950 O.2    76  ILE76      -0.2867
     65  CB        94.2980  -32.9420   49.8190 C.3    76  ILE76       0.0252
     66  CG1       95.2800  -31.8040   50.0560 C.3    76  ILE76       0.0019
     67  CG2       94.4890  -34.0670   50.8370 C.3    76  ILE76       0.0019
     68  CD1       95.0030  -30.5960   49.2140 C.3    76  ILE76       0.0001
     69  N         96.3880  -33.6280   44.3380 N.3    79  ILE79      -0.1245
     70  CA        96.6230  -32.2350   43.9990 C.3    79  ILE79       0.1561
     71  C         98.0730  -31.8710   44.2990 C.2    79  ILE79       0.2260
     72  O         98.7630  -31.3160   43.4530 O.2    79  ILE79      -0.2867
     73  CB        95.6640  -31.3110   44.7640 C.3    79  ILE79       0.0252
     74  CG1       94.2340  -31.5180   44.2320 C.3    79  ILE79       0.0019
     75  CG2       96.0840  -29.8680   44.6330 C.3    79  ILE79       0.0019
     76  CD1       93.1390  -30.9470   45.1090 C.3    79  ILE79       0.0001
     77  N        105.3380  -20.8390   52.4580 N.3   105  THR105     -0.1218
     78  CA       104.6400  -21.4990   53.5280 C.3   105  THR105      0.1862
     79  C        105.1100  -22.9410   53.5770 C.2   105  THR105      0.2287
     80  O        105.2100  -23.5910   52.5500 O.2   105  THR105     -0.2866
     81  CB       103.1230  -21.4920   53.2880 C.3   105  THR105      0.1770
     82  OG1      102.6730  -20.1590   53.0680 O.3   105  THR105     -0.2211
     83  CG2      102.3910  -22.0710   54.4690 C.3   105  THR105      0.0375
     84  N        104.4810  -26.8490   55.1010 N.3   107  PHE107     -0.1241
     85  CA       103.4050  -27.6880   55.5900 C.3   107  PHE107      0.1605
     86  C        103.9160  -28.9270   56.2900 C.2   107  PHE107      0.2264
     87  O        103.1440  -29.8180   56.5920 O.2   107  PHE107     -0.2867
     88  CB       102.4520  -28.0600   54.4420 C.3   107  PHE107      0.0534
     89  CG       101.8570  -26.8740   53.7650 C.ar  107  PHE107     -0.0203
     90  CD1      102.5160  -26.2510   52.7230 C.ar  107  PHE107     -0.0042
     91  CD2      100.6330  -26.3640   54.1750 C.ar  107  PHE107     -0.0042
     92  CE1      101.9830  -25.1500   52.1160 C.ar  107  PHE107     -0.0003
     93  CE2      100.0960  -25.2440   53.5770 C.ar  107  PHE107     -0.0003
     94  CZ       100.7620  -24.6460   52.5300 C.ar  107  PHE107     -0.0000
     95  N        106.0470  -18.1510   56.5630 N.3   123  LYS123     -0.1245
     96  CA       104.5970  -18.1310   56.6440 C.3   123  LYS123      0.1561
     97  C        104.1190  -19.4850   57.1740 C.2   123  LYS123      0.2260
     98  O        104.5760  -20.5430   56.7240 O.2   123  LYS123     -0.2867
     99  CB       103.9950  -17.8230   55.2770 C.3   123  LYS123      0.0271
    100  CG       102.4530  -17.8920   55.1980 C.3   123  LYS123      0.0035
    101  CD       101.7860  -16.6430   55.6840 C.3   123  LYS123      0.0206
    102  CE       100.2920  -16.8580   55.9520 C.3   123  LYS123      0.1093
    103  NZ        99.5060  -17.1410   54.7180 N.3   123  LYS123     -0.1314
    104  N        100.5480  -21.3220   57.4160 N.3   125  GLY125     -0.1210
    105  CA        99.1600  -21.3120   56.9850 C.3   125  GLY125      0.1956
    106  C         98.1400  -21.6300   58.0500 C.2   125  GLY125      0.2613
    107  O         98.4590  -22.1700   59.1070 O.2   125  GLY125     -0.2717
    108  N         96.8910  -21.2850   57.7720 N.am  126  SER126     -0.1938
    109  CA        95.8180  -21.4470   58.7520 C.3   126  SER126      0.2055
    110  C         95.6620  -22.9070   59.1690 C.2   126  SER126      0.2644
    111  O         95.2970  -23.2020   60.2930 O.2   126  SER126     -0.2714
    112  CB        94.5060  -20.9270   58.1740 C.3   126  SER126      0.2130
    113  OG        94.5610  -19.5300   57.9470 O.3   126  SER126     -0.2179
    114  N         95.9270  -23.8270   58.2500 N.am  127  GLY127     -0.1939
    115  CA        95.8340  -25.2330   58.5580 C.3   127  GLY127      0.2014
    116  C         96.8320  -25.6710   59.6190 C.2   127  GLY127      0.2638
    117  O         96.5820  -26.6390   60.3490 O.2   127  GLY127     -0.2714
    118  N         97.9530  -24.9600   59.7110 N.am  128  GLU128     -0.1977
    119  CA        99.0150  -25.2910   60.6670 C.3   128  GLU128      0.1602
    120  C         99.0430  -24.3670   61.8860 C.2   128  GLU128      0.2287
    121  O         99.9410  -24.4810   62.7280 O.2   128  GLU128     -0.2864
    122  CB       100.3890  -25.2470   60.0010 C.3   128  GLU128      0.0415
    123  CG       100.6250  -26.3240   58.9690 C.3   128  GLU128      0.1163
    124  CD        99.5940  -26.2900   57.8620 C.2   128  GLU128      0.3649
    125  OE1       99.5490  -25.2650   57.1310 O.co2 128  GLU128     -0.2457
    126  OE2       98.8290  -27.2750   57.7420 O.co2 128  GLU128     -0.2457
    127  N         98.9250  -17.1860   59.7480 N.3   148  SER148     -0.1217
    128  CA        97.5150  -17.0460   59.3960 C.3   148  SER148      0.1889
    129  C         96.6860  -17.7770   60.4120 C.2   148  SER148      0.2288
    130  O         97.0990  -18.8020   60.9520 O.2   148  SER148     -0.2866
    131  CB        97.1840  -17.5980   57.9970 C.3   148  SER148      0.2089
    132  OG        97.4220  -16.6420   56.9830 O.3   148  SER148     -0.2183
    133  N         91.8460  -14.5510   58.6430 N.3   175  CYS175     -0.1235
    134  CA        91.6710  -15.3330   57.4180 C.3   175  CYS175      0.1677
    135  C         90.4110  -16.1790   57.5310 C.2   175  CYS175      0.2270
    136  O         89.9980  -16.5220   58.6240 O.2   175  CYS175     -0.2867
    137  CB        92.8950  -16.2220   57.2100 C.3   175  CYS175      0.0956
    138  SG        92.8980  -17.1500   55.6350 S.3   175  CYS175     -0.0801
    139  N         89.0350  -19.6710   55.3550 N.3   177  ASN177     -0.1240
    140  CA        89.5990  -20.6100   54.3960 C.3   177  ASN177      0.1653
    141  C         88.5300  -21.3620   53.6490 C.2   177  ASN177      0.2266
    142  O         88.3910  -22.5730   53.7920 O.2   177  ASN177     -0.2867
    143  CB        90.5730  -21.5820   55.0800 C.3   177  ASN177      0.1155
    144  CG        91.7500  -20.8690   55.7090 C.2   177  ASN177      0.2627
    145  OD1       91.6760  -20.3970   56.8540 O.2   177  ASN177     -0.2716
    146  ND2       92.8580  -20.7980   54.9710 N.am  177  ASN177     -0.0877
    147  N         87.3660  -21.3980   49.4990 N.3   179  TYR179     -0.1241
    148  CA        87.9310  -20.9980   48.2220 C.3   179  TYR179      0.1605
    149  C         86.8980  -21.0740   47.1130 C.2   179  TYR179      0.2264
    150  O         86.6810  -22.1340   46.5270 O.2   179  TYR179     -0.2867
    151  CB        89.1170  -21.8770   47.8970 C.3   179  TYR179      0.0534
    152  CG        90.1510  -21.9020   49.0040 C.ar  179  TYR179     -0.0201
    153  CD1       89.9800  -22.7060   50.1250 C.ar  179  TYR179     -0.0009
    154  CD2       91.2950  -21.1340   48.9240 C.ar  179  TYR179     -0.0009
    155  CE1       90.9110  -22.7430   51.1240 C.ar  179  TYR179      0.0417
    156  CE2       92.2310  -21.1590   49.9220 C.ar  179  TYR179      0.0417
    157  CZ        92.0350  -21.9560   51.0220 C.ar  179  TYR179      0.1957
    158  OH        92.9850  -21.9690   52.0050 O.3   179  TYR179     -0.2866
    159  N         94.7050  -12.2700   55.3150 N.3   205  SER205     -0.1217
    160  CA        94.8960  -13.1880   54.2160 C.3   205  SER205      0.1889
    161  C         93.5060  -13.4650   53.6900 C.2   205  SER205      0.2288
    162  O         92.5970  -13.7760   54.4710 O.2   205  SER205     -0.2866
    163  CB        95.5340  -14.4910   54.6720 C.3   205  SER205      0.2089
    164  OG        95.6320  -15.4130   53.6080 O.3   205  SER205     -0.2183
    165  N         90.4980  -14.7450   50.5740 N.3   207  HIS207     -0.1241
    166  CA        90.1110  -15.6520   49.4950 C.3   207  HIS207      0.1621
    167  C         88.7390  -15.3050   48.8730 C.2   207  HIS207      0.2264
    168  O         88.1090  -16.1620   48.2670 O.2   207  HIS207     -0.2867
    169  CB        90.1160  -17.1010   49.9820 C.3   207  HIS207      0.0745
    170  CG        91.4350  -17.5290   50.5550 C.ar  207  HIS207      0.0817
    171  ND1       91.6280  -17.7380   51.9040 N.ar  207  HIS207     -0.2268
    172  CD2       92.6390  -17.7250   49.9720 C.ar  207  HIS207      0.1154
    173  CE1       92.8870  -18.0800   52.1230 C.ar  207  HIS207      0.1986
    174  NE2       93.5210  -18.0690   50.9710 N.ar  207  HIS207     -0.2212
    175  N         97.3920  -10.4810   52.0220 N.3   226  GLU226     -0.1245
    176  CA        97.7160  -11.6260   51.1660 C.3   226  GLU226      0.1567
    177  C         96.5110  -12.0470   50.3280 C.2   226  GLU226      0.2260
    178  O         95.4230  -12.2360   50.8560 O.2   226  GLU226     -0.2867
    179  CB        98.2100  -12.7950   52.0130 C.3   226  GLU226      0.0388
    180  CG        98.7630  -13.9660   51.1840 C.3   226  GLU226      0.1160
    181  CD        99.2430  -15.1470   52.0270 C.2   226  GLU226      0.3649
    182  OE1       99.9900  -14.9420   53.0080 O.co2 226  GLU226     -0.2457
    183  OE2       98.9090  -16.3040   51.6770 O.co2 226  GLU226     -0.2457
    184  N         96.0070  -14.7770   46.7100 N.3   228  HIS228     -0.1241
    185  CA        96.6410  -15.6080   45.7200 C.3   228  HIS228      0.1621
    186  C         96.8050  -14.7590   44.4630 C.2   228  HIS228      0.2264
    187  O         96.0920  -13.7770   44.2600 O.2   228  HIS228     -0.2867
    188  CB        95.8180  -16.8860   45.4800 C.3   228  HIS228      0.0745
    189  CG        95.8050  -17.8210   46.6590 C.ar  228  HIS228      0.0817
    190  ND1       96.3690  -19.0790   46.6270 N.ar  228  HIS228     -0.2268
    191  CD2       95.3110  -17.6670   47.9120 C.ar  228  HIS228      0.1154
    192  CE1       96.2150  -19.6600   47.8010 C.ar  228  HIS228      0.1986
    193  NE2       95.5740  -18.8260   48.6000 N.ar  228  HIS228     -0.2212
    194  N         92.8530  -25.0420   41.6100 N.3   237  PRO237     -0.2102
    195  CA        91.8050  -24.8560   42.6170 C.3   237  PRO237      0.1504
    196  C         91.7660  -23.4670   43.2260 C.2   237  PRO237      0.2575
    197  O         90.7260  -23.0810   43.7560 O.2   237  PRO237     -0.2718
    198  CB        92.1720  -25.8660   43.7130 C.3   237  PRO237      0.0282
    199  CG        93.0500  -26.8390   43.0780 C.3   237  PRO237      0.0208
    200  CD        93.7410  -26.1670   41.9360 C.3   237  PRO237      0.0893
    201  N         92.8900  -22.7510   43.2180 N.am  238  ASP238     -0.1974
    202  CA        92.9570  -21.4310   43.8710 C.3   238  ASP238      0.1708
    203  C         92.8730  -20.2730   42.8800 C.2   238  ASP238      0.2293
    204  O         92.8860  -19.0970   43.2830 O.2   238  ASP238     -0.2864
    205  CB        94.2540  -21.2690   44.6730 C.3   238  ASP238      0.1436
    206  CG        94.3440  -22.2160   45.8570 C.2   238  ASP238      0.3671
    207  OD1       93.2820  -22.6710   46.3450 O.co2 238  ASP238     -0.2456
    208  OD2       95.4890  -22.4850   46.2900 O.co2 238  ASP238     -0.2456
@<TRIPOS>BOND
     1   194   200    1
     2   194   195    1
     3    13    12    2
     4   200   199    1
     5    12    11    1
     6   195   196    1
     7   195   198    1
     8   203   204    2
     9   203   202    1
    10   199   198    1
    11   201   196   am
    12   201   202    1
    13   196   197    2
    14    72    71    2
    15    11    14    1
    16    11    10    1
    17   202   205    1
    18    70    71    1
    19    70    69    1
    20    70    73    1
    21    56    55    2
    22    74    73    1
    23    74    76    1
    24   187   186    2
    25    14    15    1
    26    14    16    1
    27   186   185    1
    28    75    73    1
    29   205   206    1
    30    15    17    1
    31    55    54    1
    32     4     3    2
    33   188   185    1
    34   188   189    1
    35     3     2    1
    36   185   184    1
    37   206   208   ar
    38   206   207   ar
    39    54    57    1
    40    54    53    1
    41    57    58    1
    42    60    58   am
    43   150   149    2
    44     1     2    1
    45   190   189   ar
    46   190   192   ar
    47   189   191   ar
    48    58    59    2
    49    21    20    2
    50     2     5    1
    51   149   148    1
    52    18    19    1
    53    64    63    2
    54    20    19    1
    55   192   193   ar
    56    30    29    2
    57     6     5    1
    58     6     7    1
    59   151   148    1
    60   151   152    1
    61   191   193   ar
    62    51    52    1
    63    51    50    1
    64    63    62    1
    65     9     7   ar
    66    61    62    1
    67    27    28    1
    68    52    46    1
    69    49    48    2
    70   148   147    1
    71   168   167    2
    72    39    38    2
    73    19    22    1
    74    62    65    1
    75    43    41   ar
    76    43    45   ar
    77     7     8   ar
    78    40    41    1
    79    40    37    1
    80    31    28    1
    81    31    32    1
    82    34    33    2
    83   167   166    1
    84    35    33   am
    85    29    28    1
    86   154   152   ar
    87   154   156   ar
    88    41    42   ar
    89    33    32    1
    90   152   153   ar
    91    45    44   ar
    92    48    47    1
    93    46    47    1
    94    50    47    1
    95    68    66    1
    96    38    37    1
    97    36    37    1
    98    22    23    1
    99   166   169    1
   100   166   165    1
   101    65    66    1
   102    65    67    1
   103   156   157   ar
   104   172   170   ar
   105   172   174   ar
   106   169   170    1
   107    42    44   ar
   108   153   155   ar
   109   177   178    2
   110   177   176    1
   111   170   171   ar
   112    23    24    1
   113    26    25    1
   114   174   173   ar
   115   157   155   ar
   116   157   158    1
   117    25    24    1
   118   176   179    1
   119   176   175    1
   120   180   179    1
   121   180   181    1
   122   183   181   ar
   123   171   173   ar
   124   181   182   ar
   125    92    94   ar
   126    92    90   ar
   127    77    78    1
   128    94    93   ar
   129    80    79    2
   130    90    89   ar
   131    82    81    1
   132    81    78    1
   133    81    83    1
   134    78    79    1
   135    93    91   ar
   136   164   163    1
   137   141   142    2
   138   141   140    1
   139   161   160    1
   140   161   162    2
   141    89    91   ar
   142    89    88    1
   143   160   163    1
   144   160   159    1
   145   140   143    1
   146   140   139    1
   147    88    85    1
   148   103   102    1
   149   146   144   am
   150   143   144    1
   151    84    85    1
   152   100    99    1
   153   100   101    1
   154    99    96    1
   155    85    86    1
   156   138   137    1
   157   101   102    1
   158   144   145    2
   159    86    87    2
   160    95    96    1
   161    96    97    1
   162    98    97    2
   163   132   131    1
   164   105   104    1
   165   105   106    1
   166   125   124   ar
   167   137   134    1
   168   134   135    1
   169   134   133    1
   170   135   136    2
   171   126   124   ar
   172   108   106   am
   173   108   109    1
   174   124   123    1
   175   113   112    1
   176   131   128    1
   177   106   107    2
   178   112   109    1
   179   114   115    1
   180   114   110   am
   181   115   116    1
   182   109   110    1
   183   123   122    1
   184   110   111    2
   185   128   127    1
   186   128   129    1
   187   116   118   am
   188   116   117    2
   189   118   119    1
   190   122   119    1
   191   129   130    2
   192   119   120    1
   193   120   121    2
