@<TRIPOS>MOLECULE
tmp/2wqqA00.pdb
 199 193 0 0 0
SMALL
GASTEIGER

@<TRIPOS>ATOM
      1  N         10.5230  -34.3870  -12.1510 N.3     7  GLY7       -0.1210
      2  CA        10.5050  -34.3540  -10.6910 C.3     7  GLY7        0.1956
      3  C         11.7410  -35.1070  -10.2270 C.2     7  GLY7        0.2612
      4  O         12.5060  -35.6020  -11.0460 O.2     7  GLY7       -0.2717
      5  N         11.9510  -35.2000   -8.9210 N.am    8  ASN8       -0.1960
      6  CA        13.1590  -35.8110   -8.4220 C.3     8  ASN8        0.1819
      7  C         12.9560  -37.1810   -7.7500 C.2     8  ASN8        0.2622
      8  O         13.7740  -37.5920   -6.9250 O.2     8  ASN8       -0.2715
      9  CB        13.8690  -34.8370   -7.4890 C.3     8  ASN8        0.1195
     10  CG        14.2360  -33.5630   -8.1800 C.2     8  ASN8        0.2630
     11  OD1       14.8550  -33.5730   -9.2670 O.2     8  ASN8       -0.2716
     12  ND2       13.8270  -32.4470   -7.5920 N.am    8  ASN8       -0.0877
     13  N         11.9000  -37.8960   -8.1380 N.am    9  GLY9       -0.1940
     14  CA        11.5950  -39.1920   -7.5420 C.3     9  GLY9        0.1998
     15  C         12.5210  -40.2990   -8.0330 C.2     9  GLY9        0.2480
     16  O         13.3080  -40.1020   -8.9520 O.2     9  GLY9       -0.2729
     17  N         12.4090  -41.4900   -7.4280 N.am   10  PRO10      -0.2726
     18  CA        13.2430  -42.6110   -7.8430 C.3    10  PRO10       0.1402
     19  C         13.1950  -42.8470   -9.3560 C.2    10  PRO10       0.2269
     20  O         14.2020  -43.1760   -9.9600 O.2    10  PRO10      -0.2865
     21  CB        12.6390  -43.8010   -7.0960 C.3    10  PRO10       0.0296
     22  CG        11.7610  -43.2170   -6.0060 C.3    10  PRO10       0.0237
     23  CD        11.3620  -41.8720   -6.4560 C.3    10  PRO10       0.0939
     24  N         13.5060  -29.1130  -11.1470 N.3    29  CYS29      -0.1221
     25  CA        13.0340  -28.3850   -9.9830 C.3    29  CYS29       0.1808
     26  C         13.7850  -28.6670   -8.7010 C.2    29  CYS29       0.2601
     27  O         14.4420  -29.7170   -8.5200 O.2    29  CYS29      -0.2717
     28  CB        11.5410  -28.6380   -9.7410 C.3    29  CYS29       0.0970
     29  SG        11.1100  -30.3260   -9.3220 S.3    29  CYS29      -0.0800
     30  N         13.6540  -27.7070   -7.7930 N.am   30  ASN30      -0.1960
     31  CA        14.0710  -27.8910   -6.4260 C.3    30  ASN30       0.1819
     32  C         15.4390  -28.5370   -6.3760 C.2    30  ASN30       0.2621
     33  O         16.3900  -27.9740   -6.9250 O.2    30  ASN30      -0.2715
     34  CB        12.9940  -28.6570   -5.6890 C.3    30  ASN30       0.1195
     35  CG        11.6290  -27.9070   -5.7360 C.2    30  ASN30       0.2630
     36  OD1       11.5820  -26.6950   -5.9740 O.2    30  ASN30      -0.2716
     37  ND2       10.5400  -28.6300   -5.5130 N.am   30  ASN30      -0.0877
     38  N         15.5630  -29.7020   -5.7590 N.am   31  GLN31      -0.1977
     39  CA        16.9150  -30.2540   -5.4890 C.3    31  GLN31       0.1601
     40  C         17.4290  -31.1990   -6.5530 C.2    31  GLN31       0.2287
     41  O         18.0920  -32.1930   -6.2500 O.2    31  GLN31      -0.2864
     42  CB        16.9920  -30.9460   -4.1350 C.3    31  GLN31       0.0394
     43  CG        16.8980  -29.9890   -2.9650 C.3    31  GLN31       0.0908
     44  CD        15.4670  -29.6140   -2.6480 C.2    31  GLN31       0.2608
     45  OE1       14.6460  -30.4850   -2.3720 O.2    31  GLN31      -0.2717
     46  NE2       15.1670  -28.3250   -2.6530 N.am   31  GLN31      -0.0878
     47  N         10.4710  -23.2350   -5.3100 N.3    50  ASN50      -0.1240
     48  CA         9.3890  -22.8120   -4.4430 C.3    50  ASN50       0.1653
     49  C          9.7190  -21.4750   -3.7920 C.2    50  ASN50       0.2266
     50  O         10.8490  -21.2460   -3.3930 O.2    50  ASN50      -0.2867
     51  CB         9.1560  -23.8550   -3.3110 C.3    50  ASN50       0.1155
     52  CG         8.5680  -25.1820   -3.8250 C.2    50  ASN50       0.2627
     53  OD1        8.0870  -25.2680   -4.9620 O.2    50  ASN50      -0.2716
     54  ND2        8.5960  -26.2180   -2.9810 N.am   50  ASN50      -0.0877
     55  N          9.3630  -20.4890   -0.8540 N.3    52  SER52      -0.1202
     56  CA         9.8300  -20.5510    0.5200 C.3    52  SER52       0.2020
     57  C         11.3410  -20.7180    0.6580 C.2    52  SER52       0.2618
     58  O         11.9140  -20.3430    1.6730 O.2    52  SER52      -0.2717
     59  CB         9.0860  -21.6520    1.3050 C.3    52  SER52       0.2103
     60  OG         9.3790  -22.9550    0.8120 O.3    52  SER52      -0.2182
     61  N         11.9950  -21.2890   -0.3390 N.am   53  LEU53      -0.1979
     62  CA        13.4420  -21.4010   -0.3110 C.3    53  LEU53       0.1596
     63  C         14.0740  -20.7420   -1.5330 C.2    53  LEU53       0.2287
     64  O         15.1700  -21.1170   -1.9340 O.2    53  LEU53      -0.2864
     65  CB        13.8620  -22.8690   -0.2940 C.3    53  LEU53       0.0297
     66  CG        13.5080  -23.6210    0.9890 C.3    53  LEU53       0.0022
     67  CD1       14.1070  -25.0060    0.9070 C.3    53  LEU53       0.0001
     68  CD2       14.0210  -22.8940    2.2050 C.3    53  LEU53       0.0001
     69  N         17.9670  -21.1720   -2.8770 N.3    57  GLN57      -0.1245
     70  CA        18.1600  -21.8880   -4.1460 C.3    57  GLN57       0.1566
     71  C         18.7850  -21.0110   -5.2510 C.2    57  GLN57       0.2260
     72  O         19.5370  -21.4900   -6.1050 O.2    57  GLN57      -0.2867
     73  CB        16.8240  -22.4180   -4.6930 C.3    57  GLN57       0.0367
     74  CG        16.1230  -23.4610   -3.8510 C.3    57  GLN57       0.0905
     75  CD        16.7370  -24.8460   -3.9150 C.2    57  GLN57       0.2608
     76  OE1       16.0590  -25.8410   -3.6380 O.2    57  GLN57      -0.2717
     77  NE2       18.0170  -24.9250   -4.2520 N.am   57  GLN57      -0.0878
     78  N         -1.0690  -29.1800   -5.9140 N.3   129  ILE129     -0.1231
     79  CA        -0.3390  -29.9260   -6.9170 C.3   129  ILE129      0.1692
     80  C          1.1470  -29.8830   -6.5800 C.2   129  ILE129      0.2593
     81  O          1.6020  -28.9750   -5.8980 O.2   129  ILE129     -0.2718
     82  CB        -0.5110  -29.3120   -8.3140 C.3   129  ILE129      0.0266
     83  CG1       -0.0300  -27.8560   -8.3080 C.3   129  ILE129      0.0019
     84  CG2       -1.9490  -29.4480   -8.8070 C.3   129  ILE129      0.0020
     85  CD1       -0.1970  -27.1400   -9.6620 C.3   129  ILE129      0.0001
     86  N          1.9030  -30.8520   -7.0740 N.am  130  THR130     -0.1939
     87  CA         3.3360  -30.8250   -6.9200 C.3   130  THR130      0.2028
     88  C          3.9550  -30.0200   -8.0730 C.2   130  THR130      0.2643
     89  O          3.2850  -29.6660   -9.0420 O.2   130  THR130     -0.2714
     90  CB         3.9240  -32.2080   -6.9530 C.3   130  THR130      0.1808
     91  OG1        3.5460  -32.8330   -8.1800 O.3   130  THR130     -0.2208
     92  CG2        3.4470  -33.0470   -5.7770 C.3   130  THR130      0.0379
     93  N          5.2460  -29.7420   -7.9510 N.am  131  SER131     -0.1935
     94  CA         5.9450  -28.9200   -8.9160 C.3   131  SER131      0.2055
     95  C          6.0090  -29.5790  -10.2870 C.2   131  SER131      0.2643
     96  O          6.0460  -28.8910  -11.3070 O.2   131  SER131     -0.2714
     97  CB         7.3560  -28.6410   -8.4300 C.3   131  SER131      0.2130
     98  OG         7.3320  -27.7580   -7.3380 O.3   131  SER131     -0.2179
     99  N          6.0470  -30.9020  -10.3200 N.am  132  GLY132     -0.1954
    100  CA         5.9980  -31.5970  -11.5890 C.3   132  GLY132      0.1869
    101  C          4.8340  -31.0710  -12.3830 C.2   132  GLY132      0.2309
    102  O          4.9850  -30.6760  -13.5300 O.2   132  GLY132     -0.2863
    103  N         10.5040  -38.8070  -13.1340 N.3   151  GLY151     -0.1210
    104  CA        10.7970  -38.4650  -11.7540 C.3   151  GLY151      0.1956
    105  C          9.5790  -38.1170  -10.9310 C.2   151  GLY151      0.2612
    106  O          9.6910  -37.5520   -9.8520 O.2   151  GLY151     -0.2717
    107  N          8.4110  -38.4830  -11.4220 N.am  152  ILE152     -0.1965
    108  CA         7.1830  -38.2390  -10.6840 C.3   152  ILE152      0.1727
    109  C          6.6040  -39.5800  -10.2070 C.2   152  ILE152      0.2616
    110  O          6.2400  -40.4220  -11.0260 O.2   152  ILE152     -0.2715
    111  CB         6.1800  -37.4840  -11.5600 C.3   152  ILE152      0.0290
    112  CG1        6.7380  -36.1050  -11.8880 C.3   152  ILE152      0.0022
    113  CG2        4.8480  -37.3760  -10.8580 C.3   152  ILE152      0.0023
    114  CD1        6.1050  -35.4520  -13.0790 C.3   152  ILE152      0.0001
    115  N          6.5300  -39.7630   -8.8850 N.am  153  ASP153     -0.1957
    116  CA         6.2180  -41.0610   -8.2770 C.3   153  ASP153      0.1840
    117  C          5.2290  -40.9930   -7.1120 C.2   153  ASP153      0.2622
    118  O          4.9600  -42.0050   -6.4730 O.2   153  ASP153     -0.2715
    119  CB         7.5090  -41.6920   -7.7590 C.3   153  ASP153      0.1450
    120  CG         8.4970  -41.9640   -8.8590 C.2   153  ASP153      0.3671
    121  OD1        9.6020  -41.3740   -8.8200 O.co2 153  ASP153     -0.2456
    122  OD2        8.1630  -42.7640   -9.7640 O.co2 153  ASP153     -0.2456
    123  N          4.7090  -39.8020   -6.8190 N.am  154  PHE154     -0.1960
    124  CA         3.7770  -39.6110   -5.6960 C.3   154  PHE154      0.1771
    125  C          4.3260  -40.2330   -4.4070 C.2   154  PHE154      0.2619
    126  O          3.6050  -40.9220   -3.6740 O.2   154  PHE154     -0.2715
    127  CB         2.3970  -40.1990   -6.0330 C.3   154  PHE154      0.0574
    128  CG         2.1410  -40.2950   -7.5030 C.ar  154  PHE154     -0.0200
    129  CD1        1.7890  -39.1750   -8.2300 C.ar  154  PHE154     -0.0042
    130  CD2        2.2940  -41.4980   -8.1650 C.ar  154  PHE154     -0.0042
    131  CE1        1.5800  -39.2510   -9.5790 C.ar  154  PHE154     -0.0003
    132  CE2        2.0850  -41.5810   -9.5170 C.ar  154  PHE154     -0.0003
    133  CZ         1.7300  -40.4560  -10.2270 C.ar  154  PHE154     -0.0000
    134  N          5.6150  -40.0080   -4.1630 N.am  155  TYR155     -0.1974
    135  CA         6.2370  -40.2920   -2.8660 C.3   155  TYR155      0.1639
    136  C          5.8760  -41.6790   -2.3460 C.2   155  TYR155      0.2290
    137  O          6.7430  -42.5470   -2.2430 O.2   155  TYR155     -0.2864
    138  CB         5.8290  -39.2030   -1.8500 C.3   155  TYR155      0.0560
    139  CG         6.1840  -37.7950   -2.3010 C.ar  155  TYR155     -0.0198
    140  CD1        5.3030  -37.0500   -3.0900 C.ar  155  TYR155     -0.0009
    141  CD2        7.4070  -37.2180   -1.9530 C.ar  155  TYR155     -0.0009
    142  CE1        5.6250  -35.7540   -3.5160 C.ar  155  TYR155      0.0417
    143  CE2        7.7470  -35.9140   -2.3770 C.ar  155  TYR155      0.0417
    144  CZ         6.8510  -35.1920   -3.1610 C.ar  155  TYR155      0.1957
    145  OH         7.1780  -33.9130   -3.5900 O.3   155  TYR155     -0.2866
    146  N         13.4570  -40.0810   -3.0640 N.3   156  TYR156     -0.1241
    147  CA        14.0800  -39.3280   -4.1450 C.3   156  TYR156      0.1605
    148  C         15.1030  -40.1760   -4.9250 C.2   156  TYR156      0.2264
    149  O         15.4910  -41.2690   -4.4980 O.2   156  TYR156     -0.2867
    150  CB        14.7020  -38.0290   -3.5920 C.3   156  TYR156      0.0534
    151  CG        13.6730  -37.1100   -2.9590 C.ar  156  TYR156     -0.0201
    152  CD1       13.3550  -37.2170   -1.6080 C.ar  156  TYR156     -0.0009
    153  CD2       12.9950  -36.1500   -3.7230 C.ar  156  TYR156     -0.0009
    154  CE1       12.3900  -36.3810   -1.0270 C.ar  156  TYR156      0.0417
    155  CE2       12.0270  -35.3000   -3.1530 C.ar  156  TYR156      0.0417
    156  CZ        11.7240  -35.4250   -1.8070 C.ar  156  TYR156      0.1957
    157  OH        10.7720  -34.6110   -1.2240 O.3   156  TYR156     -0.2866
    158  N         14.6340  -26.6470    5.7170 N.3   169  ALA169     -0.1245
    159  CA        13.3220  -27.2930    5.6890 C.3   169  ALA169      0.1562
    160  C         13.3770  -28.5760    6.5300 C.2   169  ALA169      0.2260
    161  O         13.6440  -29.6630    6.0040 O.2   169  ALA169     -0.2867
    162  CB        12.9110  -27.6000    4.2450 C.3   169  ALA169      0.0290
    163  N         11.3730  -30.5080    7.7090 N.3   171  ASN171     -0.1225
    164  CA        10.4170  -31.5580    7.3250 C.3   171  ASN171      0.1785
    165  C         11.0200  -32.6940    6.4920 C.2   171  ASN171      0.2597
    166  O         10.3970  -33.7540    6.3300 O.2   171  ASN171     -0.2718
    167  CB         9.2280  -30.9460    6.5780 C.3   171  ASN171      0.1169
    168  CG         8.1770  -30.3990    7.5180 C.2   171  ASN171      0.2627
    169  OD1        7.2430  -29.7090    7.1000 O.2   171  ASN171     -0.2716
    170  ND2        8.3230  -30.7050    8.8020 N.am  171  ASN171     -0.0877
    171  N         12.2250  -32.4780    5.9650 N.am  172  PHE172     -0.1976
    172  CA        12.9600  -33.5540    5.2840 C.3   172  PHE172      0.1639
    173  C         13.5240  -34.5910    6.2840 C.2   172  PHE172      0.2290
    174  O         14.4920  -35.2950    5.9940 O.2   172  PHE172     -0.2864
    175  CB        14.0560  -32.9750    4.3730 C.3   172  PHE172      0.0560
    176  CG        13.5300  -32.4440    3.0610 C.ar  172  PHE172     -0.0200
    177  CD1       13.1940  -33.3110    2.0300 C.ar  172  PHE172     -0.0042
    178  CD2       13.3570  -31.0810    2.8590 C.ar  172  PHE172     -0.0042
    179  CE1       12.6990  -32.8240    0.8270 C.ar  172  PHE172     -0.0003
    180  CE2       12.8640  -30.5960    1.6630 C.ar  172  PHE172     -0.0003
    181  CZ        12.5360  -31.4660    0.6500 C.ar  172  PHE172     -0.0000
    182  N         -0.4570  -33.0590   -0.6170 N.3   175  HIS175     -0.1241
    183  CA        -0.3960  -33.7610   -1.9000 C.3   175  HIS175      0.1621
    184  C         -1.0870  -35.1210   -1.9070 C.2   175  HIS175      0.2264
    185  O         -1.4030  -35.7010   -0.8500 O.2   175  HIS175     -0.2867
    186  CB         1.0620  -33.9200   -2.3510 C.3   175  HIS175      0.0745
    187  CG         1.8690  -32.6670   -2.2060 C.ar  175  HIS175      0.0817
    188  ND1        2.9000  -32.5440   -1.2980 N.ar  175  HIS175     -0.2268
    189  CD2        1.7760  -31.4680   -2.8320 C.ar  175  HIS175      0.1154
    190  CE1        3.4130  -31.3270   -1.3790 C.ar  175  HIS175      0.1986
    191  NE2        2.7480  -30.6530   -2.3010 N.ar  175  HIS175     -0.2212
    192  N         -2.6590  -34.9820   -8.3840 N.3   180  ASP180     -0.1239
    193  CA        -1.7380  -34.7200   -9.4830 C.3   180  ASP180      0.1674
    194  C         -2.2650  -35.2940  -10.8130 C.2   180  ASP180      0.2266
    195  O         -2.2510  -34.5990  -11.8350 O.2   180  ASP180     -0.2867
    196  CB        -0.3560  -35.2960   -9.1680 C.3   180  ASP180      0.1410
    197  CG         0.5380  -34.3400   -8.3560 C.2   180  ASP180      0.3668
    198  OD1        0.1410  -33.2100   -8.0070 O.co2 180  ASP180     -0.2456
    199  OD2        1.6750  -34.7490   -8.0640 O.co2 180  ASP180     -0.2456
@<TRIPOS>BOND
     1   102   101    2
     2   103   104    1
     3   114   112    1
     4   101   100    1
     5     1     2    1
     6   112   111    1
     7   195   194    2
     8   104   105    1
     9   100    99    1
    10   111   113    1
    11   111   108    1
    12   107   105   am
    13   107   108    1
    14    96    95    2
    15    24    25    1
    16     4     3    2
    17   110   109    2
    18   105   106    2
    19   194   193    1
    20     2     3    1
    21   108   109    1
    22    99    95   am
    23    95    94    1
    24   133   131   ar
    25   133   132   ar
    26     3     5   am
    27   109   115   am
    28    25    28    1
    29    25    26    1
    30    20    19    2
    31   122   120   ar
    32    28    29    1
    33    85    83    1
    34   131   129   ar
    35   132   130   ar
    36   193   196    1
    37   193   192    1
    38    19    18    1
    39    11    10    2
    40   196   197    1
    41    89    88    2
    42    16    15    2
    43     5     6    1
    44    94    97    1
    45    94    93    1
    46   115   116    1
    47   120   121   ar
    48   120   119    1
    49    84    82    1
    50    26    27    2
    51    26    30   am
    52    97    98    1
    53     6     7    1
    54     6     9    1
    55   197   199   ar
    56   197   198   ar
    57    82    83    1
    58    82    79    1
    59   116   119    1
    60   116   117    1
    61   129   128   ar
    62    91    90    1
    63    10    12   am
    64    10     9    1
    65   130   128   ar
    66    13     7   am
    67    13    14    1
    68    88    93   am
    69    88    87    1
    70    15    14    1
    71    15    17   am
    72    18    17    1
    73    18    21    1
    74    30    31    1
    75     7     8    2
    76   128   127    1
    77    17    23    1
    78   117   123   am
    79   117   118    2
    80    21    22    1
    81    86    87    1
    82    86    80   am
    83    90    87    1
    84    90    92    1
    85    33    32    2
    86    79    80    1
    87    79    78    1
    88   123   124    1
    89    80    81    2
    90    40    41    2
    91    40    39    1
    92    23    22    1
    93    31    32    1
    94    31    34    1
    95    32    38   am
    96    72    71    2
    97   127   124    1
    98    36    35    2
    99    38    39    1
   100    35    34    1
   101    35    37   am
   102   124   125    1
   103    39    42    1
   104    47    48    1
   105    71    70    1
   106    53    52    2
   107   148   149    2
   108   148   147    1
   109    73    70    1
   110    73    74    1
   111    48    49    1
   112    48    51    1
   113   125   134   am
   114   125   126    2
   115    77    75   am
   116   134   135    1
   117    70    69    1
   118   147   150    1
   119   147   146    1
   120    42    43    1
   121    75    74    1
   122    75    76    2
   123    52    51    1
   124    52    54   am
   125    49    50    2
   126   153   155   ar
   127   153   151   ar
   128   150   151    1
   129   145   144    1
   130   142   144   ar
   131   142   140   ar
   132   144   143   ar
   133   155   156   ar
   134   140   139   ar
   135    43    44    1
   136   151   152   ar
   137   135   136    1
   138   135   138    1
   139   189   191   ar
   140   189   187   ar
   141    46    44   am
   142    44    45    2
   143   143   141   ar
   144   186   187    1
   145   186   183    1
   146   136   137    2
   147   139   141   ar
   148   139   138    1
   149   191   190   ar
   150   187   188   ar
   151    64    63    2
   152   184   183    1
   153   184   185    2
   154   183   182    1
   155   156   157    1
   156   156   154   ar
   157   152   154   ar
   158    63    62    1
   159   190   188   ar
   160    55    56    1
   161    61    62    1
   162    61    57   am
   163    62    65    1
   164    65    66    1
   165    56    57    1
   166    56    59    1
   167   181   179   ar
   168   181   180   ar
   169    57    58    2
   170    60    59    1
   171   179   177   ar
   172    67    66    1
   173    66    68    1
   174   180   178   ar
   175   177   176   ar
   176   178   176   ar
   177   176   175    1
   178   162   159    1
   179   175   172    1
   180   172   171    1
   181   172   173    1
   182   159   158    1
   183   159   160    1
   184   171   165   am
   185   174   173    2
   186   161   160    2
   187   166   165    2
   188   165   164    1
   189   167   164    1
   190   167   168    1
   191   169   168    2
   192   164   163    1
   193   168   170   am
