@<TRIPOS>MOLECULE
tmp/2wqrB01.pdb
 145 133 0 0 0
SMALL
GASTEIGER

@<TRIPOS>ATOM
      1  N         17.3790   11.6110   32.3470 N.3    84  ASP84      -0.1239
      2  CA        15.9360   11.4980   32.5700 C.3    84  ASP84       0.1674
      3  C         15.3500   10.1050   32.3800 C.2    84  ASP84       0.2266
      4  O         14.1680    9.9620   32.0530 O.2    84  ASP84      -0.2867
      5  CB        15.1780   12.4990   31.6960 C.3    84  ASP84       0.1410
      6  CG        14.7550   13.7300   32.4650 C.2    84  ASP84       0.3668
      7  OD1       14.3510   13.5730   33.6360 O.co2  84  ASP84      -0.2456
      8  OD2       14.8240   14.8470   31.9060 O.co2  84  ASP84      -0.2456
      9  N         12.1700    8.7710   38.6690 N.3   103  LYS103     -0.1245
     10  CA        13.1210    9.4320   37.7930 C.3   103  LYS103      0.1561
     11  C         13.4420   10.7950   38.3920 C.2   103  LYS103      0.2260
     12  O         12.8100   11.2140   39.3680 O.2   103  LYS103     -0.2867
     13  CB        12.5680    9.5580   36.3690 C.3   103  LYS103      0.0271
     14  CG        11.5400   10.6430   36.1770 C.3   103  LYS103      0.0035
     15  CD        11.1440   10.7310   34.7090 C.3   103  LYS103      0.0206
     16  CE        10.8620   12.1560   34.3110 C.3   103  LYS103      0.1093
     17  NZ        12.0200   13.0500   34.5990 N.3   103  LYS103     -0.1314
     18  N         10.8750   16.5230   37.9760 N.3   106  ALA106     -0.1245
     19  CA        10.6750   17.4270   36.8480 C.3   106  ALA106      0.1562
     20  C         11.1340   18.8480   37.1740 C.2   106  ALA106      0.2260
     21  O         11.0620   19.2890   38.3240 O.2   106  ALA106     -0.2867
     22  CB         9.2130   17.4220   36.4180 C.3   106  ALA106      0.0290
     23  N          7.6830   23.5620   33.2220 N.3   110  PRO110     -0.2102
     24  CA         7.5940   22.7700   31.9960 C.3   110  PRO110      0.1504
     25  C          7.5540   23.7050   30.7940 C.2   110  PRO110      0.2575
     26  O          6.6720   24.5620   30.7100 O.2   110  PRO110     -0.2718
     27  CB         6.2610   22.0370   32.1550 C.3   110  PRO110      0.0282
     28  CG         6.0520   21.9570   33.6300 C.3   110  PRO110      0.0208
     29  CD         6.6030   23.2430   34.1700 C.3   110  PRO110      0.0893
     30  N          8.5100   23.5450   29.8850 N.am  111  ARG111     -0.1980
     31  CA         8.6310   24.4280   28.7290 C.3   111  ARG111      0.1597
     32  C          7.5460   24.2070   27.6770 C.2   111  ARG111      0.2287
     33  O          6.6620   23.3690   27.8390 O.2   111  ARG111     -0.2864
     34  CB        10.0170   24.3040   28.0970 C.3   111  ARG111      0.0334
     35  CG        11.1240   24.9390   28.9210 C.3   111  ARG111      0.0492
     36  CD        12.3970   25.0540   28.1070 C.3   111  ARG111      0.2205
     37  NE        12.1640   25.7670   26.8550 N.pl3 111  ARG111     -0.0865
     38  CZ        13.0230   25.8020   25.8430 C.cat 111  ARG111      0.5346
     39  NH1       14.1790   25.1570   25.9280 N.pl3 111  ARG111      0.1354
     40  NH2       12.7250   26.4780   24.7420 N.pl3 111  ARG111      0.1354
     41  N          6.4030   21.7820   21.1250 N.3   114  SER114     -0.1217
     42  CA         7.2120   21.6350   19.9210 C.3   114  SER114      0.1889
     43  C          6.5860   20.6020   18.9860 C.2   114  SER114      0.2288
     44  O          5.8200   19.7390   19.4220 O.2   114  SER114     -0.2866
     45  CB         8.6520   21.2510   20.2650 C.3   114  SER114      0.2089
     46  OG         8.6860   20.1570   21.1600 O.3   114  SER114     -0.2183
     47  N          7.2310   17.9940   15.3670 N.3   116  TYR116     -0.1241
     48  CA         8.1580   17.3090   14.4750 C.3   116  TYR116      0.1605
     49  C          7.4080   16.6760   13.3090 C.2   116  TYR116      0.2264
     50  O          6.2890   16.2040   13.4700 O.2   116  TYR116     -0.2867
     51  CB         8.9120   16.2330   15.2470 C.3   116  TYR116      0.0534
     52  CG         9.4790   16.7370   16.5510 C.ar  116  TYR116     -0.0201
     53  CD1       10.7680   17.2490   16.6150 C.ar  116  TYR116     -0.0009
     54  CD2        8.7200   16.7210   17.7140 C.ar  116  TYR116     -0.0009
     55  CE1       11.2900   17.7210   17.8040 C.ar  116  TYR116      0.0417
     56  CE2        9.2340   17.1910   18.9090 C.ar  116  TYR116      0.0417
     57  CZ        10.5210   17.6900   18.9460 C.ar  116  TYR116      0.1957
     58  OH        11.0420   18.1580   20.1300 O.3   116  TYR116     -0.2866
     59  N          7.9890   13.8970   10.0670 N.3   118  SER118     -0.1217
     60  CA         8.8880   12.8910    9.5020 C.3   118  SER118      0.1889
     61  C          8.5470   12.5360    8.0630 C.2   118  SER118      0.2288
     62  O          7.3810   12.5550    7.6730 O.2   118  SER118     -0.2866
     63  CB         8.8350   11.6130   10.3360 C.3   118  SER118      0.2089
     64  OG         7.5550   11.0140   10.2310 O.3   118  SER118     -0.2183
     65  N          4.2860   11.7490    9.4180 N.3   134  THR134     -0.1218
     66  CA         3.7390   11.9360   10.7540 C.3   134  THR134      0.1862
     67  C          4.1250   13.2640   11.3870 C.2   134  THR134      0.2287
     68  O          5.2980   13.6190   11.4580 O.2   134  THR134     -0.2866
     69  CB         4.1340   10.7890   11.7000 C.3   134  THR134      0.1770
     70  OG1        3.5080    9.5790   11.2630 O.3   134  THR134     -0.2211
     71  CG2        3.6800   11.0980   13.1300 C.3   134  THR134      0.0375
     72  N          4.1500   15.1680   14.8360 N.3   136  LEU136     -0.1245
     73  CA         4.1170   14.8750   16.2590 C.3   136  LEU136      0.1561
     74  C          4.1870   16.1660   17.0590 C.2   136  LEU136      0.2260
     75  O          5.1220   16.9450   16.8990 O.2   136  LEU136     -0.2867
     76  CB         5.3040   13.9780   16.6290 C.3   136  LEU136      0.0270
     77  CG         5.5350   13.7360   18.1200 C.3   136  LEU136      0.0019
     78  CD1        4.2990   13.0970   18.7610 C.3   136  LEU136      0.0001
     79  CD2        6.7820   12.8840   18.3580 C.3   136  LEU136      0.0001
     80  N          4.4220   17.7590   20.8440 N.3   138  VAL138     -0.1231
     81  CA         4.7830   17.3430   22.1990 C.3   138  VAL138      0.1692
     82  C          4.7470   18.4680   23.2280 C.2   138  VAL138      0.2592
     83  O          4.6850   19.6470   22.8780 O.2   138  VAL138     -0.2718
     84  CB         6.1900   16.7120   22.2370 C.3   138  VAL138      0.0266
     85  CG1        6.2350   15.4530   21.3920 C.3   138  VAL138      0.0020
     86  CG2        7.2220   17.7090   21.7630 C.3   138  VAL138      0.0020
     87  N          4.7900   18.0750   24.5000 N.am  139  ASP139     -0.1974
     88  CA         4.8910   18.9990   25.6330 C.3   139  ASP139      0.1709
     89  C          3.6600   19.8800   25.8390 C.2   139  ASP139      0.2293
     90  O          3.7410   20.9470   26.4450 O.2   139  ASP139     -0.2864
     91  CB         6.1600   19.8550   25.5310 C.3   139  ASP139      0.1436
     92  CG         7.3630   19.1980   26.1910 C.2   139  ASP139      0.3671
     93  OD1        8.4770   19.2940   25.6320 O.co2 139  ASP139     -0.2456
     94  OD2        7.1880   18.5810   27.2650 O.co2 139  ASP139     -0.2456
     95  N          0.8420   11.6060   28.8170 N.3   169  GLN169     -0.1231
     96  CA         2.1260   11.0170   29.1620 C.3   169  GLN169      0.1698
     97  C          2.2970   11.0060   30.6750 C.2   169  GLN169      0.2592
     98  O          1.5960   11.7230   31.3860 O.2   169  GLN169     -0.2718
     99  CB         3.2690   11.7930   28.5030 C.3   169  GLN169      0.0381
    100  CG         3.1240   11.9410   26.9870 C.3   169  GLN169      0.0905
    101  CD         2.9890   10.6040   26.2850 C.2   169  GLN169      0.2608
    102  OE1        2.2720   10.4800   25.2860 O.2   169  GLN169     -0.2717
    103  NE2        3.6720    9.5900   26.8060 N.am  169  GLN169     -0.0878
    104  N          3.2280   10.1860   31.1530 N.am  170  ARG170     -0.1966
    105  CA         3.4710   10.0410   32.5860 C.3   170  ARG170      0.1729
    106  C          3.8650   11.3510   33.2480 C.2   170  ARG170      0.2616
    107  O          3.4510   11.6290   34.3740 O.2   170  ARG170     -0.2715
    108  CB         4.5320    8.9710   32.8610 C.3   170  ARG170      0.0348
    109  CG         3.9810    7.5600   32.8810 C.3   170  ARG170      0.0492
    110  CD         4.6400    6.7190   33.9600 C.3   170  ARG170      0.2205
    111  NE         5.9800    6.2780   33.5890 N.pl3 170  ARG170     -0.0865
    112  CZ         6.7120    5.4330   34.3090 C.cat 170  ARG170      0.5346
    113  NH1        6.2390    4.9390   35.4450 N.pl3 170  ARG170      0.1354
    114  NH2        7.9190    5.0810   33.8910 N.pl3 170  ARG170      0.1354
    115  N          4.6660   12.1530   32.5560 N.am  171  ASN171     -0.1972
    116  CA         5.1250   13.4190   33.1220 C.3   171  ASN171      0.1688
    117  C          4.0450   14.5030   33.0780 C.2   171  ASN171      0.2292
    118  O          4.3080   15.6700   33.3660 O.2   171  ASN171     -0.2864
    119  CB         6.4270   13.8880   32.4580 C.3   171  ASN171      0.1181
    120  CG         6.3020   14.0160   30.9480 C.2   171  ASN171      0.2629
    121  OD1        5.1930   14.0790   30.4170 O.2   171  ASN171     -0.2716
    122  ND2        7.4440   14.0740   30.2550 N.am  171  ASN171     -0.0877
    123  N          2.3670   15.5870   30.5200 N.3   173  THR173     -0.1218
    124  CA         2.2490   16.2750   29.2420 C.3   173  THR173      0.1862
    125  C          1.2740   15.5610   28.3120 C.2   173  THR173      0.2287
    126  O          0.7890   14.4650   28.6110 O.2   173  THR173     -0.2866
    127  CB         3.6070   16.3900   28.5270 C.3   173  THR173      0.1770
    128  OG1        4.0280   15.0920   28.0920 O.3   173  THR173     -0.2211
    129  CG2        4.6590   16.9850   29.4570 C.3   173  THR173      0.0375
    130  N          0.8150   14.4690   24.1380 N.3   175  THR175     -0.1218
    131  CA         1.3230   14.4210   22.7760 C.3   175  THR175      0.1862
    132  C          0.1540   14.1960   21.8200 C.2   175  THR175      0.2287
    133  O         -0.7890   13.4680   22.1360 O.2   175  THR175     -0.2866
    134  CB         2.3730   13.3150   22.6000 C.3   175  THR175      0.1770
    135  OG1        1.7230   12.0440   22.4830 O.3   175  THR175     -0.2211
    136  CG2        3.3110   13.2950   23.8010 C.3   175  THR175      0.0375
    137  N         21.7670    5.3250   13.6030 N.3   271  GLN271     -0.1245
    138  CA        21.2500    6.2550   12.6160 C.3   271  GLN271      0.1566
    139  C         22.3740    6.5260   11.6150 C.2   271  GLN271      0.2260
    140  O         23.5450    6.5320   11.9870 O.2   271  GLN271     -0.2867
    141  CB        20.7920    7.5500   13.2910 C.3   271  GLN271      0.0367
    142  CG        19.6090    7.3610   14.2380 C.3   271  GLN271      0.0905
    143  CD        18.3920    6.7510   13.5490 C.2   271  GLN271      0.2608
    144  OE1       18.0510    7.1160   12.4210 O.2   271  GLN271     -0.2717
    145  NE2       17.7320    5.8200   14.2300 N.am  271  GLN271     -0.0878
@<TRIPOS>BOND
     1    62    61    2
     2    61    60    1
     3    65    66    1
     4    60    59    1
     5    60    63    1
     6    64    63    1
     7    66    67    1
     8    66    69    1
     9    70    69    1
    10    67    68    2
    11   139   140    2
    12   139   138    1
    13    69    71    1
    14   144   143    2
    15   138   141    1
    16   138   137    1
    17   141   142    1
    18    49    50    2
    19    49    48    1
    20   143   145   am
    21   143   142    1
    22    48    51    1
    23    48    47    1
    24    72    73    1
    25    51    52    1
    26    73    76    1
    27    73    74    1
    28    52    53   ar
    29    52    54   ar
    30    53    55   ar
    31    76    77    1
    32    75    74    2
    33    54    56   ar
    34    55    57   ar
    35    77    79    1
    36    77    78    1
    37    56    57   ar
    38    57    58    1
    39    43    44    2
    40    43    42    1
    41    42    45    1
    42    42    41    1
    43    45    46    1
    44    80    81    1
    45    85    84    1
    46    86    84    1
    47   132   133    2
    48   132   131    1
    49    81    84    1
    50    81    82    1
    51   135   134    1
    52   134   131    1
    53   134   136    1
    54   131   130    1
    55    83    82    2
    56    82    87   am
    57    87    88    1
    58    40    38    1
    59   102   101    2
    60    91    88    1
    61    91    92    1
    62    93    92   ar
    63    88    89    1
    64    89    90    2
    65    38    39    1
    66    38    37    2
    67    92    94   ar
    68   101   103   am
    69   101   100    1
    70    37    36    1
    71   100    99    1
    72    32    33    2
    73    32    31    1
    74   128   127    1
    75    34    31    1
    76    34    35    1
    77    36    35    1
    78   125   126    2
    79   125   124    1
    80    99    96    1
    81   127   124    1
    82   127   129    1
    83    31    30    1
    84    95    96    1
    85    96    97    1
    86   124   123    1
    87    30    25   am
    88   122   120   am
    89   121   120    2
    90    97   104   am
    91    97    98    2
    92    26    25    2
    93    25    24    1
    94   120   119    1
    95   104   105    1
    96     5     6    1
    97     5     2    1
    98     8     6   ar
    99    24    27    1
   100    24    23    1
   101     4     3    2
   102    27    28    1
   103     1     2    1
   104     3     2    1
   105   119   116    1
   106     6     7   ar
   107   115   116    1
   108   115   106   am
   109   105   108    1
   110   105   106    1
   111   108   109    1
   112   109   110    1
   113   117   116    1
   114   117   118    2
   115    23    29    1
   116   106   107    2
   117   111   110    1
   118   111   112    2
   119    28    29    1
   120   114   112    1
   121   112   113    1
   122    16    17    1
   123    16    15    1
   124    15    14    1
   125    14    13    1
   126    13    10    1
   127    22    19    1
   128    19    20    1
   129    19    18    1
   130    20    21    2
   131    10    11    1
   132    10     9    1
   133    11    12    2
