@<TRIPOS>MOLECULE
tmp/2wqrA01.pdb
 87 85 0 0 0
SMALL
GASTEIGER

@<TRIPOS>ATOM
      1  N         39.2670   10.4350   28.5860 N.3   118  SER118     -0.1203
      2  CA        39.3000    9.3200   27.6460 C.3   118  SER118      0.2005
      3  C         40.3070    8.2990   28.1600 C.2   118  SER118      0.2461
      4  O         41.3470    8.6720   28.7020 O.2   118  SER118     -0.2732
      5  CB        39.6840    9.7890   26.2420 C.3   118  SER118      0.2103
      6  OG        41.0780    9.6890   26.0220 O.3   118  SER118     -0.2182
      7  N         39.9920    7.0030   28.0230 N.am  119  PRO119     -0.2717
      8  CA        40.9500    5.9840   28.4570 C.3   119  PRO119      0.1535
      9  C         42.2970    6.1360   27.7620 C.2   119  PRO119      0.2599
     10  O         43.3180    5.8560   28.3820 O.2   119  PRO119     -0.2715
     11  CB        40.2590    4.6730   28.0750 C.3   119  PRO119      0.0310
     12  CG        38.7980    5.0010   28.2050 C.3   119  PRO119      0.0237
     13  CD        38.6770    6.4250   27.7030 C.3   119  PRO119      0.0939
     14  N         42.3100    6.5960   26.5140 N.am  120  PHE120     -0.1960
     15  CA        43.5840    6.7790   25.8200 C.3   120  PHE120      0.1771
     16  C         44.4300    7.8330   26.5300 C.2   120  PHE120      0.2619
     17  O         45.6050    7.6080   26.8200 O.2   120  PHE120     -0.2715
     18  CB        43.3800    7.1800   24.3620 C.3   120  PHE120      0.0574
     19  CG        44.6670    7.3510   23.5990 C.ar  120  PHE120     -0.0200
     20  CD1       45.4330    6.2510   23.2540 C.ar  120  PHE120     -0.0042
     21  CD2       45.1120    8.6090   23.2320 C.ar  120  PHE120     -0.0042
     22  CE1       46.6180    6.4020   22.5560 C.ar  120  PHE120     -0.0003
     23  CE2       46.2980    8.7670   22.5330 C.ar  120  PHE120     -0.0003
     24  CZ        47.0480    7.6620   22.1960 C.ar  120  PHE120     -0.0000
     25  N         43.8150    8.9780   26.8120 N.am  121  ASP121     -0.1971
     26  CA        44.4910   10.0780   27.4960 C.3   121  ASP121      0.1709
     27  C         44.9310    9.6860   28.9010 C.2   121  ASP121      0.2293
     28  O         45.9560   10.1490   29.3970 O.2   121  ASP121     -0.2864
     29  CB        43.5650   11.2880   27.5890 C.3   121  ASP121      0.1436
     30  CG        43.4070   12.0030   26.2670 C.2   121  ASP121      0.3671
     31  OD1       42.4740   12.8270   26.1510 O.co2 121  ASP121     -0.2456
     32  OD2       44.2150   11.7440   25.3500 O.co2 121  ASP121     -0.2456
     33  N         35.6400    4.1290   26.6550 N.3   248  ILE248     -0.1231
     34  CA        36.5390    3.3400   25.8220 C.3   248  ILE248      0.1692
     35  C         37.1710    4.2310   24.7610 C.2   248  ILE248      0.2593
     36  O         36.5530    5.1950   24.3040 O.2   248  ILE248     -0.2718
     37  CB        35.7970    2.1370   25.1760 C.3   248  ILE248      0.0266
     38  CG1       36.7960    1.1350   24.5750 C.3   248  ILE248      0.0019
     39  CG2       34.7670    2.6000   24.1430 C.3   248  ILE248      0.0020
     40  CD1       36.2260   -0.2450   24.4560 C.3   248  ILE248      0.0001
     41  N         38.4190    3.9360   24.4140 N.am  249  SER249     -0.1938
     42  CA        39.0870    4.5920   23.3000 C.3   249  SER249      0.2055
     43  C         39.4600    3.5470   22.2550 C.2   249  SER249      0.2643
     44  O         39.8800    2.4390   22.6010 O.2   249  SER249     -0.2714
     45  CB        40.3490    5.3110   23.7750 C.3   249  SER249      0.2130
     46  OG        40.0310    6.3710   24.6640 O.3   249  SER249     -0.2179
     47  N         39.3110    3.9040   20.9820 N.am  250  VAL250     -0.1963
     48  CA        39.6210    2.9880   19.8850 C.3   250  VAL250      0.1727
     49  C         40.6400    3.6190   18.9550 C.2   250  VAL250      0.2616
     50  O         40.5130    4.7880   18.5870 O.2   250  VAL250     -0.2715
     51  CB        38.3680    2.6570   19.0450 C.3   250  VAL250      0.0290
     52  CG1       38.7310    1.7190   17.8780 C.3   250  VAL250      0.0023
     53  CG2       37.2870    2.0490   19.9130 C.3   250  VAL250      0.0023
     54  N         41.6600    2.8570   18.5800 N.am  251  GLN251     -0.1977
     55  CA        42.5750    3.3150   17.5420 C.3   251  GLN251      0.1601
     56  C         42.8200    2.2080   16.5330 C.2   251  GLN251      0.2287
     57  O         42.5420    1.0430   16.7990 O.2   251  GLN251     -0.2864
     58  CB        43.9120    3.7830   18.1310 C.3   251  GLN251      0.0394
     59  CG        44.5370    2.8320   19.1110 C.3   251  GLN251      0.0908
     60  CD        44.3060    3.2520   20.5480 C.2   251  GLN251      0.2608
     61  OE1       43.3600    3.9810   20.8530 O.2   251  GLN251     -0.2717
     62  NE2       45.1780    2.7970   21.4390 N.am  251  GLN251     -0.0878
     63  N         43.3700   10.0100   13.9400 N.3   261  ASP261     -0.1239
     64  CA        42.0100    9.8240   14.4320 C.3   261  ASP261      0.1674
     65  C         40.9800    9.9960   13.3200 C.2   261  ASP261      0.2266
     66  O         39.9090    9.3920   13.3530 O.2   261  ASP261     -0.2867
     67  CB        41.7110   10.8110   15.5620 C.3   261  ASP261      0.1410
     68  CG        42.7460   10.7650   16.6670 C.2   261  ASP261      0.3668
     69  OD1       42.9540   11.8040   17.3290 O.co2 261  ASP261     -0.2456
     70  OD2       43.3540    9.6930   16.8720 O.co2 261  ASP261     -0.2456
     71  N         39.1980    7.0020   10.9000 N.3   264  HIS264     -0.1241
     72  CA        38.1420    6.0870   11.3130 C.3   264  HIS264      0.1621
     73  C         37.0250    6.7900   12.0560 C.2   264  HIS264      0.2264
     74  O         37.1040    7.9840   12.3590 O.2   264  HIS264     -0.2867
     75  CB        38.7070    4.9730   12.1970 C.3   264  HIS264      0.0745
     76  CG        38.9840    5.4080   13.6020 C.ar  264  HIS264      0.0817
     77  ND1       40.1930    5.9400   13.9900 N.ar  264  HIS264     -0.2268
     78  CD2       38.2030    5.4020   14.7070 C.ar  264  HIS264      0.1154
     79  CE1       40.1500    6.2360   15.2770 C.ar  264  HIS264      0.1986
     80  NE2       38.9520    5.9220   15.7350 N.ar  264  HIS264     -0.2212
     81  N         33.9960    5.7940   15.2910 N.3   266  THR266     -0.1218
     82  CA        33.5290    4.8180   16.2590 C.3   266  THR266      0.1862
     83  C         32.1750    5.2640   16.7750 C.2   266  THR266      0.2287
     84  O         31.9740    6.4510   17.0540 O.2   266  THR266     -0.2866
     85  CB        34.5250    4.6730   17.4310 C.3   266  THR266      0.1770
     86  OG1       35.8330    4.4220   16.9050 O.3   266  THR266     -0.2211
     87  CG2       34.1280    3.5170   18.3280 C.3   266  THR266      0.0375
@<TRIPOS>BOND
     1    71    72    1
     2    72    73    1
     3    72    75    1
     4    73    74    2
     5    75    76    1
     6    65    66    2
     7    65    64    1
     8    76    77   ar
     9    76    78   ar
    10    63    64    1
    11    77    79   ar
    12    64    67    1
    13    78    80   ar
    14    79    80   ar
    15    81    82    1
    16    67    68    1
    17    82    83    1
    18    82    85    1
    19    56    57    2
    20    56    55    1
    21    68    70   ar
    22    68    69   ar
    23    83    84    2
    24    86    85    1
    25    85    87    1
    26    55    58    1
    27    55    54    1
    28    52    51    1
    29    58    59    1
    30    54    49   am
    31    50    49    2
    32    49    48    1
    33    51    48    1
    34    51    53    1
    35    59    60    1
    36    48    47    1
    37    60    61    2
    38    60    62   am
    39    47    43   am
    40    24    23   ar
    41    24    22   ar
    42    43    44    2
    43    43    42    1
    44    23    21   ar
    45    22    20   ar
    46    21    19   ar
    47    20    19   ar
    48    42    45    1
    49    42    41    1
    50    19    18    1
    51    45    46    1
    52    39    37    1
    53    36    35    2
    54    18    15    1
    55    41    35   am
    56    40    38    1
    57    38    37    1
    58    35    34    1
    59    37    34    1
    60    32    30   ar
    61    15    14    1
    62    15    16    1
    63    34    33    1
    64     6     5    1
    65    31    30   ar
    66     5     2    1
    67    30    29    1
    68    14     9   am
    69    16    25   am
    70    16    17    2
    71    25    26    1
    72    26    29    1
    73    26    27    1
    74     2     3    1
    75     2     1    1
    76    13     7    1
    77    13    12    1
    78     9    10    2
    79     9     8    1
    80     7     3   am
    81     7     8    1
    82    11    12    1
    83    11     8    1
    84     3     4    2
    85    27    28    2
