@<TRIPOS>MOLECULE
tmp/2wqyG00.pdb
 116 110 0 0 0
SMALL
GASTEIGER

@<TRIPOS>ATOM
      1  N         42.9520   -7.6980    8.3040 N.3    41  HIS41      -0.1226
      2  CA        44.0500   -7.0590    9.0020 C.3    41  HIS41       0.1752
      3  C         45.2980   -7.1010    8.1250 C.2    41  HIS41       0.2595
      4  O         46.1010   -6.1580    8.1080 O.2    41  HIS41      -0.2718
      5  CB        44.3390   -7.7620   10.3210 C.3    41  HIS41       0.0759
      6  CG        45.2610   -6.9960   11.2030 C.ar   41  HIS41       0.0818
      7  ND1       46.6050   -7.2850   11.3050 N.ar   41  HIS41      -0.2268
      8  CD2       45.0440   -5.9140   11.9840 C.ar   41  HIS41       0.1154
      9  CE1       47.1740   -6.4120   12.1160 C.ar   41  HIS41       0.1986
     10  NE2       46.2470   -5.5700   12.5420 N.ar   41  HIS41      -0.2212
     11  N         45.4740   -8.2030    7.3990 N.am   42  ARG42      -0.1980
     12  CA        46.6100   -8.3320    6.5090 C.3    42  ARG42       0.1597
     13  C         46.4040   -7.3910    5.3140 C.2    42  ARG42       0.2287
     14  O         47.3180   -6.7030    4.9080 O.2    42  ARG42      -0.2864
     15  CB        46.7530   -9.7840    6.0340 C.3    42  ARG42       0.0334
     16  CG        47.7910  -10.0120    4.9260 C.3    42  ARG42       0.0492
     17  CD        48.2940  -11.4630    4.9140 C.3    42  ARG42       0.2205
     18  NE        49.2500  -11.6800    6.0010 N.pl3  42  ARG42      -0.0865
     19  CZ        49.9800  -12.7840    6.1720 C.cat  42  ARG42       0.5346
     20  NH1       49.8650  -13.8020    5.3310 N.pl3  42  ARG42       0.1354
     21  NH2       50.8600  -12.8550    7.1690 N.pl3  42  ARG42       0.1354
     22  N         47.0700   -3.7960    6.3580 N.3    45  GLY45      -0.1210
     23  CA        48.4950   -3.5690    6.5850 C.3    45  GLY45       0.1956
     24  C         49.2670   -3.3870    5.2820 C.2    45  GLY45       0.2611
     25  O         50.1190   -2.5060    5.1540 O.2    45  GLY45      -0.2717
     26  N         48.9750   -4.2310    4.3020 N.am   46  VAL46      -0.1979
     27  CA        49.6500   -4.1460    3.0140 C.3    46  VAL46       0.1595
     28  C         49.2340   -2.8480    2.3040 C.2    46  VAL46       0.2287
     29  O         50.0510   -2.1720    1.6900 O.2    46  VAL46      -0.2864
     30  CB        49.2970   -5.3440    2.1160 C.3    46  VAL46       0.0276
     31  CG1       49.9010   -5.1550    0.7550 C.3    46  VAL46       0.0022
     32  CG2       49.8030   -6.6460    2.7450 C.3    46  VAL46       0.0022
     33  N         48.2900   -0.0830    3.6950 N.3    48  LEU48      -0.1231
     34  CA        48.8980    1.0260    4.4010 C.3    48  LEU48       0.1693
     35  C         50.3470    1.1470    4.0080 C.2    48  LEU48       0.2592
     36  O         50.8640    2.2510    3.8610 O.2    48  LEU48      -0.2718
     37  CB        48.7870    0.8440    5.9140 C.3    48  LEU48       0.0284
     38  CG        47.3990    1.0340    6.5410 C.3    48  LEU48       0.0019
     39  CD1       47.4590    0.6190    8.0140 C.3    48  LEU48       0.0001
     40  CD2       46.9310    2.4940    6.3970 C.3    48  LEU48       0.0001
     41  N         50.9960    0.0050    3.8260 N.am   49  SER49      -0.1952
     42  CA        52.3960   -0.0030    3.4710 C.3    49  SER49       0.1924
     43  C         52.6360    0.5090    2.0770 C.2    49  SER49       0.2314
     44  O         53.5890    1.2590    1.8460 O.2    49  SER49      -0.2863
     45  CB        52.9790   -1.4080    3.6190 C.3    49  SER49       0.2116
     46  OG        53.5570   -1.5620    4.9090 O.3    49  SER49      -0.2180
     47  N         52.3120    4.2980    2.1670 N.3    52  VAL52      -0.1245
     48  CA        53.4900    4.9890    2.6390 C.3    52  VAL52       0.1561
     49  C         54.5970    4.9630    1.5910 C.2    52  VAL52       0.2260
     50  O         55.3060    5.9530    1.4110 O.2    52  VAL52      -0.2867
     51  CB        54.0080    4.3540    3.9450 C.3    52  VAL52       0.0252
     52  CG1       55.3850    4.8960    4.2930 C.3    52  VAL52       0.0019
     53  CG2       53.0180    4.6320    5.0670 C.3    52  VAL52       0.0019
     54  N         43.3290    2.5490    8.1500 N.3    94  LEU94      -0.1245
     55  CA        44.2720    2.8120    9.2280 C.3    94  LEU94       0.1561
     56  C         43.6370    2.6500   10.5920 C.2    94  LEU94       0.2260
     57  O         44.2880    2.2640   11.5520 O.2    94  LEU94      -0.2867
     58  CB        44.8530    4.2200    9.0850 C.3    94  LEU94       0.0270
     59  CG        45.6830    4.7300   10.2620 C.3    94  LEU94       0.0019
     60  CD1       46.8780    3.8280   10.4890 C.3    94  LEU94       0.0001
     61  CD2       46.1400    6.1470    9.9810 C.3    94  LEU94       0.0001
     62  N         43.0820   -1.2860   11.0660 N.3    97  HIS97      -0.1226
     63  CA        44.3480   -1.9140   11.3960 C.3    97  HIS97       0.1752
     64  C         44.8510   -1.5710   12.7830 C.2    97  HIS97       0.2596
     65  O         45.4590   -2.4240   13.4500 O.2    97  HIS97      -0.2718
     66  CB        45.3990   -1.5110   10.3820 C.3    97  HIS97       0.0759
     67  CG        46.6760   -2.2820   10.4840 C.ar   97  HIS97       0.0818
     68  ND1       46.8660   -3.5010    9.8650 N.ar   97  HIS97      -0.2268
     69  CD2       47.8510   -1.9820   11.0910 C.ar   97  HIS97       0.1154
     70  CE1       48.1070   -3.9120   10.0820 C.ar   97  HIS97       0.1986
     71  NE2       48.7270   -3.0060   10.8230 N.ar   97  HIS97      -0.2212
     72  N         44.6270   -0.3170   13.1990 N.am   98  THR98      -0.1953
     73  CA        45.0620    0.1690   14.5020 C.3    98  THR98       0.1897
     74  C         44.3100   -0.5080   15.6390 C.2    98  THR98       0.2313
     75  O         44.9140   -1.0250   16.5950 O.2    98  THR98      -0.2863
     76  CB        44.8640    1.7010   14.6200 C.3    98  THR98       0.1794
     77  OG1       45.7170    2.3570   13.6710 O.3    98  THR98      -0.2208
     78  CG2       45.2290    2.1900   16.0560 C.3    98  THR98       0.0378
     79  N         44.9260   -4.1880   15.5090 N.3   101  GLY101     -0.1210
     80  CA        46.3050   -4.4010   15.9080 C.3   101  GLY101      0.1956
     81  C         46.3900   -4.4780   17.4210 C.2   101  GLY101      0.2611
     82  O         47.1290   -5.2810   17.9610 O.2   101  GLY101     -0.2717
     83  N         45.6560   -3.6160   18.1120 N.am  102  ILE102     -0.1979
     84  CA        45.6540   -3.6280   19.5700 C.3   102  ILE102      0.1595
     85  C         45.0520   -4.9620   20.0150 C.2   102  ILE102      0.2287
     86  O         45.4940   -5.5520   21.0010 O.2   102  ILE102     -0.2864
     87  CB        44.8160   -2.4590   20.1380 C.3   102  ILE102      0.0276
     88  CG1       45.5650   -1.1340   19.9260 C.3   102  ILE102      0.0022
     89  CG2       44.5370   -2.6640   21.6200 C.3   102  ILE102      0.0022
     90  CD1       44.7290    0.0970   20.2780 C.3   102  ILE102      0.0001
     91  N         45.3230   -7.7850   18.5030 N.3   104  HIS104     -0.1226
     92  CA        46.4250   -8.7320   18.3860 C.3   104  HIS104      0.1752
     93  C         47.4280   -8.6340   19.5330 C.2   104  HIS104      0.2595
     94  O         47.9000   -9.6580   20.0250 O.2   104  HIS104     -0.2718
     95  CB        47.1820   -8.5240   17.0840 C.3   104  HIS104      0.0759
     96  CG        46.6300   -9.3080   15.9390 C.ar  104  HIS104      0.0818
     97  ND1       46.9740  -10.6220   15.7050 N.ar  104  HIS104     -0.2268
     98  CD2       45.7570   -8.9630   14.9610 C.ar  104  HIS104      0.1154
     99  CE1       46.3370  -11.0490   14.6280 C.ar  104  HIS104      0.1986
    100  NE2       45.5910  -10.0640   14.1570 N.ar  104  HIS104     -0.2212
    101  N         47.7820   -7.4180   19.9410 N.am  105  LEU105     -0.1980
    102  CA        48.7510   -7.2710   21.0240 C.3   105  LEU105      0.1596
    103  C         48.2000   -7.7940   22.3580 C.2   105  LEU105      0.2287
    104  O         48.9520   -8.2600   23.2070 O.2   105  LEU105     -0.2864
    105  CB        49.1950   -5.8110   21.1590 C.3   105  LEU105      0.0297
    106  CG        50.0340   -5.2620   19.9960 C.3   105  LEU105      0.0022
    107  CD1       50.1630   -3.7440   20.1240 C.3   105  LEU105      0.0001
    108  CD2       51.3920   -5.9170   19.9960 C.3   105  LEU105      0.0001
    109  N         48.7540  -11.4360   22.1970 N.3   108  ASP108     -0.1239
    110  CA        50.1420  -11.7640   22.4410 C.3   108  ASP108      0.1674
    111  C         50.4570  -11.7130   23.9390 C.2   108  ASP108      0.2266
    112  O         51.4450  -12.2810   24.3760 O.2   108  ASP108     -0.2867
    113  CB        51.0520  -10.8430   21.6440 C.3   108  ASP108      0.1410
    114  CG        50.9120  -11.0540   20.1260 C.2   108  ASP108      0.3668
    115  OD1       50.5420  -12.1790   19.6930 O.co2 108  ASP108     -0.2456
    116  OD2       51.1830  -10.0890   19.3690 O.co2 108  ASP108     -0.2456
@<TRIPOS>BOND
     1    31    30    1
     2    50    49    2
     3    49    48    1
     4    29    28    2
     5    44    43    2
     6    43    42    1
     7    30    32    1
     8    30    27    1
     9    47    48    1
    10    28    27    1
    11    48    51    1
    12    27    26    1
    13    42    45    1
    14    42    41    1
    15    45    46    1
    16    33    34    1
    17    41    35   am
    18    36    35    2
    19    51    52    1
    20    51    53    1
    21    35    34    1
    22    26    24   am
    23    34    37    1
    24    14    13    2
    25    17    16    1
    26    17    18    1
    27    16    15    1
    28    25    24    2
    29    24    23    1
    30    13    12    1
    31    20    19    1
    32    37    38    1
    33    18    19    2
    34    15    12    1
    35    19    21    1
    36    22    23    1
    37    40    38    1
    38    12    11    1
    39    38    39    1
    40    11     3   am
    41     4     3    2
    42     3     2    1
    43    54    55    1
    44     1     2    1
    45     2     5    1
    46    58    55    1
    47    58    59    1
    48    55    56    1
    49    68    70   ar
    50    68    67   ar
    51    61    59    1
    52    70    71   ar
    53    59    60    1
    54     5     6    1
    55    66    67    1
    56    66    63    1
    57    67    69   ar
    58    56    57    2
    59    71    69   ar
    60    62    63    1
    61     6     7   ar
    62     6     8   ar
    63     7     9   ar
    64    63    64    1
    65     8    10   ar
    66     9    10   ar
    67    64    72   am
    68    64    65    2
    69    72    73    1
    70    77    76    1
    71   100    99   ar
    72   100    98   ar
    73    73    76    1
    74    73    74    1
    75    76    78    1
    76    99    97   ar
    77    98    96   ar
    78    79    80    1
    79    74    75    2
    80    97    96   ar
    81    80    81    1
    82    96    95    1
    83    95    92    1
    84    81    82    2
    85    81    83   am
    86    83    84    1
    87    92    91    1
    88    92    93    1
    89   116   114   ar
    90    93   101   am
    91    93    94    2
    92    84    85    1
    93    84    87    1
    94   115   114   ar
    95    88    87    1
    96    88    90    1
    97   101   102    1
    98   108   106    1
    99   106   107    1
   100   106   105    1
   101    85    86    2
   102   114   113    1
   103    87    89    1
   104   102   105    1
   105   102   103    1
   106   113   110    1
   107   109   110    1
   108   103   104    2
   109   110   111    1
   110   111   112    2
