@<TRIPOS>MOLECULE
tmp/2wr2B00.pdb
 124 117 0 0 0
SMALL
GASTEIGER

@<TRIPOS>ATOM
      1  N        -13.4580  -19.6470    5.1850 N.3    91  TYR91      -0.1241
      2  CA       -13.0240  -20.1160    3.8860 C.3    91  TYR91       0.1605
      3  C        -11.7260  -19.3900    3.5850 C.2    91  TYR91       0.2264
      4  O        -11.6790  -18.1660    3.6230 O.2    91  TYR91      -0.2867
      5  CB       -14.0660  -19.8750    2.7920 C.3    91  TYR91       0.0534
      6  CG       -13.7230  -20.6690    1.5500 C.ar   91  TYR91      -0.0201
      7  CD1      -14.3730  -21.8660    1.2540 C.ar   91  TYR91      -0.0009
      8  CD2      -12.6960  -20.2500    0.7050 C.ar   91  TYR91      -0.0009
      9  CE1      -14.0320  -22.6020    0.1280 C.ar   91  TYR91       0.0417
     10  CE2      -12.3460  -20.9740   -0.4120 C.ar   91  TYR91       0.0417
     11  CZ       -13.0120  -22.1460   -0.7020 C.ar   91  TYR91       0.1957
     12  OH       -12.6430  -22.8500   -1.8280 O.3    91  TYR91      -0.2866
     13  N        -24.7580  -22.1690   -2.2650 N.3   129  GLY129     -0.1210
     14  CA       -23.3990  -22.6830   -2.2430 C.3   129  GLY129      0.1956
     15  C        -22.7640  -22.4970   -0.8770 C.2   129  GLY129      0.2612
     16  O        -22.8200  -21.4090   -0.3040 O.2   129  GLY129     -0.2717
     17  N        -22.1700  -23.5610   -0.3470 N.am  130  GLY130     -0.1942
     18  CA       -21.5470  -23.4960    0.9620 C.3   130  GLY130      0.2014
     19  C        -20.2450  -24.2650    1.0270 C.2   130  GLY130      0.2640
     20  O        -19.8090  -24.8440    0.0320 O.2   130  GLY130     -0.2714
     21  N        -19.6240  -24.2770    2.2020 N.am  131  SER131     -0.1935
     22  CA       -18.3540  -24.9750    2.3820 C.3   131  SER131      0.2055
     23  C        -18.2480  -25.6390    3.7460 C.2   131  SER131      0.2642
     24  O        -18.8110  -25.1560    4.7260 O.2   131  SER131     -0.2714
     25  CB       -17.1780  -24.0110    2.1910 C.3   131  SER131      0.2130
     26  OG       -15.9690  -24.5860    2.6640 O.3   131  SER131     -0.2179
     27  N        -17.5060  -26.7400    3.8060 N.am  132  ARG132     -0.1977
     28  CA       -17.2910  -27.4510    5.0630 C.3   132  ARG132      0.1597
     29  C        -16.2970  -26.7090    5.9620 C.2   132  ARG132      0.2287
     30  O        -16.1600  -27.0220    7.1450 O.2   132  ARG132     -0.2864
     31  CB       -16.8230  -28.8820    4.7900 C.3   132  ARG132      0.0334
     32  CG       -16.8700  -29.7990    5.9950 C.3   132  ARG132      0.0492
     33  CD       -17.0300  -31.2550    5.5750 C.3   132  ARG132      0.2205
     34  NE       -18.4010  -31.5690    5.1810 N.pl3 132  ARG132     -0.0865
     35  CZ       -19.3240  -32.0420    6.0120 C.cat 132  ARG132      0.5346
     36  NH1      -19.0210  -32.2590    7.2860 N.pl3 132  ARG132      0.1354
     37  NH2      -20.5490  -32.3010    5.5710 N.pl3 132  ARG132      0.1354
     38  N        -22.2610  -28.0850    5.4350 N.3   140  PRO140     -0.2116
     39  CA       -21.6730  -26.9860    4.6640 C.3   140  PRO140      0.1372
     40  C        -22.4410  -25.6780    4.8870 C.2   140  PRO140      0.2244
     41  O        -23.6620  -25.6500    4.7270 O.2   140  PRO140     -0.2868
     42  CB       -21.8400  -27.4560    3.2180 C.3   140  PRO140      0.0268
     43  CG       -21.8150  -28.9470    3.3090 C.3   140  PRO140      0.0207
     44  CD       -22.4500  -29.3020    4.6250 C.3   140  PRO140      0.0892
     45  N        -23.3960  -19.7810   -7.9150 N.3   149  THR149     -0.1218
     46  CA       -22.9880  -20.9500   -8.6890 C.3   149  THR149      0.1862
     47  C        -24.0500  -21.2100   -9.7480 C.2   149  THR149      0.2287
     48  O        -25.1390  -20.6390   -9.6920 O.2   149  THR149     -0.2866
     49  CB       -22.8290  -22.2040   -7.8110 C.3   149  THR149      0.1770
     50  OG1      -24.0370  -22.4300   -7.0740 O.3   149  THR149     -0.2211
     51  CG2      -21.6830  -22.0330   -6.8320 C.3   149  THR149      0.0375
     52  N        -13.6720  -16.0500   -6.2540 N.3   177  HIS177     -0.1241
     53  CA       -13.2250  -17.3980   -5.9200 C.3   177  HIS177      0.1621
     54  C        -12.1070  -17.9030   -6.8440 C.2   177  HIS177      0.2264
     55  O        -12.2530  -17.8870   -8.0700 O.2   177  HIS177     -0.2867
     56  CB       -14.4060  -18.3620   -5.9780 C.3   177  HIS177      0.0745
     57  CG       -14.0410  -19.7790   -5.6850 C.ar  177  HIS177      0.0817
     58  ND1      -13.4970  -20.1720   -4.4800 N.ar  177  HIS177     -0.2268
     59  CD2      -14.1520  -20.9020   -6.4320 C.ar  177  HIS177      0.1154
     60  CE1      -13.2830  -21.4750   -4.5000 C.ar  177  HIS177      0.1986
     61  NE2      -13.6750  -21.9420   -5.6740 N.ar  177  HIS177     -0.2212
     62  N         -9.5900  -24.7340   -7.5010 N.3   180  ASN180     -0.1225
     63  CA        -8.4610  -25.6400   -7.3890 C.3   180  ASN180      0.1785
     64  C         -7.9880  -26.1320   -8.7600 C.2   180  ASN180      0.2597
     65  O         -6.7860  -26.2610   -9.0020 O.2   180  ASN180     -0.2718
     66  CB        -8.8470  -26.8310   -6.5100 C.3   180  ASN180      0.1169
     67  CG        -7.7420  -27.2370   -5.5610 C.2   180  ASN180      0.2627
     68  OD1       -7.3130  -26.4470   -4.7270 O.2   180  ASN180     -0.2716
     69  ND2       -7.2830  -28.4800   -5.6740 N.am  180  ASN180     -0.0877
     70  N         -8.9370  -26.4020   -9.6530 N.am  181  ASP181     -0.1974
     71  CA        -8.6160  -26.9000  -10.9880 C.3   181  ASP181      0.1709
     72  C         -9.6970  -26.5280  -11.9960 C.2   181  ASP181      0.2293
     73  O        -10.6960  -25.9040  -11.6430 O.2   181  ASP181     -0.2864
     74  CB        -8.4140  -28.4170  -10.9590 C.3   181  ASP181      0.1436
     75  CG        -9.6220  -29.1550  -10.4160 C.2   181  ASP181      0.3671
     76  OD1      -10.7340  -28.9420  -10.9440 O.co2 181  ASP181     -0.2456
     77  OD2       -9.4590  -29.9510   -9.4640 O.co2 181  ASP181     -0.2456
     78  N        -13.2720  -28.0910  -11.5040 N.3   184  GLU184     -0.1245
     79  CA       -13.9680  -27.4410  -10.4020 C.3   184  GLU184      0.1567
     80  C        -14.5930  -26.1250  -10.8610 C.2   184  GLU184      0.2260
     81  O        -15.7210  -25.7950  -10.4980 O.2   184  GLU184     -0.2867
     82  CB       -12.9880  -27.2170   -9.2500 C.3   184  GLU184      0.0388
     83  CG       -13.5250  -26.4200   -8.0800 C.3   184  GLU184      0.1160
     84  CD       -12.6560  -26.5800   -6.8500 C.2   184  GLU184      0.3649
     85  OE1      -12.6920  -27.6730   -6.2380 O.co2 184  GLU184     -0.2457
     86  OE2      -11.9340  -25.6240   -6.4970 O.co2 184  GLU184     -0.2457
     87  N        -18.6940  -25.6260  -10.9960 N.3   188  LEU188     -0.1245
     88  CA       -19.2680  -24.5690  -10.1650 C.3   188  LEU188      0.1561
     89  C        -19.9220  -23.4680  -10.9920 C.2   188  LEU188      0.2260
     90  O        -21.0000  -22.9800  -10.6500 O.2   188  LEU188     -0.2867
     91  CB       -18.1970  -23.9450   -9.2730 C.3   188  LEU188      0.0270
     92  CG       -17.6880  -24.7570   -8.0880 C.3   188  LEU188      0.0019
     93  CD1      -16.7500  -23.9050   -7.2460 C.3   188  LEU188      0.0001
     94  CD2      -18.8610  -25.2230   -7.2660 C.3   188  LEU188      0.0001
     95  N         -4.1940  -27.6100    1.4140 N.3   216  LYS216     -0.1245
     96  CA        -5.4950  -27.4020    2.0220 C.3   216  LYS216      0.1561
     97  C         -5.3690  -26.5770    3.2890 C.2   216  LYS216      0.2260
     98  O         -4.4450  -26.7640    4.0760 O.2   216  LYS216     -0.2867
     99  CB        -6.1780  -28.7410    2.2960 C.3   216  LYS216      0.0271
    100  CG        -6.8850  -29.2940    1.0660 C.3   216  LYS216      0.0035
    101  CD        -6.9050  -30.8190    1.0170 C.3   216  LYS216      0.0206
    102  CE        -7.3440  -31.2980   -0.3710 C.3   216  LYS216      0.1093
    103  NZ        -6.8680  -32.6780   -0.6920 N.3   216  LYS216     -0.1314
    104  N         -9.2930  -27.5410    5.2190 N.3   219  GLY219     -0.1210
    105  CA        -9.7690  -28.6020    4.3480 C.3   219  GLY219      0.1956
    106  C         -9.9620  -28.2090    2.8940 C.2   219  GLY219      0.2612
    107  O        -10.4330  -29.0170    2.0940 O.2   219  GLY219     -0.2717
    108  N         -9.5950  -26.9790    2.5400 N.am  220  GLN220     -0.1965
    109  CA        -9.8840  -26.4870    1.1960 C.3   220  GLN220      0.1733
    110  C         -8.6630  -25.9500    0.4500 C.2   220  GLN220      0.2617
    111  O         -7.8960  -25.1620    0.9940 O.2   220  GLN220     -0.2715
    112  CB       -10.9780  -25.4230    1.2590 C.3   220  GLN220      0.0408
    113  CG       -12.2590  -25.9300    1.8780 C.3   220  GLN220      0.0908
    114  CD       -12.9550  -26.9420    0.9940 C.2   220  GLN220      0.2608
    115  OE1      -12.9780  -26.8000   -0.2310 O.2   220  GLN220     -0.2717
    116  NE2      -13.5280  -27.9740    1.6100 N.am  220  GLN220     -0.0878
    117  N         -8.4980  -26.3770   -0.8010 N.am  221  GLY221     -0.1940
    118  CA        -7.4090  -25.9010   -1.6370 C.3   221  GLY221      0.2014
    119  C         -7.7400  -24.6170   -2.3790 C.2   221  GLY221      0.2639
    120  O         -6.8570  -23.9500   -2.9280 O.2   221  GLY221     -0.2714
    121  N         -9.0250  -24.2740   -2.4110 N.am  222  GLY222     -0.1954
    122  CA        -9.4740  -23.0710   -3.0820 C.3   222  GLY222      0.1869
    123  C         -9.2710  -21.8430   -2.2180 C.2   222  GLY222      0.2309
    124  O         -9.0960  -21.9410   -1.0030 O.2   222  GLY222     -0.2863
@<TRIPOS>BOND
     1    72    73    2
     2    72    71    1
     3    78    79    1
     4    87    88    1
     5    89    90    2
     6    89    88    1
     7    71    74    1
     8    71    70    1
     9    74    75    1
    10    76    75   ar
    11    80    81    2
    12    80    79    1
    13    75    77   ar
    14    79    82    1
    15    88    91    1
    16    47    48    2
    17    47    46    1
    18    70    64   am
    19    91    92    1
    20    82    83    1
    21    65    64    2
    22    64    63    1
    23    46    45    1
    24    46    49    1
    25    92    94    1
    26    92    93    1
    27    83    84    1
    28    55    54    2
    29    49    50    1
    30    49    51    1
    31    62    63    1
    32    63    66    1
    33    84    86   ar
    34    84    85   ar
    35    54    53    1
    36    66    67    1
    37    59    57   ar
    38    59    61   ar
    39    52    53    1
    40    56    53    1
    41    56    57    1
    42    57    58   ar
    43    69    67   am
    44    61    60   ar
    45    67    68    2
    46    60    58   ar
    47   122   121    1
    48   122   123    1
    49   120   119    2
    50   121   119   am
    51   119   118    1
    52    13    14    1
    53    14    15    1
    54   123   124    2
    55    12    11    1
    56   118   117    1
    57    15    17   am
    58    15    16    2
    59   117   110   am
    60    11    10   ar
    61    11     9   ar
    62   103   102    1
    63    10     8   ar
    64   102   101    1
    65    17    18    1
    66   115   114    2
    67    20    19    2
    68     9     7   ar
    69   110   111    2
    70   110   109    1
    71     8     6   ar
    72    18    19    1
    73   114   116   am
    74   114   113    1
    75   101   100    1
    76    19    21   am
    77   100    99    1
    78   109   112    1
    79   109   108    1
    80     7     6   ar
    81   112   113    1
    82    95    96    1
    83     6     5    1
    84    96    99    1
    85    96    97    1
    86   107   106    2
    87    25    22    1
    88    25    26    1
    89    21    22    1
    90    22    23    1
    91   108   106   am
    92     5     2    1
    93   106   105    1
    94    42    43    1
    95    42    39    1
    96    97    98    2
    97    43    44    1
    98     3     4    2
    99     3     2    1
   100    23    27   am
   101    23    24    2
   102    27    28    1
   103     2     1    1
   104   105   104    1
   105    44    38    1
   106    39    40    1
   107    39    38    1
   108    41    40    2
   109    31    28    1
   110    31    32    1
   111    28    29    1
   112    34    33    1
   113    34    35    2
   114    37    35    1
   115    33    32    1
   116    29    30    2
   117    35    36    1
