@<TRIPOS>MOLECULE
tmp/2wr3A00.pdb
 116 109 0 0 0
SMALL
GASTEIGER

@<TRIPOS>ATOM
      1  N         36.4700   27.0370  -19.9180 N.3    90  TYR90      -0.1241
      2  CA        35.1430   27.6000  -20.1610 C.3    90  TYR90       0.1605
      3  C         34.3210   27.4140  -18.8810 C.2    90  TYR90       0.2264
      4  O         34.2420   26.3110  -18.3540 O.2    90  TYR90      -0.2867
      5  CB        34.4490   26.9400  -21.3580 C.3    90  TYR90       0.0534
      6  CG        33.2750   27.7410  -21.8730 C.ar   90  TYR90      -0.0201
      7  CD1       33.4030   28.5630  -22.9840 C.ar   90  TYR90      -0.0009
      8  CD2       32.0430   27.6900  -21.2390 C.ar   90  TYR90      -0.0009
      9  CE1       32.3430   29.3090  -23.4540 C.ar   90  TYR90       0.0417
     10  CE2       30.9730   28.4420  -21.6900 C.ar   90  TYR90       0.0417
     11  CZ        31.1230   29.2530  -22.8060 C.ar   90  TYR90       0.1957
     12  OH        30.0560   29.9990  -23.2840 O.3    90  TYR90      -0.2866
     13  N         33.3850   25.0160  -33.3240 N.3   128  GLY128     -0.1210
     14  CA        33.0950   26.0650  -32.3730 C.3   128  GLY128      0.1956
     15  C         34.1640   26.0440  -31.3030 C.2   128  GLY128      0.2612
     16  O         34.6390   24.9750  -30.9190 O.2   128  GLY128     -0.2717
     17  N         34.5580   27.2240  -30.8380 N.am  129  GLY129     -0.1942
     18  CA        35.5280   27.3520  -29.7640 C.3   129  GLY129      0.2014
     19  C         35.2480   28.6160  -28.9810 C.2   129  GLY129      0.2640
     20  O         34.2050   29.2400  -29.1600 O.2   129  GLY129     -0.2714
     21  N         36.1750   29.0050  -28.1170 N.am  130  SER130     -0.1935
     22  CA        35.9710   30.1970  -27.3070 C.3   130  SER130      0.2055
     23  C         37.3050   30.8010  -26.9490 C.2   130  SER130      0.2642
     24  O         38.3090   30.1050  -26.9030 O.2   130  SER130     -0.2714
     25  CB        35.1810   29.8500  -26.0380 C.3   130  SER130      0.2130
     26  OG        35.3360   30.8370  -25.0230 O.3   130  SER130     -0.2179
     27  N         37.3210   32.1020  -26.7050 N.am  131  ARG131     -0.1977
     28  CA        38.5450   32.7560  -26.2920 C.3   131  ARG131      0.1597
     29  C         38.8660   32.3750  -24.8470 C.2   131  ARG131      0.2287
     30  O         39.9690   32.6100  -24.3650 O.2   131  ARG131     -0.2864
     31  CB        38.4090   34.2690  -26.4260 C.3   131  ARG131      0.0334
     32  CG        39.6780   34.9630  -26.8680 C.3   131  ARG131      0.0492
     33  CD        39.9300   34.7570  -28.3540 C.3   131  ARG131      0.2205
     34  NE        39.1130   35.6420  -29.1750 N.pl3 131  ARG131     -0.0865
     35  CZ        39.2700   35.7980  -30.4830 C.cat 131  ARG131      0.5346
     36  NH1       40.2150   35.1260  -31.1200 N.pl3 131  ARG131      0.1354
     37  NH2       38.4850   36.6260  -31.1530 N.pl3 131  ARG131      0.1354
     38  N         40.4170   31.2820  -30.5990 N.3   139  PRO139     -0.2116
     39  CA        39.4560   30.4490  -29.8680 C.3   139  PRO139      0.1372
     40  C         39.8990   28.9970  -29.9800 C.2   139  PRO139      0.2244
     41  O         40.3310   28.5670  -31.0490 O.2   139  PRO139     -0.2868
     42  CB        38.1330   30.6440  -30.6310 C.3   139  PRO139      0.0268
     43  CG        38.3280   31.8450  -31.4920 C.3   139  PRO139      0.0207
     44  CD        39.8000   32.0380  -31.7040 C.3   139  PRO139      0.0892
     45  N         27.3870   22.7810  -33.2400 N.3   148  THR148     -0.1218
     46  CA        26.5870   23.9750  -33.5310 C.3   148  THR148      0.1862
     47  C         25.9450   23.9180  -34.9260 C.2   148  THR148      0.2287
     48  O         26.2970   23.0690  -35.7570 O.2   148  THR148     -0.2866
     49  CB        27.4390   25.2290  -33.4680 C.3   148  THR148      0.1770
     50  OG1       28.6080   25.0150  -34.2560 O.3   148  THR148     -0.2211
     51  CG2       27.8540   25.5240  -32.0430 C.3   148  THR148      0.0375
     52  N         25.4680   23.1950  -22.9710 N.3   176  HIS176     -0.1241
     53  CA        25.8730   24.5980  -22.9270 C.3   176  HIS176      0.1621
     54  C         24.6720   25.4560  -22.5900 C.2   176  HIS176      0.2264
     55  O         23.5610   25.1300  -22.9750 O.2   176  HIS176     -0.2867
     56  CB        26.4820   25.0320  -24.2750 C.3   176  HIS176      0.0745
     57  CG        26.6920   26.5120  -24.3980 C.ar  176  HIS176      0.0817
     58  ND1       25.9330   27.3080  -25.2280 N.ar  176  HIS176     -0.2268
     59  CD2       27.5760   27.3400  -23.7890 C.ar  176  HIS176      0.1154
     60  CE1       26.3390   28.5620  -25.1280 C.ar  176  HIS176      0.1986
     61  NE2       27.3310   28.6090  -24.2570 N.ar  176  HIS176     -0.2212
     62  N         23.7960   33.0840  -23.1460 N.3   179  ASN179     -0.1240
     63  CA        23.4780   34.2550  -22.3240 C.3   179  ASN179      0.1653
     64  C         22.0140   34.6970  -22.2810 C.2   179  ASN179      0.2266
     65  O         21.5710   35.3030  -21.3020 O.2   179  ASN179     -0.2867
     66  CB        24.3300   35.4360  -22.7720 C.3   179  ASN179      0.1155
     67  CG        25.6610   35.4770  -22.0780 C.2   179  ASN179      0.2627
     68  OD1       26.6650   35.0080  -22.6150 O.2   179  ASN179     -0.2716
     69  ND2       25.6840   36.0300  -20.8690 N.am  179  ASN179     -0.0877
     70  N         21.3930   34.5050  -28.6320 N.3   183  GLU183     -0.1245
     71  CA        22.6080   33.7020  -28.6780 C.3   183  GLU183      0.1567
     72  C         22.2600   32.2220  -28.8370 C.2   183  GLU183      0.2260
     73  O         22.9500   31.4740  -29.5290 O.2   183  GLU183     -0.2867
     74  CB        23.4120   33.9490  -27.4020 C.3   183  GLU183      0.0388
     75  CG        24.7380   33.2260  -27.2940 C.3   183  GLU183      0.1160
     76  CD        25.5140   33.6470  -26.0490 C.2   183  GLU183      0.3649
     77  OE1       26.0100   34.7970  -26.0100 O.co2 183  GLU183     -0.2457
     78  OE2       25.6280   32.8280  -25.1080 O.co2 183  GLU183     -0.2457
     79  N         23.1000   30.1010  -32.3380 N.3   187  LEU187     -0.1245
     80  CA        23.9510   28.9280  -32.1700 C.3   187  LEU187      0.1561
     81  C         23.2620   27.6050  -32.4820 C.2   187  LEU187      0.2260
     82  O         23.8930   26.7050  -33.0250 O.2   187  LEU187     -0.2867
     83  CB        24.5500   28.8760  -30.7630 C.3   187  LEU187      0.0270
     84  CG        26.0410   29.1750  -30.5630 C.3   187  LEU187      0.0019
     85  CD1       26.3550   30.5900  -30.9520 C.3   187  LEU187      0.0001
     86  CD2       26.4770   28.9390  -29.1310 C.3   187  LEU187      0.0001
     87  N         30.5930   37.9370  -16.5290 N.3   215  LYS215     -0.1245
     88  CA        31.5420   37.1960  -17.3250 C.3   215  LYS215      0.1561
     89  C         32.5840   36.5420  -16.4230 C.2   215  LYS215      0.2260
     90  O         33.0670   37.1510  -15.4670 O.2   215  LYS215     -0.2867
     91  CB        32.1630   38.1030  -18.3920 C.3   215  LYS215      0.0271
     92  CG        31.1330   38.5410  -19.4250 C.3   215  LYS215      0.0035
     93  CD        31.6070   39.6550  -20.3390 C.3   215  LYS215      0.0206
     94  CE        30.4820   40.0370  -21.3030 C.3   215  LYS215      0.1093
     95  NZ        30.6750   41.3490  -21.9790 N.3   215  LYS215     -0.1314
     96  N         35.7610   36.0670  -19.4700 N.3   218  GLY218     -0.1210
     97  CA        35.2020   36.8050  -20.5880 C.3   218  GLY218      0.1956
     98  C         33.9150   36.2250  -21.1440 C.2   218  GLY218      0.2612
     99  O         33.3610   36.7540  -22.1030 O.2   218  GLY218     -0.2717
    100  N         33.4300   35.1420  -20.5400 N.am  219  GLN219     -0.1965
    101  CA        32.2310   34.4690  -21.0320 C.3   219  GLN219      0.1733
    102  C         31.0320   34.5610  -20.0860 C.2   219  GLN219      0.2617
    103  O         31.1600   34.4300  -18.8700 O.2   219  GLN219     -0.2715
    104  CB        32.5420   33.0060  -21.3640 C.3   219  GLN219      0.0408
    105  CG        33.5470   32.8540  -22.4840 C.3   219  GLN219      0.0908
    106  CD        33.2650   33.7990  -23.6370 C.2   219  GLN219      0.2608
    107  OE1       32.1520   33.8460  -24.1600 O.2   219  GLN219     -0.2717
    108  NE2       34.2770   34.5600  -24.0350 N.am  219  GLN219     -0.0878
    109  N         29.8570   34.7920  -20.6500 N.am  220  GLY220     -0.1940
    110  CA        28.6460   34.7680  -19.8590 C.3   220  GLY220      0.2014
    111  C         28.0160   33.3890  -19.8910 C.2   220  GLY220      0.2639
    112  O         27.2700   33.0160  -18.9820 O.2   220  GLY220     -0.2714
    113  N         28.3060   32.6410  -20.9530 N.am  221  GLY221     -0.1954
    114  CA        27.7920   31.2950  -21.1140 C.3   221  GLY221      0.1869
    115  C         28.3580   30.3900  -20.0440 C.2   221  GLY221      0.2309
    116  O         29.3270   30.7520  -19.3910 O.2   221  GLY221     -0.2863
@<TRIPOS>BOND
     1    48    47    2
     2    47    46    1
     3    50    49    1
     4    46    49    1
     5    46    45    1
     6    49    51    1
     7    13    14    1
     8    82    81    2
     9    81    80    1
    10    14    15    1
    11    79    80    1
    12    80    83    1
    13    44    43    1
    14    44    38    1
    15    43    42    1
    16    15    16    2
    17    15    17   am
    18    37    35    1
    19    36    35    1
    20    41    40    2
    21    85    84    1
    22    17    18    1
    23    83    84    1
    24    42    39    1
    25    38    39    1
    26    84    86    1
    27    35    34    2
    28    40    39    1
    29    18    19    1
    30    73    72    2
    31    34    33    1
    32    20    19    2
    33    19    21   am
    34    72    71    1
    35    71    70    1
    36    71    74    1
    37    33    32    1
    38    21    22    1
    39    74    75    1
    40    22    23    1
    41    22    25    1
    42    75    76    1
    43    23    24    2
    44    23    27   am
    45    32    31    1
    46    27    28    1
    47    31    28    1
    48    28    29    1
    49    76    77   ar
    50    76    78   ar
    51    25    26    1
    52    58    60   ar
    53    58    57   ar
    54    60    61   ar
    55    29    30    2
    56    57    56    1
    57    57    59   ar
    58    56    53    1
    59    61    59   ar
    60   107   106    2
    61   108   106   am
    62   106   105    1
    63     9     7   ar
    64     9    11   ar
    65    12    11    1
    66    62    63    1
    67     7     6   ar
    68    55    54    2
    69    52    53    1
    70    53    54    1
    71    11    10   ar
    72    66    63    1
    73    66    67    1
    74    68    67    2
    75   105   104    1
    76    63    64    1
    77    64    65    2
    78    99    98    2
    79    67    69   am
    80    95    94    1
    81     6     5    1
    82     6     8   ar
    83    10     8   ar
    84   104   101    1
    85     5     2    1
    86    94    93    1
    87    98    97    1
    88    98   100   am
    89   114   113    1
    90   114   115    1
    91   101   100    1
    92   101   102    1
    93   113   111   am
    94   109   102   am
    95   109   110    1
    96    97    96    1
    97    93    92    1
    98     2     1    1
    99     2     3    1
   100   102   103    2
   101   115   116    2
   102   111   110    1
   103   111   112    2
   104    92    91    1
   105     3     4    2
   106    91    88    1
   107    88    87    1
   108    88    89    1
   109    89    90    2
