@<TRIPOS>MOLECULE
tmp/2wr4A00.pdb
 123 116 0 0 0
SMALL
GASTEIGER

@<TRIPOS>ATOM
      1  N         36.6710   27.3100  -19.9730 N.3    90  TYR90      -0.1241
      2  CA        35.3200   27.8170  -20.2360 C.3    90  TYR90       0.1605
      3  C         34.4990   27.5790  -18.9800 C.2    90  TYR90       0.2264
      4  O         34.3860   26.4530  -18.5180 O.2    90  TYR90      -0.2867
      5  CB        34.6580   27.1460  -21.4450 C.3    90  TYR90       0.0534
      6  CG        33.4950   27.9470  -21.9890 C.ar   90  TYR90      -0.0201
      7  CD1       33.6450   28.7450  -23.1180 C.ar   90  TYR90      -0.0009
      8  CD2       32.2610   27.9390  -21.3560 C.ar   90  TYR90      -0.0009
      9  CE1       32.6040   29.4900  -23.6090 C.ar   90  TYR90       0.0417
     10  CE2       31.2050   28.6950  -21.8420 C.ar   90  TYR90       0.0417
     11  CZ        31.3810   29.4690  -22.9730 C.ar   90  TYR90       0.1957
     12  OH        30.3350   30.2200  -23.4780 O.3    90  TYR90      -0.2866
     13  N         33.8950   24.9850  -33.4010 N.3   128  GLY128     -0.1210
     14  CA        33.4970   25.9770  -32.4220 C.3   128  GLY128      0.1956
     15  C         34.5260   26.0200  -31.3180 C.2   128  GLY128      0.2612
     16  O         35.0040   24.9760  -30.8680 O.2   128  GLY128     -0.2717
     17  N         34.8830   27.2280  -30.8950 N.am  129  GLY129     -0.1942
     18  CA        35.9080   27.4100  -29.8780 C.3   129  GLY129      0.2014
     19  C         35.6330   28.6430  -29.0430 C.2   129  GLY129      0.2640
     20  O         34.5610   29.2350  -29.1380 O.2   129  GLY129     -0.2714
     21  N         36.5980   29.0420  -28.2240 N.am  130  SER130     -0.1935
     22  CA        36.3980   30.2020  -27.3670 C.3   130  SER130      0.2055
     23  C         37.7030   30.8360  -26.9330 C.2   130  SER130      0.2642
     24  O         38.6910   30.1500  -26.7130 O.2   130  SER130     -0.2714
     25  CB        35.5700   29.8240  -26.1370 C.3   130  SER130      0.2130
     26  OG        35.5800   30.8660  -25.1700 O.3   130  SER130     -0.2179
     27  N         37.6880   32.1560  -26.8090 N.am  131  ARG131     -0.1977
     28  CA        38.8430   32.9020  -26.3500 C.3   131  ARG131      0.1597
     29  C         39.1850   32.5290  -24.9120 C.2   131  ARG131      0.2287
     30  O         40.3090   32.7400  -24.4650 O.2   131  ARG131     -0.2864
     31  CB        38.5750   34.4060  -26.4510 C.3   131  ARG131      0.0334
     32  CG        39.8240   35.2760  -26.4960 C.3   131  ARG131      0.0492
     33  CD        40.4230   35.3160  -27.9000 C.3   131  ARG131      0.2205
     34  NE        39.4770   35.8230  -28.8920 N.pl3 131  ARG131     -0.0865
     35  CZ        39.7510   35.9650  -30.1850 C.cat 131  ARG131      0.5346
     36  NH1       40.9480   35.6370  -30.6520 N.pl3 131  ARG131      0.1354
     37  NH2       38.8290   36.4360  -31.0120 N.pl3 131  ARG131      0.1354
     38  N         41.1410   31.4160  -30.5610 N.3   139  PRO139     -0.2116
     39  CA        40.1290   30.6880  -29.7890 C.3   139  PRO139      0.1372
     40  C         40.3110   29.1820  -29.9130 C.2   139  PRO139      0.2244
     41  O         40.4090   28.6610  -31.0250 O.2   139  PRO139     -0.2868
     42  CB        38.8050   31.1050  -30.4510 C.3   139  PRO139      0.0268
     43  CG        39.1230   32.3260  -31.2420 C.3   139  PRO139      0.0207
     44  CD        40.5470   32.1950  -31.6590 C.3   139  PRO139      0.0892
     45  N         27.9490   23.0400  -33.3000 N.3   148  THR148     -0.1218
     46  CA        27.1160   24.1910  -33.6360 C.3   148  THR148      0.1862
     47  C         26.5460   24.0570  -35.0500 C.2   148  THR148      0.2287
     48  O         26.8740   23.1160  -35.7730 O.2   148  THR148     -0.2866
     49  CB        27.8830   25.5150  -33.5080 C.3   148  THR148      0.1770
     50  OG1       28.8820   25.5910  -34.5320 O.3   148  THR148     -0.2211
     51  CG2       28.5450   25.6230  -32.1390 C.3   148  THR148      0.0375
     52  N         25.6750   23.4440  -23.1220 N.3   176  HIS176     -0.1241
     53  CA        26.1040   24.8490  -23.1100 C.3   176  HIS176      0.1621
     54  C         24.9410   25.7540  -22.7400 C.2   176  HIS176      0.2264
     55  O         23.8000   25.4700  -23.0880 O.2   176  HIS176     -0.2867
     56  CB        26.6630   25.2410  -24.4810 C.3   176  HIS176      0.0745
     57  CG        26.9530   26.7060  -24.6300 C.ar  176  HIS176      0.0817
     58  ND1       26.2940   27.5070  -25.5390 N.ar  176  HIS176     -0.2268
     59  CD2       27.8400   27.5110  -23.9960 C.ar  176  HIS176      0.1154
     60  CE1       26.7620   28.7390  -25.4580 C.ar  176  HIS176      0.1986
     61  NE2       27.7020   28.7680  -24.5300 N.ar  176  HIS176     -0.2212
     62  N         24.2450   33.3050  -23.5340 N.3   179  ASN179     -0.1240
     63  CA        24.0110   34.5190  -22.7900 C.3   179  ASN179      0.1653
     64  C         22.6020   35.0830  -22.8910 C.2   179  ASN179      0.2266
     65  O         22.1640   35.8010  -22.0170 O.2   179  ASN179     -0.2867
     66  CB        24.9880   35.5610  -23.2590 C.3   179  ASN179      0.1155
     67  CG        26.1600   35.6750  -22.3770 C.2   179  ASN179      0.2627
     68  OD1       26.0310   35.9600  -21.2020 O.2   179  ASN179     -0.2716
     69  ND2       27.3250   35.4820  -22.9380 N.am  179  ASN179     -0.0877
     70  N         21.8450   34.9310  -29.0910 N.3   183  GLU183     -0.1245
     71  CA        23.1130   34.2080  -29.1530 C.3   183  GLU183      0.1567
     72  C         22.8920   32.7230  -29.4350 C.2   183  GLU183      0.2260
     73  O         23.6140   32.1120  -30.2180 O.2   183  GLU183     -0.2867
     74  CB        23.9050   34.3880  -27.8560 C.3   183  GLU183      0.0388
     75  CG        25.2640   33.7020  -27.8690 C.3   183  GLU183      0.1160
     76  CD        25.9320   33.6780  -26.5060 C.2   183  GLU183      0.3649
     77  OE1       26.3240   34.7500  -26.0030 O.co2 183  GLU183     -0.2457
     78  OE2       26.0780   32.5780  -25.9370 O.co2 183  GLU183     -0.2457
     79  N         22.2350   32.0100  -33.2630 N.3   186  THR186     -0.1203
     80  CA        23.4330   32.1140  -34.0840 C.3   186  THR186      0.1994
     81  C         24.3470   30.9170  -33.8460 C.2   186  THR186      0.2617
     82  O         25.3190   30.7010  -34.5760 O.2   186  THR186     -0.2717
     83  CB        24.1830   33.4470  -33.8530 C.3   186  THR186      0.1784
     84  OG1       25.5970   33.2190  -33.8660 O.3   186  THR186     -0.2211
     85  CG2       23.7970   34.0600  -32.5280 C.3   186  THR186      0.0376
     86  N         24.0220   30.1310  -32.8240 N.am  187  LEU187     -0.1979
     87  CA        24.8060   28.9510  -32.4910 C.3   187  LEU187      0.1596
     88  C         24.0990   27.6480  -32.8350 C.2   187  LEU187      0.2287
     89  O         24.7390   26.7180  -33.3110 O.2   187  LEU187     -0.2864
     90  CB        25.1910   28.9560  -31.0110 C.3   187  LEU187      0.0297
     91  CG        26.6500   29.2440  -30.6450 C.3   187  LEU187      0.0022
     92  CD1       27.3000   30.2000  -31.6240 C.3   187  LEU187      0.0001
     93  CD2       26.7300   29.7830  -29.2330 C.3   187  LEU187      0.0001
     94  N         30.8160   37.9760  -16.1860 N.3   215  LYS215     -0.1245
     95  CA        31.7210   37.3100  -17.0690 C.3   215  LYS215      0.1561
     96  C         32.8200   36.6800  -16.2740 C.2   215  LYS215      0.2260
     97  O         33.3960   37.3030  -15.4160 O.2   215  LYS215     -0.2867
     98  CB        32.3020   38.3040  -18.0500 C.3   215  LYS215      0.0271
     99  CG        31.2790   39.1070  -18.7760 C.3   215  LYS215      0.0035
    100  CD        31.3800   38.9080  -20.2560 C.3   215  LYS215      0.0206
    101  CE        31.5670   40.2070  -20.9890 C.3   215  LYS215      0.1093
    102  NZ        32.2580   39.9920  -22.2990 N.3   215  LYS215     -0.1314
    103  N         35.9340   36.1910  -19.1660 N.3   218  GLY218     -0.1210
    104  CA        35.4050   36.9750  -20.2510 C.3   218  GLY218      0.1956
    105  C         34.1400   36.4400  -20.8440 C.2   218  GLY218      0.2612
    106  O         33.6710   36.9250  -21.8350 O.2   218  GLY218     -0.2717
    107  N         33.5840   35.4160  -20.2390 N.am  219  GLN219     -0.1965
    108  CA        32.4040   34.8140  -20.7880 C.3   219  GLN219      0.1733
    109  C         31.2210   34.9160  -19.8640 C.2   219  GLN219      0.2617
    110  O         31.3650   35.0300  -18.6770 O.2   219  GLN219     -0.2715
    111  CB        32.6820   33.3780  -21.1420 C.3   219  GLN219      0.0408
    112  CG        33.8780   33.2080  -21.9940 C.3   219  GLN219      0.0908
    113  CD        33.7460   33.8850  -23.3130 C.2   219  GLN219      0.2608
    114  OE1       32.7350   33.7750  -23.9760 O.2   219  GLN219     -0.2717
    115  NE2       34.7740   34.5940  -23.7040 N.am  219  GLN219     -0.0878
    116  N         30.0400   34.8880  -20.4400 N.am  220  GLY220     -0.1940
    117  CA        28.8330   34.9480  -19.6720 C.3   220  GLY220      0.2014
    118  C         28.0820   33.6630  -19.8110 C.2   220  GLY220      0.2639
    119  O         27.1890   33.3860  -19.0610 O.2   220  GLY220     -0.2714
    120  N         28.4540   32.8680  -20.7870 N.am  221  GLY221     -0.1954
    121  CA        27.8280   31.5840  -20.9830 C.3   221  GLY221      0.1869
    122  C         28.4600   30.5530  -20.0970 C.2   221  GLY221      0.2309
    123  O         29.5290   30.7580  -19.5940 O.2   221  GLY221     -0.2863
@<TRIPOS>BOND
     1    48    47    2
     2    47    46    1
     3    82    81    2
     4    50    49    1
     5    80    83    1
     6    80    81    1
     7    80    79    1
     8    84    83    1
     9    83    85    1
    10    81    86   am
    11    46    49    1
    12    46    45    1
    13    49    51    1
    14    13    14    1
    15    89    88    2
    16    88    87    1
    17    86    87    1
    18    87    90    1
    19    14    15    1
    20    44    43    1
    21    44    38    1
    22    92    91    1
    23    15    17   am
    24    15    16    2
    25    43    42    1
    26    41    40    2
    27    37    35    1
    28    90    91    1
    29    17    18    1
    30    36    35    1
    31    91    93    1
    32    38    39    1
    33    42    39    1
    34    73    72    2
    35    35    34    2
    36    40    39    1
    37    18    19    1
    38    72    71    1
    39    71    70    1
    40    71    74    1
    41    20    19    2
    42    19    21   am
    43    34    33    1
    44    21    22    1
    45    33    32    1
    46    75    74    1
    47    75    76    1
    48    22    23    1
    49    22    25    1
    50    23    27   am
    51    23    24    2
    52    27    28    1
    53    76    77   ar
    54    76    78   ar
    55    32    31    1
    56    31    28    1
    57    28    29    1
    58    25    26    1
    59    58    60   ar
    60    58    57   ar
    61    60    61   ar
    62    29    30    2
    63    57    56    1
    64    57    59   ar
    65    61    59   ar
    66    56    53    1
    67   114   113    2
    68   115   113   am
    69     9     7   ar
    70     9    11   ar
    71    62    63    1
    72    12    11    1
    73   113   112    1
    74    66    63    1
    75    66    67    1
    76    52    53    1
    77     7     6   ar
    78    53    54    1
    79    55    54    2
    80    11    10   ar
    81    69    67   am
    82    64    63    1
    83    64    65    2
    84    67    68    2
    85   102   101    1
    86   112   111    1
    87     6     5    1
    88     6     8   ar
    89    10     8   ar
    90   106   105    2
    91     5     2    1
    92   111   108    1
    93   101   100    1
    94   121   120    1
    95   121   122    1
    96   105   104    1
    97   105   107   am
    98   108   107    1
    99   108   109    1
   100   120   118   am
   101   116   109   am
   102   116   117    1
   103   100    99    1
   104   104   103    1
   105     2     1    1
   106     2     3    1
   107   122   123    2
   108   109   110    2
   109   118   117    1
   110   118   119    2
   111     3     4    2
   112    99    98    1
   113    98    95    1
   114    95    96    1
   115    95    94    1
   116    96    97    2
