@<TRIPOS>MOLECULE
tmp/2wr7A00.pdb
 128 122 0 0 0
SMALL
GASTEIGER

@<TRIPOS>ATOM
      1  N        -26.4370   33.1660  -41.0280 N.3    87  TYR87      -0.1241
      2  CA       -26.1090   32.9590  -42.4380 C.3    87  TYR87       0.1605
      3  C        -25.1860   31.7510  -42.5180 C.2    87  TYR87       0.2264
      4  O        -24.1310   31.7350  -41.8810 O.2    87  TYR87      -0.2867
      5  CB       -25.4000   34.1780  -43.0260 C.3    87  TYR87       0.0534
      6  CG       -25.4850   34.2530  -44.5300 C.ar   87  TYR87      -0.0201
      7  CD1      -26.4100   35.0880  -45.1440 C.ar   87  TYR87      -0.0009
      8  CD2      -24.6490   33.4870  -45.3440 C.ar   87  TYR87      -0.0009
      9  CE1      -26.5050   35.1680  -46.5310 C.ar   87  TYR87       0.0417
     10  CE2      -24.7360   33.5570  -46.7400 C.ar   87  TYR87       0.0417
     11  CZ       -25.6720   34.4040  -47.3240 C.ar   87  TYR87       0.1957
     12  OH       -25.7860   34.5120  -48.6890 O.3    87  TYR87      -0.2866
     13  N        -26.1050   45.7270  -47.2010 N.3   125  GLY125     -0.1210
     14  CA       -26.5280   44.3620  -47.4740 C.3   125  GLY125      0.1956
     15  C        -26.8910   43.5460  -46.2480 C.2   125  GLY125      0.2612
     16  O        -26.2970   43.6890  -45.1860 O.2   125  GLY125     -0.2717
     17  N        -27.8750   42.6740  -46.4030 N.am  126  GLY126     -0.1942
     18  CA       -28.3060   41.8140  -45.3210 C.3   126  GLY126      0.2014
     19  C        -29.0210   40.6190  -45.9030 C.2   126  GLY126      0.2640
     20  O        -29.0150   40.4260  -47.1190 O.2   126  GLY126     -0.2714
     21  N        -29.6490   39.8270  -45.0440 N.am  127  SER127     -0.1935
     22  CA       -30.2970   38.6010  -45.4790 C.3   127  SER127      0.2055
     23  C        -31.4010   38.2330  -44.5080 C.2   127  SER127      0.2643
     24  O        -31.3320   38.5770  -43.3330 O.2   127  SER127     -0.2714
     25  CB       -29.2610   37.4750  -45.5610 C.3   127  SER127      0.2130
     26  OG       -29.8560   36.1990  -45.4200 O.3   127  SER127     -0.2179
     27  N        -32.4190   37.5360  -44.9880 N.am  128  ARG128     -0.1963
     28  CA       -33.5040   37.1420  -44.1080 C.3   128  ARG128      0.1729
     29  C        -33.0960   35.9530  -43.2590 C.2   128  ARG128      0.2616
     30  O        -33.8360   35.5300  -42.3760 O.2   128  ARG128     -0.2715
     31  CB       -34.7860   36.8520  -44.8920 C.3   128  ARG128      0.0348
     32  CG       -35.5630   38.1050  -45.2330 C.3   128  ARG128      0.0492
     33  CD       -36.7370   37.8240  -46.1500 C.3   128  ARG128      0.2205
     34  NE       -37.6940   38.9270  -46.1130 N.pl3 128  ARG128     -0.0865
     35  CZ       -37.5530   40.0540  -46.8020 C.cat 128  ARG128      0.5346
     36  NH1      -36.4980   40.2160  -47.5910 N.pl3 128  ARG128      0.1354
     37  NH2      -38.4630   41.0170  -46.7070 N.pl3 128  ARG128      0.1354
     38  N        -31.9070   35.4220  -43.5230 N.am  129  ALA129     -0.1977
     39  CA       -31.3430   34.3680  -42.6810 C.3   129  ALA129      0.1597
     40  C        -30.9040   34.9750  -41.3540 C.2   129  ALA129      0.2287
     41  O        -30.8290   34.2950  -40.3300 O.2   129  ALA129     -0.2864
     42  CB       -30.1740   33.7120  -43.3760 C.3   129  ALA129      0.0319
     43  N        -34.6380   41.8590  -43.4750 N.3   136  PRO136     -0.2116
     44  CA       -33.2470   41.4450  -43.6660 C.3   136  PRO136      0.1372
     45  C        -32.2630   42.2710  -42.8340 C.2   136  PRO136      0.2244
     46  O        -32.1930   43.4920  -42.9720 O.2   136  PRO136     -0.2868
     47  CB       -33.0200   41.6820  -45.1630 C.3   136  PRO136      0.0268
     48  CG       -34.3570   41.4890  -45.7630 C.3   136  PRO136      0.0207
     49  CD       -35.3290   42.0650  -44.7590 C.3   136  PRO136      0.0892
     50  N        -21.2370   45.4570  -51.0880 N.3   145  THR145     -0.1218
     51  CA       -21.8750   45.1850  -52.3770 C.3   145  THR145      0.1862
     52  C        -21.6580   46.3070  -53.3880 C.2   145  THR145      0.2287
     53  O        -21.1250   47.3590  -53.0440 O.2   145  THR145     -0.2866
     54  CB       -23.3660   44.9560  -52.2040 C.3   145  THR145      0.1770
     55  OG1      -23.9000   45.9890  -51.3720 O.3   145  THR145     -0.2211
     56  CG2      -23.6010   43.6100  -51.5440 C.3   145  THR145      0.0375
     57  N        -17.8020   35.4920  -49.1040 N.3   173  HIS173     -0.1241
     58  CA       -19.1280   35.0850  -49.5350 C.3   173  HIS173      0.1621
     59  C        -19.0490   34.1440  -50.7320 C.2   173  HIS173      0.2264
     60  O        -18.5140   34.5150  -51.7700 O.2   173  HIS173     -0.2867
     61  CB       -19.9840   36.3130  -49.8720 C.3   173  HIS173      0.0745
     62  CG       -21.3750   35.9750  -50.3240 C.ar  173  HIS173      0.0817
     63  ND1      -21.8620   36.3180  -51.5680 N.ar  173  HIS173     -0.2268
     64  CD2      -22.3720   35.3000  -49.7040 C.ar  173  HIS173      0.1154
     65  CE1      -23.0990   35.8750  -51.6910 C.ar  173  HIS173      0.1986
     66  NE2      -23.4320   35.2540  -50.5740 N.ar  173  HIS173     -0.2212
     67  N        -25.3640   34.5960  -61.4380 N.3   179  THR179     -0.1203
     68  CA       -26.2810   35.7240  -61.4900 C.3   179  THR179      0.1994
     69  C        -26.1940   36.4810  -60.1760 C.2   179  THR179      0.2617
     70  O        -26.0310   37.7050  -60.1370 O.2   179  THR179     -0.2717
     71  CB       -27.7310   35.2330  -61.7110 C.3   179  THR179      0.1784
     72  OG1      -27.8530   34.6630  -63.0190 O.3   179  THR179     -0.2211
     73  CG2      -28.7110   36.3720  -61.5770 C.3   179  THR179      0.0376
     74  N        -26.3090   35.7190  -59.0990 N.am  180  GLU180     -0.1979
     75  CA       -26.1430   36.2190  -57.7490 C.3   180  GLU180      0.1602
     76  C        -24.8160   36.9570  -57.5860 C.2   180  GLU180      0.2287
     77  O        -24.7240   37.9440  -56.8530 O.2   180  GLU180     -0.2864
     78  CB       -26.1910   35.0380  -56.7920 C.3   180  GLU180      0.0415
     79  CG       -26.5240   35.3890  -55.3800 C.3   180  GLU180      0.1163
     80  CD       -26.8320   34.1610  -54.5700 C.2   180  GLU180      0.3649
     81  OE1      -28.0210   33.7950  -54.4620 O.co2 180  GLU180     -0.2457
     82  OE2      -25.8820   33.5430  -54.0510 O.co2 180  GLU180     -0.2457
     83  N        -24.8800   40.5400  -59.8270 N.3   183  THR183     -0.1203
     84  CA       -25.7480   41.5660  -59.2610 C.3   183  THR183      0.1994
     85  C        -25.3000   41.9950  -57.8850 C.2   183  THR183      0.2617
     86  O        -25.6750   43.0560  -57.4190 O.2   183  THR183     -0.2717
     87  CB       -27.2280   41.1490  -59.2010 C.3   183  THR183      0.1784
     88  OG1      -27.3450   39.8710  -58.5700 O.3   183  THR183     -0.2211
     89  CG2      -27.8320   41.0950  -60.6160 C.3   183  THR183      0.0376
     90  N        -24.4970   41.1750  -57.2230 N.am  184  LEU184     -0.1979
     91  CA       -23.9170   41.6020  -55.9580 C.3   184  LEU184      0.1596
     92  C        -22.6510   42.4170  -56.1890 C.2   184  LEU184      0.2287
     93  O        -22.4670   43.4630  -55.5810 O.2   184  LEU184     -0.2864
     94  CB       -23.6520   40.4100  -55.0320 C.3   184  LEU184      0.0297
     95  CG       -24.8860   39.9480  -54.2500 C.3   184  LEU184      0.0022
     96  CD1      -24.7340   38.5580  -53.6530 C.3   184  LEU184      0.0001
     97  CD2      -25.2070   40.9620  -53.1680 C.3   184  LEU184      0.0001
     98  N        -30.1400   23.8140  -49.6140 N.3   212  LYS212     -0.1245
     99  CA       -30.5290   25.0250  -48.9040 C.3   212  LYS212      0.1561
    100  C        -30.4920   24.8260  -47.3940 C.2   212  LYS212      0.2260
    101  O        -30.9370   23.8120  -46.8620 O.2   212  LYS212     -0.2867
    102  CB       -31.8740   25.5740  -49.4000 C.3   212  LYS212      0.0271
    103  CG       -31.8210   26.0020  -50.8740 C.3   212  LYS212      0.0035
    104  CD       -32.9370   26.9560  -51.2800 C.3   212  LYS212      0.0206
    105  CE       -32.7960   27.3480  -52.7500 C.3   212  LYS212      0.1093
    106  NZ       -33.7800   28.3940  -53.1750 N.3   212  LYS212     -0.1314
    107  N        -32.7300   28.3010  -46.1500 N.3   215  GLY215     -0.1210
    108  CA       -33.1750   28.7620  -47.4520 C.3   215  GLY215      0.1956
    109  C        -32.0990   29.2910  -48.3760 C.2   215  GLY215      0.2612
    110  O        -32.3940   29.7220  -49.4890 O.2   215  GLY215     -0.2717
    111  N        -30.8520   29.2610  -47.9260 N.am  216  LEU216     -0.1965
    112  CA       -29.7540   29.7850  -48.7290 C.3   216  LEU216      0.1728
    113  C        -28.8620   28.6810  -49.2550 C.2   216  LEU216      0.2617
    114  O        -28.5670   27.7290  -48.5520 O.2   216  LEU216     -0.2715
    115  CB       -28.9440   30.8080  -47.9330 C.3   216  LEU216      0.0311
    116  CG       -29.7640   32.0540  -47.5840 C.3   216  LEU216      0.0022
    117  CD1      -29.0930   32.8990  -46.5190 C.3   216  LEU216      0.0001
    118  CD2      -30.0300   32.8760  -48.8410 C.3   216  LEU216      0.0001
    119  N        -28.4620   28.8050  -50.5120 N.am  217  GLY217     -0.1940
    120  CA       -27.5560   27.8560  -51.1190 C.3   217  GLY217      0.2014
    121  C        -26.1690   28.4170  -50.9570 C.2   217  GLY217      0.2639
    122  O        -25.1630   27.7180  -51.0590 O.2   217  GLY217     -0.2714
    123  N        -26.1340   29.7070  -50.6730 N.am  218  SER218     -0.1949
    124  CA       -24.8930   30.4330  -50.5290 C.3   218  SER218      0.1924
    125  C        -24.2540   30.1710  -49.1590 C.2   218  SER218      0.2314
    126  O        -24.8980   29.6680  -48.2470 O.2   218  SER218     -0.2863
    127  CB       -25.1590   31.9190  -50.7270 C.3   218  SER218      0.2116
    128  OG       -26.1240   32.3650  -49.7930 O.3   218  SER218     -0.2180
@<TRIPOS>BOND
     1    72    71    1
     2    71    73    1
     3    71    68    1
     4    68    67    1
     5    68    69    1
     6    89    87    1
     7    69    70    2
     8    69    74   am
     9    83    84    1
    10    84    87    1
    11    84    85    1
    12    87    88    1
    13    74    75    1
    14    85    86    2
    15    85    90   am
    16    75    76    1
    17    75    78    1
    18    76    77    2
    19    90    91    1
    20    78    79    1
    21    92    91    1
    22    92    93    2
    23    91    94    1
    24    79    80    1
    25    94    95    1
    26    80    81   ar
    27    80    82   ar
    28    95    96    1
    29    95    97    1
    30    52    53    2
    31    52    51    1
    32   106   105    1
    33   105   104    1
    34    51    54    1
    35    51    50    1
    36    54    56    1
    37    54    55    1
    38    60    59    2
    39    65    63   ar
    40    65    66   ar
    41    63    62   ar
    42   104   103    1
    43   120   121    1
    44   120   119    1
    45   122   121    2
    46   121   123   am
    47   103   102    1
    48    59    58    1
    49   127   124    1
    50   127   128    1
    51   123   124    1
    52    66    64   ar
    53   124   125    1
    54   119   113   am
    55    62    61    1
    56    62    64   ar
    57    61    58    1
    58    98    99    1
    59    58    57    1
    60   110   109    2
    61   102    99    1
    62   113   112    1
    63   113   114    2
    64   125   126    2
    65    99   100    1
    66   118   116    1
    67   112   115    1
    68   112   111    1
    69    12    11    1
    70   109   111   am
    71   109   108    1
    72   115   116    1
    73    36    35    1
    74   116   117    1
    75    14    13    1
    76    14    15    1
    77   108   107    1
    78   100   101    2
    79    11    10   ar
    80    11     9   ar
    81    20    19    2
    82    35    37    1
    83    35    34    2
    84    10     8   ar
    85     9     7   ar
    86    17    15   am
    87    17    18    1
    88    15    16    2
    89    33    34    1
    90    33    32    1
    91    19    18    1
    92    19    21   am
    93    48    47    1
    94    48    49    1
    95    25    22    1
    96    25    26    1
    97    22    21    1
    98    22    23    1
    99     8     6   ar
   100    32    31    1
   101    47    44    1
   102     7     6   ar
   103    27    23   am
   104    27    28    1
   105    31    28    1
   106    49    43    1
   107     6     5    1
   108    23    24    2
   109    28    29    1
   110    44    43    1
   111    44    45    1
   112    38    29   am
   113    38    39    1
   114    42    39    1
   115    29    30    2
   116     5     2    1
   117    46    45    2
   118    39    40    1
   119     3     2    1
   120     3     4    2
   121     2     1    1
   122    40    41    2
