@<TRIPOS>MOLECULE
tmp/2wr8A00.pdb
 116 110 0 0 0
SMALL
GASTEIGER

@<TRIPOS>ATOM
      1  N         13.2970  -37.2290   10.6180 N.3   181  ASP181     -0.1239
      2  CA        12.4020  -38.0020    9.7370 C.3   181  ASP181      0.1674
      3  C         11.3360  -38.7330   10.5500 C.2   181  ASP181      0.2266
      4  O         11.2370  -38.5710   11.8170 O.2   181  ASP181     -0.2867
      5  CB        13.1570  -38.9240    8.8020 C.3   181  ASP181      0.1410
      6  CG        13.7920  -40.1140    9.4830 C.2   181  ASP181      0.3668
      7  OD1       13.4470  -40.4430   10.6720 O.co2 181  ASP181     -0.2456
      8  OD2       14.6480  -40.7310    8.8120 O.co2 181  ASP181     -0.2456
      9  N         10.9480  -41.6900   11.4240 N.3   183  PHE183     -0.1241
     10  CA        11.4890  -42.6900   12.3160 C.3   183  PHE183      0.1605
     11  C         12.0590  -42.0490   13.5810 C.2   183  PHE183      0.2264
     12  O         12.3880  -42.7520   14.5080 O.2   183  PHE183     -0.2867
     13  CB        12.5940  -43.5210   11.6400 C.3   183  PHE183      0.0534
     14  CG        12.1440  -44.1820   10.3460 C.ar  183  PHE183     -0.0203
     15  CD1       11.3960  -45.3550   10.3640 C.ar  183  PHE183     -0.0042
     16  CD2       12.3820  -43.5710    9.1300 C.ar  183  PHE183     -0.0042
     17  CE1       10.9350  -45.9340    9.1800 C.ar  183  PHE183     -0.0003
     18  CE2       11.9210  -44.1330    7.9670 C.ar  183  PHE183     -0.0003
     19  CZ        11.2200  -45.3390    7.9880 C.ar  183  PHE183     -0.0000
     20  N         14.8700  -40.3810   13.1880 N.3   185  ASN185     -0.1240
     21  CA        16.3060  -40.2700   12.8950 C.3   185  ASN185      0.1653
     22  C         16.6160  -38.7950   12.8050 C.2   185  ASN185      0.2266
     23  O         15.8090  -37.9840   12.2980 O.2   185  ASN185     -0.2867
     24  CB        16.6860  -40.9320   11.5540 C.3   185  ASN185      0.1155
     25  CG        16.3210  -42.4050   11.4990 C.2   185  ASN185      0.2627
     26  OD1       16.5000  -43.1700   12.4690 O.2   185  ASN185     -0.2716
     27  ND2       15.8250  -42.8260   10.3320 N.am  185  ASN185     -0.0877
     28  N         19.0630  -35.6500   11.6680 N.3   187  ILE187     -0.1245
     29  CA        20.0550  -35.2670   10.6820 C.3   187  ILE187      0.1561
     30  C         20.7200  -33.9630   11.1140 C.2   187  ILE187      0.2260
     31  O         20.0460  -32.9730   11.4010 O.2   187  ILE187     -0.2867
     32  CB        19.4670  -35.2040    9.2080 C.3   187  ILE187      0.0252
     33  CG1       19.0970  -36.5930    8.6720 C.3   187  ILE187      0.0019
     34  CG2       20.5290  -34.6160    8.2980 C.3   187  ILE187      0.0019
     35  CD1       17.9540  -37.3210    9.4040 C.3   187  ILE187      0.0001
     36  N         21.5890  -49.5640   10.1980 N.3   214  TYR214     -0.1241
     37  CA        20.9090  -49.6720   11.4890 C.3   214  TYR214      0.1605
     38  C         21.0910  -51.0580   12.1360 C.2   214  TYR214      0.2264
     39  O         21.3020  -51.1720   13.3340 O.2   214  TYR214     -0.2867
     40  CB        19.3920  -49.4360   11.2980 C.3   214  TYR214      0.0534
     41  CG        19.0570  -48.1230   10.6200 C.ar  214  TYR214     -0.0201
     42  CD1       19.1330  -46.9260   11.2960 C.ar  214  TYR214     -0.0009
     43  CD2       18.7020  -48.0850    9.2710 C.ar  214  TYR214     -0.0009
     44  CE1       18.8440  -45.7310   10.6500 C.ar  214  TYR214      0.0417
     45  CE2       18.4330  -46.8960    8.6250 C.ar  214  TYR214      0.0417
     46  CZ        18.5040  -45.7190    9.3210 C.ar  214  TYR214      0.1957
     47  OH        18.2500  -44.5270    8.6830 O.3   214  TYR214     -0.2866
     48  N         25.4210  -42.8150   11.5360 N.3   225  LEU225     -0.1245
     49  CA        25.5920  -43.3660   10.2080 C.3   225  LEU225      0.1561
     50  C         25.6090  -42.2650    9.1800 C.2   225  LEU225      0.2260
     51  O         25.1290  -41.1390    9.4360 O.2   225  LEU225     -0.2867
     52  CB        24.5120  -44.4090    9.8340 C.3   225  LEU225      0.0270
     53  CG        23.0800  -44.6610   10.3090 C.3   225  LEU225      0.0019
     54  CD1       22.4020  -43.6220   11.1320 C.3   225  LEU225      0.0001
     55  CD2       22.2150  -45.0420    9.0380 C.3   225  LEU225      0.0001
     56  N         23.7520  -42.2400    6.4200 N.3   227  GLY227     -0.1210
     57  CA        22.4400  -42.0860    5.7890 C.3   227  GLY227      0.1956
     58  C         22.5780  -41.9240    4.2900 C.2   227  GLY227      0.2613
     59  O         23.5710  -42.3920    3.7100 O.2   227  GLY227     -0.2717
     60  N         21.6420  -41.2020    3.6840 N.am  228  SER228     -0.1938
     61  CA        21.5930  -41.0610    2.2200 C.3   228  SER228      0.2055
     62  C         21.6470  -39.6220    1.7520 C.2   228  SER228      0.2643
     63  O         21.4780  -39.3530    0.5550 O.2   228  SER228     -0.2714
     64  CB        20.3000  -41.6770    1.6810 C.3   228  SER228      0.2130
     65  OG        19.1730  -40.9560    2.1530 O.3   228  SER228     -0.2179
     66  N         21.9110  -38.7140    2.6730 N.am  229  HIS229     -0.1973
     67  CA        21.7530  -37.2540    2.4870 C.3   229  HIS229      0.1656
     68  C         23.0360  -36.4910    2.5050 C.2   229  HIS229      0.2291
     69  O         22.9970  -35.2720    2.4590 O.2   229  HIS229     -0.2864
     70  CB        20.8950  -36.6930    3.6390 C.3   229  HIS229      0.0771
     71  CG        21.0690  -37.4400    4.9200 C.ar  229  HIS229      0.0820
     72  ND1       22.2930  -37.5610    5.5550 N.ar  229  HIS229     -0.2267
     73  CD2       20.2060  -38.2240    5.6100 C.ar  229  HIS229      0.1154
     74  CE1       22.1450  -38.3190    6.6250 C.ar  229  HIS229      0.1986
     75  NE2       20.8920  -38.7390    6.6730 N.ar  229  HIS229     -0.2212
     76  N         23.8590  -38.6450   10.3510 N.3   233  GLU233     -0.1245
     77  CA        22.5890  -39.1170   10.9130 C.3   233  GLU233      0.1567
     78  C         22.8250  -39.8350   12.2440 C.2   233  GLU233      0.2260
     79  O         23.8070  -40.6140   12.4070 O.2   233  GLU233     -0.2867
     80  CB        21.8590  -40.0270    9.9070 C.3   233  GLU233      0.0388
     81  CG        20.5710  -40.5740   10.4330 C.3   233  GLU233      0.1160
     82  CD        19.8200  -41.4610    9.4440 C.2   233  GLU233      0.3649
     83  OE1       19.8500  -41.1980    8.2280 O.co2 233  GLU233     -0.2457
     84  OE2       19.1720  -42.4100    9.9130 O.co2 233  GLU233     -0.2457
     85  N         20.7350  -42.2260   14.9320 N.3   235  ALA235     -0.1231
     86  CA        19.5770  -43.1300   14.8860 C.3   235  ALA235      0.1694
     87  C         19.5780  -44.1230   16.0450 C.2   235  ALA235      0.2592
     88  O         20.6150  -44.4140   16.6060 O.2   235  ALA235     -0.2718
     89  CB        19.5170  -43.8520   13.5300 C.3   235  ALA235      0.0304
     90  N         18.3900  -44.6080   16.4190 N.am  236  VAL236     -0.1966
     91  CA        18.2440  -45.7460   17.3240 C.3   236  VAL236      0.1727
     92  C         17.7730  -46.8730   16.4340 C.2   236  VAL236      0.2616
     93  O         16.8440  -46.6710   15.6400 O.2   236  VAL236     -0.2715
     94  CB        17.2160  -45.4990   18.4110 C.3   236  VAL236      0.0290
     95  CG1       17.0040  -46.7680   19.2870 C.3   236  VAL236      0.0023
     96  CG2       17.6340  -44.3330   19.3050 C.3   236  VAL236      0.0023
     97  N         18.4300  -48.0230   16.4920 N.am  237  ASN237     -0.1958
     98  CA        17.9770  -49.1520   15.6520 C.3   237  ASN237      0.1819
     99  C         16.5790  -49.5900   16.0880 C.2   237  ASN237      0.2621
    100  O         16.3670  -50.0200   17.2210 O.2   237  ASN237     -0.2715
    101  CB        18.9370  -50.3310   15.6730 C.3   237  ASN237      0.1195
    102  CG        18.4950  -51.4670   14.7410 C.2   237  ASN237      0.2630
    103  OD1       17.6800  -51.2530   13.8320 O.2   237  ASN237     -0.2716
    104  ND2       19.0490  -52.6910   14.9560 N.am  237  ASN237     -0.0877
    105  N         15.6490  -49.4730   15.1440 N.am  238  MET238     -0.1963
    106  CA        14.2290  -49.7000   15.3420 C.3   238  MET238      0.1736
    107  C         13.5670  -48.7860   16.4110 C.2   238  MET238      0.2617
    108  O         12.4770  -49.0750   16.9220 O.2   238  MET238     -0.2715
    109  CB        14.0380  -51.2020   15.5510 C.3   238  MET238      0.0427
    110  CG        14.1890  -51.9480   14.1860 C.3   238  MET238      0.0599
    111  SD        13.6990  -53.6140   14.4510 S.3   238  MET238     -0.1393
    112  CE        12.8350  -53.9260   12.9290 C.3   238  MET238      0.0692
    113  N         14.2020  -47.6380   16.6790 N.am  239  GLY239     -0.1955
    114  CA        13.6280  -46.6330   17.5420 C.3   239  GLY239      0.1869
    115  C         13.8300  -45.2070   17.0690 C.2   239  GLY239      0.2309
    116  O         14.1350  -44.9270   15.8870 O.2   239  GLY239     -0.2863
@<TRIPOS>BOND
     1    63    62    2
     2    64    65    1
     3    64    61    1
     4    62    61    1
     5    62    66   am
     6    61    60    1
     7    69    68    2
     8    67    68    1
     9    67    66    1
    10    67    70    1
    11    70    71    1
    12    60    58   am
    13    59    58    2
    14    58    57    1
    15    71    72   ar
    16    71    73   ar
    17    72    74   ar
    18    73    75   ar
    19    57    56    1
    20    74    75   ar
    21    18    19   ar
    22    18    16   ar
    23    19    17   ar
    24    83    82   ar
    25    34    32    1
    26    45    43   ar
    27    45    46   ar
    28    33    32    1
    29    33    35    1
    30    47    46    1
    31     5     6    1
    32     5     2    1
    33     8     6   ar
    34    55    53    1
    35    16    14   ar
    36    17    15   ar
    37    50    51    2
    38    50    49    1
    39    32    29    1
    40    43    41   ar
    41    46    44   ar
    42    82    84   ar
    43    82    81    1
    44     6     7   ar
    45     2     3    1
    46     2     1    1
    47    52    49    1
    48    52    53    1
    49    80    81    1
    50    80    77    1
    51    36    37    1
    52    49    48    1
    53    53    54    1
    54    27    25   am
    55    14    15   ar
    56    14    13    1
    57    76    77    1
    58     3     4    2
    59    41    42   ar
    60    41    40    1
    61    44    42   ar
    62    29    30    1
    63    29    28    1
    64    77    78    1
    65    30    31    2
    66    40    37    1
    67     9    10    1
    68    37    38    1
    69    25    24    1
    70    25    26    2
    71    24    21    1
    72    13    10    1
    73    38    39    2
    74    78    79    2
    75    23    22    2
    76    10    11    1
    77    22    21    1
    78    21    20    1
    79   112   111    1
    80    89    86    1
    81    11    12    2
    82   103   102    2
    83   110   111    1
    84   110   109    1
    85   102   104   am
    86   102   101    1
    87    86    85    1
    88    86    87    1
    89   105   106    1
    90   105    99   am
    91   106   109    1
    92   106   107    1
    93    93    92    2
    94    98   101    1
    95    98    99    1
    96    98    97    1
    97   116   115    2
    98    87    90   am
    99    87    88    2
   100    99   100    2
   101   107   113   am
   102   107   108    2
   103    90    91    1
   104    92    97   am
   105    92    91    1
   106   113   114    1
   107   115   114    1
   108    91    94    1
   109    94    95    1
   110    94    96    1
