@<TRIPOS>MOLECULE
tmp/2wrbA00.pdb
 118 113 0 0 0
SMALL
GASTEIGER

@<TRIPOS>ATOM
      1  N         31.2470   21.5240   41.4980 N.3    87  TYR87      -0.1241
      2  CA        30.8580   21.3920   42.8980 C.3    87  TYR87       0.1605
      3  C         29.6950   20.3900   43.0200 C.2    87  TYR87       0.2264
      4  O         28.6350   20.5830   42.4120 O.2    87  TYR87      -0.2867
      5  CB        30.4360   22.7530   43.4570 C.3    87  TYR87       0.0534
      6  CG        30.5320   22.8370   44.9620 C.ar   87  TYR87      -0.0201
      7  CD1       31.5960   23.4790   45.5720 C.ar   87  TYR87      -0.0009
      8  CD2       29.5750   22.2590   45.7690 C.ar   87  TYR87      -0.0009
      9  CE1       31.6970   23.5480   46.9510 C.ar   87  TYR87       0.0417
     10  CE2       29.6700   22.3240   47.1440 C.ar   87  TYR87       0.0417
     11  CZ        30.7280   22.9700   47.7330 C.ar   87  TYR87       0.1957
     12  OH        30.8190   23.0340   49.1030 O.3    87  TYR87      -0.2866
     13  N         34.0450   33.8200   47.6630 N.3   125  GLY125     -0.1210
     14  CA        34.1950   32.4120   47.9840 C.3   125  GLY125      0.1956
     15  C         34.2670   31.4930   46.7770 C.2   125  GLY125      0.2612
     16  O         33.4450   31.5700   45.8670 O.2   125  GLY125     -0.2717
     17  N         35.2590   30.6120   46.7730 N.am  126  GLY126     -0.1942
     18  CA        35.3900   29.6160   45.7260 C.3   126  GLY126      0.2014
     19  C         35.5580   28.2420   46.3430 C.2   126  GLY126      0.2640
     20  O         35.2580   28.0500   47.5190 O.2   126  GLY126     -0.2714
     21  N         36.0360   27.2860   45.5530 N.am  127  SER127     -0.1935
     22  CA        36.3150   25.9420   46.0480 C.3   127  SER127      0.2055
     23  C         37.2770   25.2270   45.1330 C.2   127  SER127      0.2643
     24  O         37.1640   25.3300   43.9150 O.2   127  SER127     -0.2714
     25  CB        35.0390   25.1150   46.1370 C.3   127  SER127      0.2130
     26  OG        35.3500   23.7310   46.1500 O.3   127  SER127     -0.2179
     27  N         38.2080   24.4800   45.7160 N.am  128  ARG128     -0.1963
     28  CA        39.1580   23.7140   44.9150 C.3   128  ARG128      0.1729
     29  C         38.4730   22.6300   44.0840 C.2   128  ARG128      0.2616
     30  O         39.1080   21.9730   43.2620 O.2   128  ARG128     -0.2715
     31  CB        40.2860   23.1400   45.7780 C.3   128  ARG128      0.0348
     32  CG        41.3880   24.1590   46.0400 C.3   128  ARG128      0.0492
     33  CD        42.5890   23.5660   46.7560 C.3   128  ARG128      0.2205
     34  NE        43.5880   24.5920   47.0420 N.pl3 128  ARG128     -0.0865
     35  CZ        43.4880   25.4750   48.0350 C.cat 128  ARG128      0.5346
     36  NH1       42.4300   25.4580   48.8390 N.pl3 128  ARG128      0.1354
     37  NH2       44.4430   26.3780   48.2230 N.pl3 128  ARG128      0.1354
     38  N         37.1720   22.4540   44.2870 N.am  129  ALA129     -0.1977
     39  CA        36.4080   21.5480   43.4440 C.3   129  ALA129      0.1597
     40  C         36.0890   22.2240   42.1130 C.2   129  ALA129      0.2287
     41  O         35.7050   21.5670   41.1470 O.2   129  ALA129     -0.2864
     42  CB        35.1450   21.1100   44.1400 C.3   129  ALA129      0.0319
     43  N         41.3360   27.8850   44.3350 N.3   136  PRO136     -0.2116
     44  CA        39.8830   27.7520   44.4630 C.3   136  PRO136      0.1372
     45  C         39.1380   28.7460   43.5790 C.2   136  PRO136      0.2244
     46  O         39.4710   29.9320   43.5840 O.2   136  PRO136     -0.2868
     47  CB        39.6350   28.0760   45.9390 C.3   136  PRO136      0.0268
     48  CG        40.9250   27.7840   46.6120 C.3   136  PRO136      0.0207
     49  CD        41.9810   28.1670   45.6250 C.3   136  PRO136      0.0892
     50  N         28.7120   33.2180   45.3410 N.3   144  TRP144     -0.1241
     51  CA        28.5910   32.5550   46.6390 C.3   144  TRP144      0.1605
     52  C         28.5480   33.5340   47.8080 C.2   144  TRP144      0.2264
     53  O         29.5710   33.8270   48.4140 O.2   144  TRP144     -0.2867
     54  CB        29.7590   31.5910   46.8490 C.3   144  TRP144      0.0550
     55  CG        29.5730   30.6200   47.9800 C.ar  144  TRP144      0.0003
     56  CD1       28.7190   30.7310   49.0320 C.ar  144  TRP144      0.0946
     57  CD2       30.2800   29.3940   48.1680 C.ar  144  TRP144      0.0152
     58  NE1       28.8370   29.6390   49.8560 N.ar  144  TRP144     -0.2442
     59  CE2       29.7960   28.8030   49.3480 C.ar  144  TRP144      0.0810
     60  CE3       31.2750   28.7310   47.4430 C.ar  144  TRP144      0.0012
     61  CZ2       30.2700   27.5930   49.8260 C.ar  144  TRP144      0.0191
     62  CZ3       31.7420   27.5270   47.9160 C.ar  144  TRP144      0.0001
     63  CH2       31.2420   26.9690   49.0950 C.ar  144  TRP144      0.0015
     64  N         28.5550   34.7790   51.3030 N.3   146  THR146     -0.1218
     65  CA        28.9540   34.2840   52.6280 C.3   146  THR146      0.1862
     66  C         29.1380   35.4180   53.6340 C.2   146  THR146      0.2287
     67  O         29.1670   36.5900   53.2600 O.2   146  THR146     -0.2866
     68  CB        30.2730   33.4860   52.5870 C.3   146  THR146      0.1770
     69  OG1       31.3560   34.3640   52.2560 O.3   146  THR146     -0.2211
     70  CG2       30.1960   32.3680   51.5650 C.3   146  THR146      0.0375
     71  N         23.1190   25.8820   49.3340 N.3   174  HIS174     -0.1241
     72  CA        24.3030   25.1360   49.7350 C.3   174  HIS174      0.1621
     73  C         24.0210   24.2610   50.9460 C.2   174  HIS174      0.2264
     74  O         23.5040   24.7350   51.9520 O.2   174  HIS174     -0.2867
     75  CB        25.4480   26.1120   50.0320 C.3   174  HIS174      0.0745
     76  CG        26.6650   25.4660   50.6090 C.ar  174  HIS174      0.0817
     77  ND1       27.1460   25.7730   51.8640 N.ar  174  HIS174     -0.2268
     78  CD2       27.5030   24.5270   50.1070 C.ar  174  HIS174      0.1154
     79  CE1       28.2250   25.0540   52.1080 C.ar  174  HIS174      0.1986
     80  NE2       28.4610   24.2870   51.0570 N.ar  174  HIS174     -0.2212
     81  N         30.9840   24.2270   59.6590 N.3   181  GLU181     -0.1245
     82  CA        31.0840   24.7780   58.3240 C.3   181  GLU181      0.1567
     83  C         29.9730   25.7990   58.0750 C.2   181  GLU181      0.2260
     84  O         30.2170   26.8680   57.5150 O.2   181  GLU181     -0.2867
     85  CB        30.9870   23.6310   57.3290 C.3   181  GLU181      0.0388
     86  CG        30.9680   24.0260   55.8800 C.3   181  GLU181      0.1160
     87  CD        30.7650   22.8260   54.9950 C.2   181  GLU181      0.3649
     88  OE1       31.1310   21.7130   55.4360 O.co2 181  GLU181     -0.2457
     89  OE2       30.2360   23.0080   53.8720 O.co2 181  GLU181     -0.2457
     90  N         30.9180   28.9730   60.1380 N.3   184  THR184     -0.1203
     91  CA        32.0830   29.6800   59.6230 C.3   184  THR184      0.1994
     92  C         31.8790   30.1380   58.1820 C.2   184  THR184      0.2617
     93  O         32.7810   30.7050   57.5780 O.2   184  THR184     -0.2717
     94  CB        33.4150   28.8830   59.7850 C.3   184  THR184      0.1784
     95  OG1       33.3470   27.6370   59.0840 O.3   184  THR184     -0.2211
     96  CG2       33.7100   28.6290   61.2630 C.3   184  THR184      0.0376
     97  N         30.6810   29.9190   57.6430 N.am  185  LEU185     -0.1979
     98  CA        30.3380   30.4280   56.3180 C.3   185  LEU185      0.1596
     99  C         29.2240   31.4750   56.3590 C.2   185  LEU185      0.2287
    100  O         29.1350   32.3270   55.4780 O.2   185  LEU185     -0.2864
    101  CB        29.9410   29.2910   55.3720 C.3   185  LEU185      0.0297
    102  CG        31.0350   28.3280   54.9090 C.3   185  LEU185      0.0022
    103  CD1       30.6250   27.6070   53.6290 C.3   185  LEU185      0.0001
    104  CD2       32.3170   29.0940   54.6890 C.3   185  LEU185      0.0001
    105  N         34.4120   16.3940   48.5600 N.3   217  LEU217     -0.1245
    106  CA        33.4330   17.2720   49.1740 C.3   217  LEU217      0.1561
    107  C         32.2090   16.5170   49.6870 C.2   217  LEU217      0.2260
    108  O         31.5910   15.7380   48.9620 O.2   217  LEU217     -0.2867
    109  CB        33.0280   18.3640   48.1840 C.3   217  LEU217      0.0270
    110  CG        33.9210   19.5940   48.2720 C.3   217  LEU217      0.0019
    111  CD1       33.3890   20.7000   47.4030 C.3   217  LEU217      0.0001
    112  CD2       33.9520   20.0340   49.7140 C.3   217  LEU217      0.0001
    113  N         29.8060   18.3630   51.3270 N.3   219  SER219     -0.1217
    114  CA        28.7710   19.3570   51.1180 C.3   219  SER219      0.1889
    115  C         28.1630   19.1770   49.7320 C.2   219  SER219      0.2288
    116  O         28.6620   18.3910   48.9250 O.2   219  SER219     -0.2866
    117  CB        29.3420   20.7640   51.2940 C.3   219  SER219      0.2089
    118  OG        30.6930   20.8150   50.8710 O.3   219  SER219     -0.2183
@<TRIPOS>BOND
     1    41    40    2
     2     1     2    1
     3    40    39    1
     4     4     3    2
     5     2     3    1
     6     2     5    1
     7    30    29    2
     8    39    42    1
     9    39    38    1
    10     5     6    1
    11    45    46    2
    12    45    44    1
    13    24    23    2
    14    29    38   am
    15    29    28    1
    16    43    44    1
    17    43    49    1
    18    44    47    1
    19    28    27    1
    20    28    31    1
    21     6     7   ar
    22     6     8   ar
    23    23    27   am
    24    23    22    1
    25    50    51    1
    26    21    22    1
    27    21    19   am
    28     7     9   ar
    29    49    48    1
    30    18    19    1
    31    18    17    1
    32     8    10   ar
    33    31    32    1
    34    16    15    2
    35    47    48    1
    36    32    33    1
    37    22    25    1
    38    25    26    1
    39    19    20    2
    40    51    54    1
    41    51    52    1
    42    33    34    1
    43    17    15   am
    44    15    14    1
    45    54    55    1
    46     9    11   ar
    47    34    35    2
    48    10    11   ar
    49   111   110    1
    50    60    62   ar
    51    60    57   ar
    52    13    14    1
    53    11    12    1
    54    52    53    2
    55    62    63   ar
    56    55    57   ar
    57    55    56   ar
    58    35    37    1
    59    35    36    1
    60    57    59   ar
    61   109   110    1
    62   109   106    1
    63   110   112    1
    64   105   106    1
    65   116   115    2
    66   108   107    2
    67    56    58   ar
    68    63    61   ar
    69   106   107    1
    70    71    72    1
    71    59    61   ar
    72    59    58   ar
    73   115   114    1
    74    72    75    1
    75    72    73    1
    76    75    76    1
    77    78    76   ar
    78    78    80   ar
    79    76    77   ar
    80   118   117    1
    81    73    74    2
    82    80    79   ar
    83   114   117    1
    84   114   113    1
    85    64    65    1
    86    70    68    1
    87    77    79   ar
    88    69    68    1
    89    68    65    1
    90    65    66    1
    91    67    66    2
    92   103   102    1
    93    89    87   ar
    94   104   102    1
    95   102   101    1
    96    87    88   ar
    97    87    86    1
    98   101    98    1
    99   100    99    2
   100    86    85    1
   101    98    99    1
   102    98    97    1
   103    85    82    1
   104    84    83    2
   105    93    92    2
   106    97    92   am
   107    83    82    1
   108    92    91    1
   109    82    81    1
   110    95    94    1
   111    91    94    1
   112    91    90    1
   113    94    96    1
