@<TRIPOS>MOLECULE
tmp/2wrfF00.pdb
 128 122 0 0 0
SMALL
GASTEIGER

@<TRIPOS>ATOM
      1  N         20.3320  -11.4440   23.3070 N.3    89  TYR89      -0.1241
      2  CA        21.4300  -10.5630   22.9670 C.3    89  TYR89       0.1605
      3  C         20.8440   -9.2420   22.4800 C.2    89  TYR89       0.2264
      4  O         20.0240   -9.2350   21.5710 O.2    89  TYR89      -0.2867
      5  CB        22.3160  -11.1790   21.8900 C.3    89  TYR89       0.0534
      6  CG        23.6390  -10.4610   21.7690 C.ar   89  TYR89      -0.0201
      7  CD1       24.8000  -11.0070   22.2990 C.ar   89  TYR89      -0.0009
      8  CD2       23.7180   -9.2140   21.1650 C.ar   89  TYR89      -0.0009
      9  CE1       26.0020  -10.3380   22.2100 C.ar   89  TYR89       0.0417
     10  CE2       24.9220   -8.5400   21.0740 C.ar   89  TYR89       0.0417
     11  CZ        26.0560   -9.1040   21.5950 C.ar   89  TYR89       0.1957
     12  OH        27.2490   -8.4280   21.4920 O.3    89  TYR89      -0.2866
     13  N         30.3020  -19.3250   18.6670 N.3   127  GLY127     -0.1210
     14  CA        30.2170  -18.1780   19.5480 C.3   127  GLY127      0.1956
     15  C         28.8440  -17.9830   20.1600 C.2   127  GLY127      0.2612
     16  O         27.8360  -17.9500   19.4490 O.2   127  GLY127     -0.2717
     17  N         28.8110  -17.8580   21.4860 N.am  128  GLY128     -0.1942
     18  CA        27.5860  -17.5780   22.2210 C.3   128  GLY128      0.2014
     19  C         27.7580  -16.3160   23.0550 C.2   128  GLY128      0.2640
     20  O         28.5860  -15.4540   22.7320 O.2   128  GLY128     -0.2714
     21  N         26.9970  -16.2030   24.1390 N.am  129  SER129     -0.1935
     22  CA        27.1650  -15.0650   25.0380 C.3   129  SER129      0.2055
     23  C         26.4080  -15.2230   26.3540 C.2   129  SER129      0.2642
     24  O         25.4510  -15.9890   26.4380 O.2   129  SER129     -0.2714
     25  CB        26.7270  -13.7840   24.3430 C.3   129  SER129      0.2130
     26  OG        27.0360  -12.6540   25.1300 O.3   129  SER129     -0.2179
     27  N         26.8450  -14.4970   27.3810 N.am  130  GLN130     -0.1976
     28  CA        26.1350  -14.4880   28.6570 C.3   130  GLN130      0.1601
     29  C         24.7130  -13.9830   28.4610 C.2   130  GLN130      0.2287
     30  O         23.7970  -14.3960   29.1650 O.2   130  GLN130     -0.2864
     31  CB        26.8570  -13.6180   29.6920 C.3   130  GLN130      0.0394
     32  CG        27.7510  -14.3900   30.6520 C.3   130  GLN130      0.0908
     33  CD        28.9970  -14.9320   29.9870 C.2   130  GLN130      0.2608
     34  OE1       29.7820  -14.1800   29.4120 O.2   130  GLN130     -0.2717
     35  NE2       29.1910  -16.2420   30.0730 N.am  130  GLN130     -0.0878
     36  N         27.6180  -19.6360   27.9440 N.3   138  PRO138     -0.2116
     37  CA        27.4210  -18.8050   26.7550 C.3   138  PRO138      0.1372
     38  C         26.7110  -19.5730   25.6300 C.2   138  PRO138      0.2244
     39  O         27.1830  -20.6230   25.1850 O.2   138  PRO138     -0.2868
     40  CB        28.8550  -18.4400   26.3490 C.3   138  PRO138      0.0268
     41  CG        29.6010  -18.4450   27.6170 C.3   138  PRO138      0.0207
     42  CD        29.0000  -19.5460   28.4490 C.3   138  PRO138      0.0892
     43  N         26.3250  -17.8010   14.6210 N.3   146  TRP146     -0.1241
     44  CA        27.2500  -16.6860   14.7930 C.3   146  TRP146      0.1605
     45  C         28.6230  -16.9350   14.1550 C.2   146  TRP146      0.2264
     46  O         29.4760  -17.5640   14.7740 O.2   146  TRP146     -0.2867
     47  CB        27.4400  -16.4100   16.2810 C.3   146  TRP146      0.0550
     48  CG        28.0490  -15.0710   16.5370 C.ar  146  TRP146      0.0003
     49  CD1       28.7160  -14.2820   15.6370 C.ar  146  TRP146      0.0946
     50  CD2       28.0740  -14.3660   17.7800 C.ar  146  TRP146      0.0152
     51  NE1       29.1420  -13.1230   16.2430 N.ar  146  TRP146     -0.2442
     52  CE2       28.7640  -13.1500   17.5580 C.ar  146  TRP146      0.0810
     53  CE3       27.5850  -14.6430   19.0580 C.ar  146  TRP146      0.0012
     54  CZ2       28.9730  -12.2210   18.5630 C.ar  146  TRP146      0.0191
     55  CZ3       27.7890  -13.7200   20.0500 C.ar  146  TRP146      0.0001
     56  CH2       28.4770  -12.5200   19.8010 C.ar  146  TRP146      0.0015
     57  N         32.3480  -16.3800   13.3150 N.3   148  THR148     -0.1218
     58  CA        33.5550  -15.7030   13.7930 C.3   148  THR148      0.1862
     59  C         34.7780  -16.1830   13.0200 C.2   148  THR148      0.2287
     60  O         34.7340  -17.2280   12.3620 O.2   148  THR148     -0.2866
     61  CB        33.7970  -15.9450   15.3010 C.3   148  THR148      0.1770
     62  OG1       33.2990  -17.2410   15.6700 O.3   148  THR148     -0.2211
     63  CG2       33.0920  -14.8940   16.1310 C.3   148  THR148      0.0375
     64  N         26.0790   -7.9090   13.5590 N.3   176  HIS176     -0.1241
     65  CA        26.5340   -7.5730   14.8950 C.3   176  HIS176      0.1621
     66  C         27.3240   -6.2590   14.9140 C.2   176  HIS176      0.2264
     67  O         28.1870   -6.0210   14.0610 O.2   176  HIS176     -0.2867
     68  CB        27.3650   -8.7310   15.4380 C.3   176  HIS176      0.0745
     69  CG        28.1750   -8.3830   16.6470 C.ar  176  HIS176      0.0817
     70  ND1       27.6760   -8.4920   17.9260 N.ar  176  HIS176     -0.2268
     71  CD2       29.4490   -7.9400   16.7760 C.ar  176  HIS176      0.1154
     72  CE1       28.6020   -8.1200   18.7910 C.ar  176  HIS176      0.1986
     73  NE2       29.6860   -7.7760   18.1190 N.ar  176  HIS176     -0.2212
     74  N         31.5560   -3.1150   20.3030 N.3   179  ASN179     -0.1240
     75  CA        31.8040   -1.9370   21.1400 C.3   179  ASN179      0.1653
     76  C         32.9310   -1.0040   20.6830 C.2   179  ASN179      0.2266
     77  O         32.8390    0.2320   20.8070 O.2   179  ASN179     -0.2867
     78  CB        32.1050   -2.3950   22.5550 C.3   179  ASN179      0.1155
     79  CG        30.8860   -2.9620   23.2470 C.2   179  ASN179      0.2627
     80  OD1       30.6920   -4.1890   23.3020 O.2   179  ASN179     -0.2716
     81  ND2       30.0420   -2.0690   23.7720 N.am  179  ASN179     -0.0877
     82  N         37.3940   -5.1890   19.4310 N.3   183  GLU183     -0.1245
     83  CA        36.4090   -6.2660   19.4820 C.3   183  GLU183      0.1567
     84  C         36.1240   -6.7020   18.0530 C.2   183  GLU183      0.2260
     85  O         35.9250   -7.8940   17.7720 O.2   183  GLU183     -0.2867
     86  CB        35.1130   -5.8090   20.1780 C.3   183  GLU183      0.0388
     87  CG        34.0700   -6.9260   20.4000 C.3   183  GLU183      0.1160
     88  CD        32.7210   -6.4210   20.9350 C.2   183  GLU183      0.3649
     89  OE1       32.6480   -5.2860   21.4600 O.co2 183  GLU183     -0.2457
     90  OE2       31.7250   -7.1680   20.8260 O.co2 183  GLU183     -0.2457
     91  N         37.1670  -10.4840   16.6520 N.3   187  LEU187     -0.1245
     92  CA        36.0940  -11.3830   16.2410 C.3   187  LEU187      0.1561
     93  C         36.0820  -11.7310   14.7510 C.2   187  LEU187      0.2260
     94  O         35.9310  -12.9020   14.3790 O.2   187  LEU187     -0.2867
     95  CB        34.7440  -10.7870   16.6310 C.3   187  LEU187      0.0270
     96  CG        34.3490  -10.8200   18.1060 C.3   187  LEU187      0.0019
     97  CD1       33.0480  -10.0790   18.3160 C.3   187  LEU187      0.0001
     98  CD2       34.2160  -12.2510   18.5820 C.3   187  LEU187      0.0001
     99  N         25.5170   -1.1590   29.1120 N.3   215  GLU215     -0.1245
    100  CA        25.3730   -2.6050   29.1160 C.3   215  GLU215      0.1567
    101  C         23.9210   -3.0340   29.2710 C.2   215  GLU215      0.2260
    102  O         23.2330   -2.6350   30.2040 O.2   215  GLU215     -0.2867
    103  CB        26.2540   -3.2440   30.1940 C.3   215  GLU215      0.0388
    104  CG        27.7450   -3.2560   29.8510 C.3   215  GLU215      0.1160
    105  CD        28.6010   -3.8560   30.9570 C.2   215  GLU215      0.3649
    106  OE1       28.0650   -4.1110   32.0580 O.co2 215  GLU215     -0.2457
    107  OE2       29.8090   -4.0690   30.7240 O.co2 215  GLU215     -0.2457
    108  N         24.4590   -7.1610   30.2590 N.3   218  GLY218     -0.1210
    109  CA        25.9000   -7.1660   30.3900 C.3   218  GLY218      0.1956
    110  C         26.5960   -7.1130   29.0540 C.2   218  GLY218      0.2612
    111  O         27.7840   -7.4210   28.9580 O.2   218  GLY218     -0.2717
    112  N         25.8590   -6.7200   28.0190 N.am  219  GLN219     -0.1965
    113  CA        26.4280   -6.6230   26.6780 C.3   219  GLN219      0.1733
    114  C         26.4540   -5.1940   26.1580 C.2   219  GLN219      0.2617
    115  O         25.5070   -4.4350   26.3570 O.2   219  GLN219     -0.2715
    116  CB        25.6840   -7.5350   25.7050 C.3   219  GLN219      0.0408
    117  CG        25.8470   -9.0080   26.0110 C.3   219  GLN219      0.0908
    118  CD        27.3040   -9.3970   26.1960 C.2   219  GLN219      0.2608
    119  OE1       28.2070   -8.7850   25.6210 O.2   219  GLN219     -0.2717
    120  NE2       27.5400  -10.4140   27.0110 N.am  219  GLN219     -0.0878
    121  N         27.5540   -4.8330   25.5050 N.am  220  GLY220     -0.1940
    122  CA        27.6890   -3.5230   24.9030 C.3   220  GLY220      0.2014
    123  C         27.4710   -3.6360   23.4120 C.2   220  GLY220      0.2639
    124  O         27.1700   -2.6520   22.7350 O.2   220  GLY220     -0.2714
    125  N         27.6250   -4.8520   22.9010 N.am  221  GLY221     -0.1954
    126  CA        27.3910   -5.1160   21.4970 C.3   221  GLY221      0.1869
    127  C         25.9160   -5.0170   21.1830 C.2   221  GLY221      0.2309
    128  O         25.0840   -4.8950   22.0830 O.2   221  GLY221     -0.2863
@<TRIPOS>BOND
     1    60    59    2
     2    59    58    1
     3    57    58    1
     4    64    65    1
     5    58    61    1
     6    67    66    2
     7    45    46    2
     8    45    44    1
     9    94    93    2
    10    43    44    1
    11    93    92    1
    12    44    47    1
    13    65    66    1
    14    65    68    1
    15    61    62    1
    16    61    63    1
    17    68    69    1
    18    49    51   ar
    19    49    48   ar
    20    92    95    1
    21    92    91    1
    22    51    52   ar
    23    47    48    1
    24    48    50   ar
    25    95    96    1
    26    69    71   ar
    27    69    70   ar
    28    71    73   ar
    29    52    50   ar
    30    52    54   ar
    31    85    84    2
    32    50    53   ar
    33    70    72   ar
    34    84    83    1
    35    96    97    1
    36    96    98    1
    37    73    72   ar
    38    54    56   ar
    39    13    14    1
    40    53    55   ar
    41    82    83    1
    42    16    15    2
    43    83    86    1
    44    14    15    1
    45    56    55   ar
    46    15    17   am
    47    86    87    1
    48    74    75    1
    49    87    88    1
    50    76    77    2
    51    76    75    1
    52    90    88   ar
    53    88    89   ar
    54    10     8   ar
    55    10    11   ar
    56    75    78    1
    57     8     6   ar
    58   127   126    1
    59   127   128    2
    60    17    18    1
    61    12    11    1
    62   126   125    1
    63     4     3    2
    64    11     9   ar
    65     6     5    1
    66     6     7   ar
    67     5     2    1
    68     9     7   ar
    69    18    19    1
    70     3     2    1
    71    78    79    1
    72    20    19    2
    73   124   123    2
    74   125   123   am
    75     2     1    1
    76    19    21   am
    77    79    80    2
    78    79    81   am
    79   123   122    1
    80    21    22    1
    81    25    22    1
    82    25    26    1
    83   122   121    1
    84    22    23    1
    85    39    38    2
    86   121   114   am
    87   119   118    2
    88    38    37    1
    89   116   117    1
    90   116   113    1
    91   117   118    1
    92   114   115    2
    93   114   113    1
    94   118   120   am
    95    40    37    1
    96    40    41    1
    97    23    24    2
    98    23    27   am
    99   113   112    1
   100    37    36    1
   101    27    28    1
   102    41    42    1
   103    36    42    1
   104   112   110   am
   105    29    28    1
   106    29    30    2
   107    28    31    1
   108   111   110    2
   109   110   109    1
   110    99   100    1
   111   100   101    1
   112   100   103    1
   113   101   102    2
   114    34    33    2
   115    31    32    1
   116   104   103    1
   117   104   105    1
   118    33    35   am
   119    33    32    1
   120   108   109    1
   121   107   105   ar
   122   105   106   ar
