@<TRIPOS>MOLECULE
tmp/2wrgC01.pdb
 152 146 0 0 0
SMALL
GASTEIGER

@<TRIPOS>ATOM
      1  N         16.3030   36.8730    5.6190 N.3    91  TYR91      -0.1241
      2  CA        16.6960   37.0630    4.2430 C.3    91  TYR91       0.1605
      3  C         16.1450   35.8550    3.5010 C.2    91  TYR91       0.2264
      4  O         16.4420   34.7130    3.8700 O.2    91  TYR91      -0.2867
      5  CB        18.2150   37.1420    4.1000 C.3    91  TYR91       0.0534
      6  CG        18.6580   37.7830    2.8030 C.ar   91  TYR91      -0.0201
      7  CD1       18.9920   39.1300    2.7440 C.ar   91  TYR91      -0.0009
      8  CD2       18.7170   37.0560    1.6340 C.ar   91  TYR91      -0.0009
      9  CE1       19.3900   39.7290    1.5580 C.ar   91  TYR91       0.0417
     10  CE2       19.1180   37.6540    0.4400 C.ar   91  TYR91       0.0417
     11  CZ        19.4510   38.9850    0.4130 C.ar   91  TYR91       0.1957
     12  OH        19.8470   39.5550   -0.7700 O.3    91  TYR91      -0.2866
     13  N         29.5780   46.3100    6.9780 N.3   130  LYS130     -0.1231
     14  CA        28.7190   46.5790    5.8210 C.3   130  LYS130      0.1693
     15  C         27.9710   45.3510    5.2930 C.2   130  LYS130      0.2593
     16  O         27.2080   45.4440    4.3280 O.2   130  LYS130     -0.2718
     17  CB        29.5070   47.2740    4.6980 C.3   130  LYS130      0.0285
     18  CG        29.8270   48.7370    5.0120 C.3   130  LYS130      0.0035
     19  CD        30.5260   49.4740    3.8640 C.3   130  LYS130      0.0206
     20  CE        30.5590   50.9750    4.1520 C.3   130  LYS130      0.1093
     21  NZ        31.6550   51.6980    3.4430 N.3   130  LYS130     -0.1314
     22  N         28.1940   44.2110    5.9370 N.am  131  GLY131     -0.1942
     23  CA        27.4680   43.0010    5.6230 C.3   131  GLY131      0.2014
     24  C         26.1510   42.9430    6.3720 C.2   131  GLY131      0.2639
     25  O         25.9050   42.0080    7.1390 O.2   131  GLY131     -0.2714
     26  N         25.3050   43.9450    6.1480 N.am  132  VAL132     -0.1963
     27  CA        23.9910   44.0100    6.7870 C.3   132  VAL132      0.1727
     28  C         22.8770   44.3280    5.8030 C.2   132  VAL132      0.2617
     29  O         23.1300   44.7340    4.6880 O.2   132  VAL132     -0.2715
     30  CB        23.9350   45.0790    7.8980 C.3   132  VAL132      0.0290
     31  CG1       25.0330   44.8410    8.9170 C.3   132  VAL132      0.0023
     32  CG2       24.0290   46.4670    7.3070 C.3   132  VAL132      0.0023
     33  N         21.6360   44.1760    6.2390 N.am  133  THR133     -0.1937
     34  CA        20.4950   44.2880    5.3450 C.3   133  THR133      0.2028
     35  C         19.2030   44.6760    6.0610 C.2   133  THR133      0.2642
     36  O         18.9580   44.2890    7.1910 O.2   133  THR133     -0.2714
     37  CB        20.2270   42.9620    4.6080 C.3   133  THR133      0.1808
     38  OG1       19.0010   43.0740    3.8770 O.3   133  THR133     -0.2208
     39  CG2       20.0940   41.8130    5.5990 C.3   133  THR133      0.0379
     40  N         18.3580   45.4260    5.3700 N.am  134  ALA134     -0.1977
     41  CA        17.0990   45.8800    5.9320 C.3   134  ALA134      0.1597
     42  C         16.1620   44.7080    6.1740 C.2   134  ALA134      0.2287
     43  O         15.2140   44.8220    6.9400 O.2   134  ALA134     -0.2864
     44  CB        16.4530   46.8990    4.9990 C.3   134  ALA134      0.0319
     45  N         19.2080   48.3890    9.8650 N.3   142  SER142     -0.1217
     46  CA        19.5640   47.1940    9.1500 C.3   142  SER142      0.1889
     47  C         20.6420   46.4730    9.9300 C.2   142  SER142      0.2288
     48  O         21.5780   47.0910   10.4050 O.2   142  SER142     -0.2866
     49  CB        20.0430   47.5610    7.7500 C.3   142  SER142      0.2089
     50  OG        19.0590   48.3510    7.0950 O.3   142  SER142     -0.2183
     51  N         28.3230   38.2050    6.7170 N.3   150  TRP150     -0.1241
     52  CA        28.2090   38.5290    5.3010 C.3   150  TRP150      0.1605
     53  C         29.4760   39.1850    4.7400 C.2   150  TRP150      0.2264
     54  O         29.5490   40.4170    4.6670 O.2   150  TRP150     -0.2867
     55  CB        27.0240   39.4600    5.0690 C.3   150  TRP150      0.0550
     56  CG        26.6370   39.5660    3.6430 C.ar  150  TRP150      0.0003
     57  CD1       27.3920   39.2170    2.5630 C.ar  150  TRP150      0.0946
     58  CD2       25.4020   40.0710    3.1220 C.ar  150  TRP150      0.0152
     59  NE1       26.6970   39.4550    1.4050 N.ar  150  TRP150     -0.2442
     60  CE2       25.4770   39.9820    1.7220 C.ar  150  TRP150      0.0810
     61  CE3       24.2400   40.5840    3.7030 C.ar  150  TRP150      0.0012
     62  CZ2       24.4420   40.3890    0.8990 C.ar  150  TRP150      0.0191
     63  CZ3       23.2050   40.9930    2.8750 C.ar  150  TRP150      0.0001
     64  CH2       23.3150   40.8920    1.4910 C.ar  150  TRP150      0.0015
     65  N         31.8390   40.7660    2.2510 N.3   152  THR152     -0.1218
     66  CA        31.7760   41.5040    0.9970 C.3   152  THR152      0.1862
     67  C         33.1870   41.8720    0.5330 C.2   152  THR152      0.2287
     68  O         34.1670   41.6090    1.2310 O.2   152  THR152     -0.2866
     69  CB        30.9180   42.7820    1.1270 C.3   152  THR152      0.1770
     70  OG1       31.2540   43.4640    2.3460 O.3   152  THR152     -0.2211
     71  CG2       29.4400   42.4290    1.1420 C.3   152  THR152      0.0375
     72  N         25.0300   33.4400   -1.0830 N.3   180  HIS180     -0.1241
     73  CA        24.1980   34.5390   -1.5650 C.3   180  HIS180      0.1621
     74  C         24.1200   34.5100   -3.0810 C.2   180  HIS180      0.2264
     75  O         25.1420   34.4450   -3.7740 O.2   180  HIS180     -0.2867
     76  CB        24.7190   35.9090   -1.0820 C.3   180  HIS180      0.0745
     77  CG        23.8710   37.0690   -1.5140 C.ar  180  HIS180      0.0817
     78  ND1       24.3660   38.1100   -2.2740 N.ar  180  HIS180     -0.2268
     79  CD2       22.5640   37.3500   -1.3020 C.ar  180  HIS180      0.1154
     80  CE1       23.4020   38.9800   -2.5090 C.ar  180  HIS180      0.1986
     81  NE2       22.2960   38.5440   -1.9300 N.ar  180  HIS180     -0.2212
     82  N         20.6350   39.3830   -7.4510 N.3   183  PRO183     -0.2116
     83  CA        19.4720   39.3810   -8.3340 C.3   183  PRO183      0.1372
     84  C         19.9230   39.5630   -9.7800 C.2   183  PRO183      0.2244
     85  O         19.2950   39.0510  -10.7080 O.2   183  PRO183     -0.2868
     86  CB        18.6860   40.6160   -7.8470 C.3   183  PRO183      0.0268
     87  CG        19.4240   41.0980   -6.5820 C.3   183  PRO183      0.0207
     88  CD        20.8240   40.7160   -6.8640 C.3   183  PRO183      0.0892
     89  N         24.8960   42.8610  -12.0730 N.3   186  THR186     -0.1203
     90  CA        25.3490   44.1910  -11.6720 C.3   186  THR186      0.1994
     91  C         25.7180   44.2500  -10.1850 C.2   186  THR186      0.2617
     92  O         26.7280   44.8490   -9.8180 O.2   186  THR186     -0.2717
     93  CB        24.2900   45.2770  -11.9860 C.3   186  THR186      0.1784
     94  OG1       23.8320   45.1470  -13.3450 O.3   186  THR186     -0.2211
     95  CG2       24.8790   46.6670  -11.7660 C.3   186  THR186      0.0376
     96  N         24.8990   43.6180   -9.3400 N.am  187  ASP187     -0.1973
     97  CA        25.1520   43.5490   -7.8950 C.3   187  ASP187      0.1709
     98  C         26.2730   42.5730   -7.5610 C.2   187  ASP187      0.2293
     99  O         27.0060   42.7740   -6.6010 O.2   187  ASP187     -0.2864
    100  CB        23.8930   43.1360   -7.1210 C.3   187  ASP187      0.1436
    101  CG        22.6640   43.9180   -7.5340 C.2   187  ASP187      0.3671
    102  OD1       22.1890   44.7460   -6.7290 O.co2 187  ASP187     -0.2456
    103  OD2       22.1740   43.7060   -8.6640 O.co2 187  ASP187     -0.2456
    104  N         29.4110   44.8410   -7.5380 N.3   190  SER190     -0.1202
    105  CA        29.4810   45.8140   -6.4510 C.3   190  SER190      0.2020
    106  C         29.5910   45.1300   -5.0840 C.2   190  SER190      0.2618
    107  O         29.9720   45.7600   -4.0970 O.2   190  SER190     -0.2717
    108  CB        28.2810   46.7620   -6.4990 C.3   190  SER190      0.2103
    109  OG        27.1960   46.1630   -7.1840 O.3   190  SER190     -0.2182
    110  N         29.2760   43.8350   -5.0450 N.am  191  LEU191     -0.1979
    111  CA        29.3140   43.0490   -3.8090 C.3   191  LEU191      0.1596
    112  C         30.5720   42.1920   -3.6900 C.2   191  LEU191      0.2287
    113  O         31.3040   42.3010   -2.7160 O.2   191  LEU191     -0.2864
    114  CB        28.0670   42.1600   -3.6830 C.3   191  LEU191      0.0297
    115  CG        26.8540   42.7410   -2.9560 C.3   191  LEU191      0.0022
    116  CD1       25.6120   41.9140   -3.2240 C.3   191  LEU191      0.0001
    117  CD2       27.1330   42.8010   -1.4800 C.3   191  LEU191      0.0001
    118  N         10.3890   40.2310   -5.2040 N.3   219  LYS219     -0.1245
    119  CA        11.0100   40.6270   -3.9620 C.3   219  LYS219      0.1561
    120  C         10.2650   40.0080   -2.7930 C.2   219  LYS219      0.2260
    121  O          9.0500   40.1720   -2.6510 O.2   219  LYS219     -0.2867
    122  CB        11.0570   42.1470   -3.8370 C.3   219  LYS219      0.0271
    123  CG        11.9260   42.8180   -4.8660 C.3   219  LYS219      0.0035
    124  CD        12.0800   44.2790   -4.5160 C.3   219  LYS219      0.0206
    125  CE        12.4940   45.1000   -5.7190 C.3   219  LYS219      0.1093
    126  NZ        12.5730   46.5410   -5.3370 N.3   219  LYS219     -0.1314
    127  N         11.1980   42.6830    0.4570 N.3   222  ASP222     -0.1225
    128  CA        11.8860   43.7090   -0.3060 C.3   222  ASP222      0.1805
    129  C         13.3280   43.2960   -0.5820 C.2   222  ASP222      0.2598
    130  O         14.2630   44.0180   -0.2610 O.2   222  ASP222     -0.2718
    131  CB        11.8370   45.0330    0.4510 C.3   222  ASP222      0.1424
    132  CG        12.3370   46.1990   -0.3740 C.2   222  ASP222      0.3668
    133  OD1       11.9210   46.3220   -1.5480 O.co2 222  ASP222     -0.2456
    134  OD2       13.1430   46.9950    0.1610 O.co2 222  ASP222     -0.2456
    135  N         13.4920   42.1160   -1.1680 N.am  223  GLN223     -0.1965
    136  CA        14.7980   41.5850   -1.5280 C.3   223  GLN223      0.1733
    137  C         14.6410   40.7430   -2.7850 C.2   223  GLN223      0.2616
    138  O         13.7990   39.8570   -2.8450 O.2   223  GLN223     -0.2715
    139  CB        15.3560   40.7230   -0.3940 C.3   223  GLN223      0.0408
    140  CG        15.7270   41.4820    0.8530 C.3   223  GLN223      0.0908
    141  CD        16.9060   42.3940    0.6470 C.2   223  GLN223      0.2608
    142  OE1       17.6610   42.2520   -0.3170 O.2   223  GLN223     -0.2717
    143  NE2       17.0710   43.3480    1.5520 N.am  223  GLN223     -0.0878
    144  N         15.4420   41.0290   -3.7980 N.am  224  ALA224     -0.1963
    145  CA        15.3660   40.2570   -5.0240 C.3   224  ALA224      0.1728
    146  C         16.4260   39.1660   -5.0070 C.2   224  ALA224      0.2616
    147  O         16.3530   38.2030   -5.7570 O.2   224  ALA224     -0.2715
    148  CB        15.5440   41.1640   -6.2320 C.3   224  ALA224      0.0334
    149  N         17.4250   39.3230   -4.1520 N.am  225  GLY225     -0.1955
    150  CA        18.4430   38.3040   -4.0190 C.3   225  GLY225      0.1869
    151  C         17.9090   37.1970   -3.1380 C.2   225  GLY225      0.2309
    152  O         16.8300   37.3210   -2.5540 O.2   225  GLY225     -0.2863
@<TRIPOS>BOND
     1    94    93    1
     2    89    90    1
     3    93    95    1
     4    93    90    1
     5    90    91    1
     6    85    84    2
     7    91    92    2
     8    91    96   am
     9    84    83    1
    10    96    97    1
    11   103   101   ar
    12    83    86    1
    13    83    82    1
    14    97    98    1
    15    97   100    1
    16    86    87    1
    17    98    99    2
    18   104   105    1
    19   101   100    1
    20   101   102   ar
    21    82    88    1
    22   109   108    1
    23    88    87    1
    24   108   105    1
    25   105   106    1
    26   148   145    1
    27   147   146    2
    28   125   126    1
    29   125   124    1
    30   118   119    1
    31   106   110   am
    32   106   107    2
    33   110   111    1
    34   145   146    1
    35   145   144    1
    36   146   149   am
    37   123   124    1
    38   123   122    1
    39   149   150    1
    40   150   151    1
    41   119   122    1
    42   119   120    1
    43   111   112    1
    44   111   114    1
    45   144   137   am
    46    75    74    2
    47   112   113    2
    48   114   115    1
    49   116   115    1
    50   151   152    2
    51    74    73    1
    52   115   117    1
    53   138   137    2
    54   120   121    2
    55   137   136    1
    56    80    78   ar
    57    80    81   ar
    58    78    77   ar
    59    81    79   ar
    60    73    72    1
    61    73    76    1
    62   133   132   ar
    63   136   135    1
    64   136   139    1
    65    77    79   ar
    66    77    76    1
    67   135   129   am
    68    12    11    1
    69   129   128    1
    70   129   130    2
    71   139   140    1
    72   132   134   ar
    73   132   131    1
    74   142   141    2
    75   128   131    1
    76   128   127    1
    77    11    10   ar
    78    11     9   ar
    79    10     8   ar
    80    67    66    1
    81    67    68    2
    82   141   140    1
    83   141   143   am
    84    62    64   ar
    85    62    60   ar
    86    66    69    1
    87    66    65    1
    88    69    71    1
    89    69    70    1
    90    59    60   ar
    91    59    57   ar
    92    64    63   ar
    93     9     7   ar
    94     8     6   ar
    95    60    58   ar
    96    57    56   ar
    97     7     6   ar
    98     6     5    1
    99    63    61   ar
   100    58    56   ar
   101    58    61   ar
   102    21    20    1
   103     3     4    2
   104     3     2    1
   105    56    55    1
   106    19    20    1
   107    19    18    1
   108    38    37    1
   109     5     2    1
   110     2     1    1
   111    16    15    2
   112    37    34    1
   113    37    39    1
   114    54    53    2
   115    29    28    2
   116    17    18    1
   117    17    14    1
   118    53    52    1
   119    44    41    1
   120    55    52    1
   121    15    14    1
   122    15    22   am
   123    52    51    1
   124    34    35    1
   125    34    33    1
   126    40    41    1
   127    40    35   am
   128    23    22    1
   129    23    24    1
   130    28    33   am
   131    28    27    1
   132    14    13    1
   133    41    42    1
   134    35    36    2
   135    26    24   am
   136    26    27    1
   137    42    43    2
   138    24    25    2
   139    27    30    1
   140    50    49    1
   141    32    30    1
   142    49    46    1
   143    30    31    1
   144    46    45    1
   145    46    47    1
   146    47    48    2
