@<TRIPOS>MOLECULE
tmp/2wrmA00.pdb
 124 120 0 0 0
SMALL
GASTEIGER

@<TRIPOS>ATOM
      1  N         36.0880   13.0410   20.0620 N.3   419  LEU419     -0.1245
      2  CA        36.2870   12.1010   18.9900 C.3   419  LEU419      0.1561
      3  C         35.5990   12.5450   17.7050 C.2   419  LEU419      0.2260
      4  O         36.2090   12.4870   16.6470 O.2   419  LEU419     -0.2867
      5  CB        35.8560   10.7080   19.4380 C.3   419  LEU419      0.0270
      6  CG        34.4140   10.2350   19.3760 C.3   419  LEU419      0.0019
      7  CD1       34.8840    8.5310   19.4100 C.3   419  LEU419      0.0000
      8  CD2       34.4350    8.6690   19.4280 C.3   419  LEU419      0.0001
      9  N         37.0370   15.9610   16.1240 N.3   422  ARG422     -0.1231
     10  CA        38.3480   15.7350   15.5260 C.3   422  ARG422      0.1694
     11  C         38.2380   14.9150   14.2550 C.2   422  ARG422      0.2591
     12  O         38.7590   15.3190   13.2130 O.2   422  ARG422     -0.2718
     13  CB        39.2780   15.0470   16.5040 C.3   422  ARG422      0.0321
     14  CG        39.6480   15.9090   17.7090 C.3   422  ARG422      0.0489
     15  CD        40.3470   15.1480   18.7800 C.3   422  ARG422      0.2205
     16  NE        41.7250   14.8540   18.4000 N.pl3 422  ARG422     -0.0865
     17  CZ        42.4920   13.9220   18.9380 C.cat 422  ARG422      0.5346
     18  NH1       42.0520   13.1340   19.9140 N.pl3 422  ARG422      0.1354
     19  NH2       43.7320   13.7910   18.5020 N.pl3 422  ARG422      0.1354
     20  N         37.5470   13.7780   14.3230 N.am  423  MET423     -0.1979
     21  CA        37.4720   12.8740   13.1660 C.3   423  MET423      0.1605
     22  C         36.5680   13.3840   12.0440 C.2   423  MET423      0.2287
     23  O         36.8740   13.1870   10.8590 O.2   423  MET423     -0.2864
     24  CB        37.0300   11.4630   13.5780 C.3   423  MET423      0.0413
     25  CG        38.0390   10.7280   14.4420 C.3   423  MET423      0.0598
     26  SD        37.8160    8.9480   14.4990 S.3   423  MET423     -0.1393
     27  CE        37.8190    8.5730   12.7600 C.3   423  MET423      0.0692
     28  N         44.5070   12.7660   22.3070 N.3   474  LEU474     -0.1231
     29  CA        43.6040   11.8960   23.0450 C.3   474  LEU474      0.1693
     30  C         43.2880   10.6300   22.2480 C.2   474  LEU474      0.2592
     31  O         43.1290   10.6640   21.0340 O.2   474  LEU474     -0.2718
     32  CB        42.3180   12.6330   23.4450 C.3   474  LEU474      0.0284
     33  CG        42.5050   13.8010   24.4240 C.3   474  LEU474      0.0019
     34  CD1       41.1420   14.2510   24.9570 C.3   474  LEU474      0.0001
     35  CD2       43.4360   13.4590   25.5790 C.3   474  LEU474      0.0001
     36  N         43.2110    9.5180   22.9710 N.am  475  HIS475     -0.1962
     37  CA        43.0840    8.1610   22.4230 C.3   475  HIS475      0.1787
     38  C         42.1900    7.4410   23.4580 C.2   475  HIS475      0.2621
     39  O         41.9810    7.9500   24.5670 O.2   475  HIS475     -0.2715
     40  CB        44.4500    7.4560   22.4520 C.3   475  HIS475      0.0785
     41  CG        44.7930    7.0790   23.8370 C.ar  475  HIS475      0.0821
     42  ND1       44.6910    8.0300   24.8320 N.ar  475  HIS475     -0.2267
     43  CD2       44.9360    5.8780   24.4620 C.ar  475  HIS475      0.1154
     44  CE1       44.8960    7.4530   25.9990 C.ar  475  HIS475      0.1986
     45  NE2       45.0310    6.1430   25.8120 N.ar  475  HIS475     -0.2212
     46  N         41.7020    6.2510   23.1280 N.am  476  SER476     -0.1936
     47  CA        41.0220    5.3850   24.0960 C.3   476  SER476      0.2055
     48  C         39.8710    6.0860   24.8150 C.2   476  SER476      0.2643
     49  O         39.8490    6.2050   26.0400 O.2   476  SER476     -0.2714
     50  CB        42.0150    4.8110   25.1080 C.3   476  SER476      0.2130
     51  OG        43.0460    4.1270   24.4180 O.3   476  SER476     -0.2179
     52  N         38.9350    6.5610   24.0050 N.am  477  TYR477     -0.1973
     53  CA        37.7120    7.1810   24.4670 C.3   477  TYR477      0.1639
     54  C         36.8070    6.1420   25.1010 C.2   477  TYR477      0.2290
     55  O         36.9970    4.9360   24.9060 O.2   477  TYR477     -0.2864
     56  CB        36.9960    7.8270   23.2900 C.3   477  TYR477      0.0560
     57  CG        37.6830    9.0560   22.7350 C.ar  477  TYR477     -0.0198
     58  CD1       38.6060    8.9700   21.6920 C.ar  477  TYR477     -0.0009
     59  CD2       37.3990   10.3110   23.2420 C.ar  477  TYR477     -0.0009
     60  CE1       39.2080   10.1130   21.1760 C.ar  477  TYR477      0.0417
     61  CE2       37.9970   11.4510   22.7390 C.ar  477  TYR477      0.0417
     62  CZ        38.8950   11.3590   21.7080 C.ar  477  TYR477      0.1957
     63  OH        39.4760   12.5120   21.2260 O.3   477  TYR477     -0.2866
     64  N         31.8670    6.4020   22.4380 N.3   482  ILE482     -0.1245
     65  CA        32.0180    5.7880   21.1200 C.3   482  ILE482      0.1561
     66  C         30.6660    5.2830   20.6220 C.2   482  ILE482      0.2260
     67  O         30.2850    5.5770   19.4990 O.2   482  ILE482     -0.2867
     68  CB        33.0640    4.6590   21.1650 C.3   482  ILE482      0.0252
     69  CG1       34.4650    5.2530   21.3140 C.3   482  ILE482      0.0019
     70  CG2       32.9950    3.8060   19.9030 C.3   482  ILE482      0.0019
     71  CD1       35.4920    4.2860   21.9130 C.3   482  ILE482      0.0001
     72  N         33.4790    6.0920   10.9510 N.3   497  LEU497     -0.1231
     73  CA        34.7420    6.6850   11.3800 C.3   497  LEU497      0.1693
     74  C         35.9250    6.2020   10.5460 C.2   497  LEU497      0.2591
     75  O         36.8970    6.9410   10.3420 O.2   497  LEU497     -0.2718
     76  CB        34.9740    6.3850   12.8630 C.3   497  LEU497      0.0284
     77  CG        33.9940    7.0550   13.8350 C.3   497  LEU497      0.0019
     78  CD1       34.4560    6.8610   15.2670 C.3   497  LEU497      0.0001
     79  CD2       33.8390    8.5350   13.5170 C.3   497  LEU497      0.0001
     80  N         35.8220    4.9660   10.0580 N.am  498  ARG498     -0.1980
     81  CA        36.7750    4.4130    9.0960 C.3   498  ARG498      0.1597
     82  C         36.9350    5.3820    7.9410 C.2   498  ARG498      0.2287
     83  O         38.0520    5.7670    7.6240 O.2   498  ARG498     -0.2864
     84  CB        36.2980    3.0450    8.5560 C.3   498  ARG498      0.0334
     85  CG        37.3650    1.9360    8.5760 C.3   498  ARG498      0.0492
     86  CD        37.8130    1.4350    7.1940 C.3   498  ARG498      0.2205
     87  NE        38.5240    0.1480    7.2700 N.pl3 498  ARG498     -0.0865
     88  CZ        38.0500   -1.0390    6.8550 C.cat 498  ARG498      0.5346
     89  NH1       36.8370   -1.1590    6.3190 N.pl3 498  ARG498      0.1354
     90  NH2       38.8060   -2.1280    6.9880 N.pl3 498  ARG498      0.1354
     91  N         38.7610    8.7880    9.1680 N.3   501  ARG501     -0.1245
     92  CA        40.2170    8.6560    9.4960 C.3   501  ARG501      0.1563
     93  C         41.1300    8.7930    8.2610 C.2   501  ARG501      0.2260
     94  O         41.8320    9.7570    8.0080 O.2   501  ARG501     -0.2867
     95  CB        40.4770    7.2860   10.1400 C.3   501  ARG501      0.0307
     96  CG        41.9070    6.7600    9.9250 C.3   501  ARG501      0.0489
     97  CD        42.4410    5.9050   11.0470 C.3   501  ARG501      0.2205
     98  NE        43.7420    5.3350   10.6930 N.pl3 501  ARG501     -0.0865
     99  CZ        44.8650    5.4630   11.4050 C.cat 501  ARG501      0.5346
    100  NH1       44.8880    6.1560   12.5490 N.pl3 501  ARG501      0.1354
    101  NH2       45.9890    4.8940   10.9560 N.pl3 501  ARG501      0.1354
    102  N         46.3050   12.4430   14.9600 N.3   528  TRP528     -0.1241
    103  CA        45.5340   11.2240   15.2000 C.3   528  TRP528      0.1605
    104  C         45.4060   10.3330   13.9520 C.2   528  TRP528      0.2264
    105  O         45.2920    9.1220   14.0690 O.2   528  TRP528     -0.2867
    106  CB        44.1250   11.5670   15.7010 C.3   528  TRP528      0.0550
    107  CG        43.2880   12.3840   14.7580 C.ar  528  TRP528      0.0003
    108  CD1       43.1610   13.7310   14.7540 C.ar  528  TRP528      0.0946
    109  CD2       42.4420   11.9050   13.7110 C.ar  528  TRP528      0.0152
    110  NE1       42.2980   14.1320   13.7670 N.ar  528  TRP528     -0.2442
    111  CE2       41.8430   13.0270   13.1070 C.ar  528  TRP528      0.0810
    112  CE3       42.1400   10.6380   13.2040 C.ar  528  TRP528      0.0012
    113  CZ2       40.9670   12.9230   12.0350 C.ar  528  TRP528      0.0191
    114  CZ3       41.2610   10.5370   12.1510 C.ar  528  TRP528      0.0001
    115  CH2       40.6880   11.6710   11.5710 C.ar  528  TRP528      0.0015
    116  N         49.2930    8.4420   12.8670 N.3   531  LYS531     -0.1245
    117  CA        49.6030    7.4510   13.8810 C.3   531  LYS531      0.1561
    118  C         49.8000    8.1900   15.2080 C.2   531  LYS531      0.2260
    119  O         48.9350    8.1440   16.0900 O.2   531  LYS531     -0.2867
    120  CB        50.8550    6.6400   13.4720 C.3   531  LYS531      0.0271
    121  CG        51.7120    6.1040   14.6150 C.3   531  LYS531      0.0035
    122  CD        50.9280    5.1990   15.5640 C.3   531  LYS531      0.0206
    123  CE        51.6970    4.9650   16.8540 C.3   531  LYS531      0.1093
    124  NZ        52.9280    4.1560   16.6130 N.3   531  LYS531     -0.1314
@<TRIPOS>BOND
     1    89    88    1
     2    88    90    1
     3    88    87    2
     4    86    87    1
     5    86    85    1
     6    83    82    2
     7    82    81    1
     8    94    93    2
     9    93    92    1
    10    84    85    1
    11    84    81    1
    12    81    80    1
    13    91    92    1
    14    92    95    1
    15    96    95    1
    16    96    97    1
    17    80    74   am
    18    75    74    2
    19    74    73    1
    20    98    97    1
    21    98    99    2
    22    23    22    2
    23    72    73    1
    24   101    99    1
    25    73    76    1
    26    99   100    1
    27   115   113   ar
    28   115   114   ar
    29   113   111   ar
    30    22    21    1
    31   114   112   ar
    32    27    26    1
    33    76    77    1
    34   116   117    1
    35   111   109   ar
    36   111   110   ar
    37    21    24    1
    38    21    20    1
    39   112   109   ar
    40    12    11    2
    41   120   117    1
    42   120   121    1
    43    79    77    1
    44    24    25    1
    45   109   107   ar
    46   110   108   ar
    47    77    78    1
    48   117   118    1
    49   104   105    2
    50   104   103    1
    51    11    20   am
    52    11    10    1
    53    25    26    1
    54   121   122    1
    55   108   107   ar
    56   107   106    1
    57   102   103    1
    58   103   106    1
    59   118   119    2
    60    10     9    1
    61    10    13    1
    62   122   123    1
    63    13    14    1
    64   124   123    1
    65     4     3    2
    66     3     2    1
    67    14    15    1
    68    16    15    1
    69    16    17    2
    70    19    17    1
    71    17    18    1
    72     2     5    1
    73     2     1    1
    74     6     8    1
    75     6     5    1
    76     7     8    1
    77    67    66    2
    78    70    68    1
    79    66    65    1
    80    31    30    2
    81    65    68    1
    82    65    64    1
    83    68    69    1
    84    60    58   ar
    85    60    62   ar
    86    63    62    1
    87    69    71    1
    88    58    57   ar
    89    62    61   ar
    90    30    36   am
    91    30    29    1
    92    28    29    1
    93    37    40    1
    94    37    36    1
    95    37    38    1
    96    40    41    1
    97    57    59   ar
    98    57    56    1
    99    61    59   ar
   100    29    32    1
   101    46    38   am
   102    46    47    1
   103    56    53    1
   104    32    33    1
   105    38    39    2
   106    41    43   ar
   107    41    42   ar
   108    52    53    1
   109    52    48   am
   110    47    48    1
   111    47    50    1
   112    51    50    1
   113    33    34    1
   114    33    35    1
   115    43    45   ar
   116    53    54    1
   117    48    49    2
   118    42    44   ar
   119    55    54    2
   120    45    44   ar
