@<TRIPOS>MOLECULE
tmp/2wrmA01.pdb
 77 71 0 0 0
SMALL
GASTEIGER

@<TRIPOS>ATOM
      1  N         12.6790   25.5590    5.9910 N.3    19  SER19      -0.1217
      2  CA        12.4620   24.4580    6.9320 C.3    19  SER19       0.1889
      3  C         13.2090   23.1770    6.5360 C.2    19  SER19       0.2288
      4  O         13.3070   22.2400    7.3260 O.2    19  SER19      -0.2866
      5  CB        10.9720   24.1300    6.9850 C.3    19  SER19       0.2089
      6  OG        10.5030   23.6970    5.7030 O.3    19  SER19      -0.2183
      7  N         14.6180   22.8780   10.0300 N.3    39  ALA39      -0.1231
      8  CA        14.7300   24.1310   10.7780 C.3    39  ALA39       0.1694
      9  C         13.3460   24.6380   11.1700 C.2    39  ALA39       0.2593
     10  O         12.3560   24.4040   10.4490 O.2    39  ALA39      -0.2718
     11  CB        15.4660   25.1700    9.9560 C.3    39  ALA39       0.0304
     12  N         13.2690   25.3380   12.3060 N.am   40  THR40      -0.1939
     13  CA        12.0160   25.8820   12.7880 C.3    40  THR40       0.2028
     14  C         11.7080   27.2080   12.0860 C.2    40  THR40       0.2642
     15  O         12.6120   27.9340   11.6660 O.2    40  THR40      -0.2714
     16  CB        12.0340   26.0820   14.3350 C.3    40  THR40       0.1808
     17  OG1       13.0780   26.9860   14.6970 O.3    40  THR40      -0.2208
     18  CG2       12.3980   24.7930   15.0820 C.3    40  THR40       0.0379
     19  N         10.4220   27.4960   11.9550 N.am   41  THR41      -0.1950
     20  CA         9.9250   28.7300   11.3520 C.3    41  THR41       0.1897
     21  C          8.7180   29.2630   12.1110 C.2    41  THR41       0.2313
     22  O          8.1540   28.5800   12.9660 O.2    41  THR41      -0.2863
     23  CB         9.4760   28.4820    9.8890 C.3    41  THR41       0.1794
     24  OG1        8.2120   27.7930    9.8880 O.3    41  THR41      -0.2208
     25  CG2       10.4330   27.5550    9.1690 C.3    41  THR41       0.0378
     26  N          5.7530   29.3440   11.2470 N.3    43  ARG43      -0.1231
     27  CA         4.5360   28.5540   11.0290 C.3    43  ARG43       0.1693
     28  C          4.1650   27.6810   12.2160 C.2    43  ARG43       0.2592
     29  O          2.9940   27.3630   12.4060 O.2    43  ARG43      -0.2718
     30  CB         4.6880   27.6910    9.7810 C.3    43  ARG43       0.0284
     31  CG         4.9710   28.5070    8.4600 C.3    43  ARG43       0.0021
     32  CD         5.1000   27.0780    6.7500 C.3    43  ARG43       0.2670
     33  NE         5.7020   27.9480    5.7380 N.pl3  43  ARG43      -0.0825
     34  CZ         6.9710   27.8850    5.3140 C.cat  43  ARG43       0.5347
     35  NH1        7.8190   26.9830    5.8010 N.pl3  43  ARG43       0.1354
     36  NH2        7.3980   28.7330    4.3800 N.pl3  43  ARG43       0.1354
     37  N          5.1630   27.2930   13.0170 N.am   44  SER44      -0.1952
     38  CA         4.9320   26.4440   14.1810 C.3    44  SER44       0.1924
     39  C          4.8010   27.2600   15.4680 C.2    44  SER44       0.2314
     40  O          4.6160   26.6820   16.5550 O.2    44  SER44      -0.2863
     41  CB         6.0690   25.4230   14.3210 C.3    44  SER44       0.2116
     42  OG         7.3450   26.0630   14.4140 O.3    44  SER44      -0.2180
     43  N          1.9920   26.9800   18.2260 N.3    47  LEU47      -0.1245
     44  CA         1.9960   25.8220   19.1060 C.3    47  LEU47       0.1561
     45  C          2.9770   25.9890   20.2700 C.2    47  LEU47       0.2260
     46  O          2.7490   25.4850   21.3710 O.2    47  LEU47      -0.2867
     47  CB         2.4110   24.6040   18.3090 C.3    47  LEU47       0.0270
     48  CG         2.7880   23.4070   19.3670 C.3    47  LEU47       0.0019
     49  CD1        1.5900   22.6560   19.9520 C.3    47  LEU47       0.0001
     50  CD2        3.6410   22.3610   18.6490 C.3    47  LEU47       0.0001
     51  N          9.4840   16.9940   14.9790 N.3   154  ARG154     -0.1231
     52  CA         9.9090   18.3860   15.0530 C.3   154  ARG154      0.1694
     53  C          9.3490   19.1140   16.2570 C.2   154  ARG154      0.2592
     54  O          8.1800   18.9750   16.5640 O.2   154  ARG154     -0.2718
     55  CB         9.4600   19.1270   13.8030 C.3   154  ARG154      0.0321
     56  CG         9.7720   18.3940   12.5340 C.3   154  ARG154      0.0489
     57  CD         9.7380   19.2700   11.3020 C.3   154  ARG154      0.2205
     58  NE        10.0170   18.4910   10.1050 N.pl3 154  ARG154     -0.0865
     59  CZ        10.0370   18.9910    8.8760 C.cat 154  ARG154      0.5346
     60  NH1        9.8160   20.2770    8.6710 N.pl3 154  ARG154      0.1354
     61  NH2       10.2940   18.1980    7.8470 N.pl3 154  ARG154      0.1354
     62  N         10.1790   19.9150   16.9150 N.am  155  LYS155     -0.1963
     63  CA         9.6970   20.8370   17.9340 C.3   155  LYS155      0.1756
     64  C          9.2300   22.0880   17.1940 C.2   155  LYS155      0.2461
     65  O          9.7360   22.3750   16.1130 O.2   155  LYS155     -0.2730
     66  CB        10.8210   21.2210   18.9050 C.3   155  LYS155      0.0570
     67  CG        11.5990   20.0490   19.5090 C.2   155  LYS155     -0.0238
     68  CD        12.5890   19.9980   20.3990 C.2   155  LYS155     -0.0048
     69  CE        13.9820   21.7520   19.3920 C.3   155  LYS155      0.1297
     70  NZ        14.7400   20.7570   20.1940 N.3   155  LYS155     -0.1297
     71  N          8.3300   22.8680   17.7810 N.am  156  PRO156     -0.2727
     72  CA         7.9640   24.1500   17.1780 C.3   156  PRO156      0.1402
     73  C          9.0810   25.1710   17.4490 C.2   156  PRO156      0.2269
     74  O          9.9830   24.9000   18.2460 O.2   156  PRO156     -0.2865
     75  CB         6.6720   24.5130   17.8980 C.3   156  PRO156      0.0296
     76  CG         6.8190   23.9060   19.2610 C.3   156  PRO156      0.0237
     77  CD         7.6520   22.6540   19.0780 C.3   156  PRO156      0.0939
@<TRIPOS>BOND
     1    36    34    1
     2    34    33    2
     3    34    35    1
     4     6     5    1
     5    33    32    1
     6     1     2    1
     7     3     2    1
     8     3     4    2
     9     2     5    1
    10    61    59    1
    11    31    30    1
    12    60    59    1
    13    59    58    2
    14    25    23    1
    15    30    27    1
    16    24    23    1
    17    23    20    1
    18    11     8    1
    19     7     8    1
    20    58    57    1
    21    10     9    2
    22     8     9    1
    23    27    26    1
    24    27    28    1
    25     9    12   am
    26    57    56    1
    27    20    19    1
    28    20    21    1
    29    15    14    2
    30    19    14   am
    31    14    13    1
    32    21    22    2
    33    28    29    2
    34    28    37   am
    35    12    13    1
    36    56    55    1
    37    13    16    1
    38    37    38    1
    39    55    52    1
    40    38    41    1
    41    38    39    1
    42    41    42    1
    43    16    17    1
    44    16    18    1
    45    51    52    1
    46    52    53    1
    47    39    40    2
    48    65    64    2
    49    53    54    2
    50    53    62   am
    51    62    63    1
    52    72    73    1
    53    72    71    1
    54    72    75    1
    55    64    71   am
    56    64    63    1
    57    73    74    2
    58    71    77    1
    59    75    76    1
    60    63    66    1
    61    43    44    1
    62    47    44    1
    63    47    48    1
    64    50    48    1
    65    66    67    1
    66    77    76    1
    67    44    45    1
    68    48    49    1
    69    69    70    1
    70    67    68    2
    71    45    46    2
