@<TRIPOS>MOLECULE
tmp/2wsaA01.pdb
 238 232 0 0 0
SMALL
GASTEIGER

@<TRIPOS>ATOM
      1  N         28.2470   -7.1080   17.5610 N.3    70  TYR70      -0.1227
      2  CA        27.8020   -6.4150   16.3510 C.3    70  TYR70       0.1736
      3  C         28.6350   -5.1550   16.0290 C.2    70  TYR70       0.2595
      4  O         29.7600   -4.9870   16.5510 O.2    70  TYR70      -0.2718
      5  CB        26.2620   -6.1910   16.3960 C.3    70  TYR70       0.0548
      6  CG        25.5570   -5.9340   15.0590 C.ar   70  TYR70      -0.0200
      7  CD1       25.7890   -6.7540   13.9400 C.ar   70  TYR70      -0.0009
      8  CD2       24.6070   -4.8990   14.9440 C.ar   70  TYR70      -0.0009
      9  CE1       25.1640   -6.5130   12.7210 C.ar   70  TYR70       0.0417
     10  CE2       23.9690   -4.6270   13.6990 C.ar   70  TYR70       0.0417
     11  CZ        24.2360   -5.4470   12.6030 C.ar   70  TYR70       0.1957
     12  OH        23.6010   -5.1960   11.3950 O.3    70  TYR70      -0.2866
     13  N         28.0970   -4.2820   15.1690 N.am   71  VAL71      -0.1966
     14  CA        28.8770   -3.1520   14.6170 C.3    71  VAL71       0.1727
     15  C         29.5100   -2.2350   15.6880 C.2    71  VAL71       0.2616
     16  O         28.8230   -1.7670   16.6020 O.2    71  VAL71      -0.2715
     17  CB        28.0250   -2.2830   13.6630 C.3    71  VAL71       0.0290
     18  CG1       28.8580   -1.1060   13.1000 C.3    71  VAL71       0.0023
     19  CG2       27.4770   -3.1070   12.4780 C.3    71  VAL71       0.0023
     20  N         30.8230   -2.0240   15.5610 N.am   72  GLU72      -0.1963
     21  CA        31.5430   -1.0520   16.3860 C.3    72  GLU72       0.1733
     22  C         32.1620   -0.0180   15.4820 C.2    72  GLU72       0.2616
     23  O         32.3980   -0.2630   14.2960 O.2    72  GLU72      -0.2715
     24  CB        32.7140   -1.6810   17.1460 C.3    72  GLU72       0.0429
     25  CG        32.3540   -2.5980   18.2440 C.3    72  GLU72       0.1163
     26  CD        33.5580   -3.3130   18.8670 C.2    72  GLU72       0.3649
     27  OE1       33.3250   -4.3550   19.4640 O.co2  72  GLU72      -0.2457
     28  OE2       34.7190   -2.8460   18.7870 O.co2  72  GLU72      -0.2457
     29  N         32.4800    1.1360   16.0480 N.am   73  ASP73      -0.1971
     30  CA        33.3450    2.0660   15.3080 C.3    73  ASP73       0.1709
     31  C         34.7650    1.5100   15.2280 C.2    73  ASP73       0.2293
     32  O         35.0750    0.5010   15.8210 O.2    73  ASP73      -0.2864
     33  CB        33.3440    3.4190   15.9790 C.3    73  ASP73       0.1436
     34  CG        34.0620    3.3980   17.2830 C.2    73  ASP73       0.3671
     35  OD1       33.6710    2.5980   18.1600 O.co2  73  ASP73      -0.2456
     36  OD2       35.0460    4.1560   17.4280 O.co2  73  ASP73      -0.2456
     37  N         32.2530    2.5310   20.5430 N.3    78  PHE78      -0.1227
     38  CA        30.7760    2.3660   20.5440 C.3    78  PHE78       0.1736
     39  C         30.4020    1.0720   19.8740 C.2    78  PHE78       0.2595
     40  O         31.0030    0.7060   18.8550 O.2    78  PHE78      -0.2718
     41  CB        30.0700    3.5390   19.8130 C.3    78  PHE78       0.0547
     42  CG        30.5050    4.9000   20.2940 C.ar   78  PHE78      -0.0202
     43  CD1       30.3430    5.2610   21.6070 C.ar   78  PHE78      -0.0042
     44  CD2       31.1300    5.7950   19.4240 C.ar   78  PHE78      -0.0042
     45  CE1       30.8070    6.5410   22.0790 C.ar   78  PHE78      -0.0003
     46  CE2       31.5710    7.0570   19.8630 C.ar   78  PHE78      -0.0003
     47  CZ        31.4450    7.4220   21.1970 C.ar   78  PHE78      -0.0000
     48  N         29.3710    0.3870   20.3850 N.am   79  ARG79      -0.1966
     49  CA        28.9240   -0.8340   19.7300 C.3    79  ARG79       0.1729
     50  C         27.4000   -0.8040   19.7430 C.2    79  ARG79       0.2616
     51  O         26.8110   -0.5680   20.8040 O.2    79  ARG79      -0.2715
     52  CB        29.4090   -2.0760   20.5030 C.3    79  ARG79       0.0348
     53  CG        29.0470   -3.4200   19.7790 C.3    79  ARG79       0.0492
     54  CD        29.9320   -4.6470   20.2300 C.3    79  ARG79       0.2205
     55  NE        29.9850   -4.7430   21.6790 N.pl3  79  ARG79      -0.0865
     56  CZ        31.0500   -4.5730   22.4480 C.cat  79  ARG79       0.5346
     57  NH1       32.2660   -4.2820   21.9510 N.pl3  79  ARG79       0.1354
     58  NH2       30.8910   -4.6930   23.7680 N.pl3  79  ARG79       0.1354
     59  N         26.7650   -1.0920   18.6100 N.am   80  PHE80      -0.1974
     60  CA        25.2670   -1.0840   18.5800 C.3    80  PHE80       0.1639
     61  C         24.7130   -2.0180   19.6470 C.2    80  PHE80       0.2290
     62  O         25.2380   -3.1060   19.8350 O.2    80  PHE80      -0.2864
     63  CB        24.6800   -1.5290   17.2200 C.3    80  PHE80       0.0560
     64  CG        24.7820   -0.4750   16.1370 C.ar   80  PHE80      -0.0200
     65  CD1       24.6000    0.8980   16.4480 C.ar   80  PHE80      -0.0042
     66  CD2       25.0320   -0.8530   14.8190 C.ar   80  PHE80      -0.0042
     67  CE1       24.7270    1.8750   15.4500 C.ar   80  PHE80      -0.0003
     68  CE2       25.1300    0.1170   13.8020 C.ar   80  PHE80      -0.0003
     69  CZ        24.9830    1.4860   14.1240 C.ar   80  PHE80      -0.0000
     70  N         21.0920   -2.9150   19.7980 N.3    82  TYR82      -0.1241
     71  CA        19.6790   -3.0720   19.4530 C.3    82  TYR82       0.1605
     72  C         18.9560   -3.8190   20.5420 C.2    82  TYR82       0.2264
     73  O         19.4290   -4.8540   20.9710 O.2    82  TYR82      -0.2867
     74  CB        19.5360   -3.8820   18.1720 C.3    82  TYR82       0.0534
     75  CG        19.9570   -3.1660   16.9090 C.ar   82  TYR82      -0.0201
     76  CD1       19.0030   -2.5130   16.1080 C.ar   82  TYR82      -0.0009
     77  CD2       21.2700   -3.1910   16.4650 C.ar   82  TYR82      -0.0009
     78  CE1       19.3540   -1.9120   14.8990 C.ar   82  TYR82       0.0417
     79  CE2       21.6350   -2.5420   15.2840 C.ar   82  TYR82       0.0417
     80  CZ        20.6790   -1.9310   14.5070 C.ar   82  TYR82       0.1957
     81  OH        21.0310   -1.3540   13.2960 O.3    82  TYR82      -0.2866
     82  N         18.3280   -7.9480    3.8730 N.3   156  ILE156     -0.1231
     83  CA        19.2280   -8.6820    4.7660 C.3   156  ILE156      0.1692
     84  C         19.8530   -7.7360    5.7530 C.2   156  ILE156      0.2592
     85  O         20.2500   -6.6560    5.3780 O.2   156  ILE156     -0.2718
     86  CB        20.3980   -9.3850    4.0000 C.3   156  ILE156      0.0266
     87  CG1       19.8460  -10.5050    3.0810 C.3   156  ILE156      0.0019
     88  CG2       21.5030   -9.9760    4.9970 C.3   156  ILE156      0.0020
     89  CD1       19.4650  -11.8060    3.8500 C.3   156  ILE156      0.0001
     90  N         19.9850   -8.1590    7.0110 N.am  157  ASN157     -0.1974
     91  CA        20.4950   -7.2890    8.0800 C.3   157  ASN157      0.1688
     92  C         21.0220   -8.1990    9.1940 C.2   157  ASN157      0.2292
     93  O         20.7750   -9.4250    9.1880 O.2   157  ASN157     -0.2864
     94  CB        19.3200   -6.4430    8.6220 C.3   157  ASN157      0.1181
     95  CG        19.7470   -5.1640    9.3240 C.2   157  ASN157      0.2629
     96  OD1       20.9350   -4.8730    9.5230 O.2   157  ASN157     -0.2716
     97  ND2       18.7480   -4.3760    9.7280 N.am  157  ASN157     -0.0877
     98  N         22.3760   -3.0570    3.2750 N.3   193  THR193     -0.1203
     99  CA        23.3140   -1.9360    3.4070 C.3   193  THR193      0.1994
    100  C         24.4610   -2.3580    4.2780 C.2   193  THR193      0.2618
    101  O         24.3330   -3.3050    5.0690 O.2   193  THR193     -0.2717
    102  CB        22.6640   -0.6890    4.0140 C.3   193  THR193      0.1784
    103  OG1       22.0910   -1.0090    5.3060 O.3   193  THR193     -0.2211
    104  CG2       21.6180   -0.1290    3.0820 C.3   193  THR193      0.0376
    105  N         25.5970   -1.6880    4.1080 N.am  194  ALA194     -0.1965
    106  CA        26.7160   -1.8480    5.0130 C.3   194  ALA194      0.1728
    107  C         27.4480   -0.5370    5.1320 C.2   194  ALA194      0.2617
    108  O         27.3780    0.3270    4.2520 O.2   194  ALA194     -0.2715
    109  CB        27.6890   -2.9340    4.5140 C.3   194  ALA194      0.0334
    110  N         28.1770   -0.3900    6.2260 N.am  195  GLY195     -0.1940
    111  CA        29.0580    0.7620    6.3600 C.3   195  GLY195      0.2014
    112  C         30.3340    0.5650    5.5590 C.2   195  GLY195      0.2638
    113  O         30.9710    1.5350    5.1590 O.2   195  GLY195     -0.2714
    114  N         30.6880   -0.6760    5.2670 N.am  196  VAL196     -0.1977
    115  CA        31.9430   -0.9520    4.5580 C.3   196  VAL196      0.1596
    116  C         31.6960   -0.9870    3.0670 C.2   196  VAL196      0.2287
    117  O         30.5730   -1.2050    2.6460 O.2   196  VAL196     -0.2864
    118  CB        32.5850   -2.2760    5.0240 C.3   196  VAL196      0.0276
    119  CG1       33.0130   -2.1270    6.4490 C.3   196  VAL196      0.0022
    120  CG2       31.6250   -3.4710    4.8880 C.3   196  VAL196      0.0022
    121  N         26.4650    9.6490    6.6110 N.3   207  TYR207     -0.1241
    122  CA        25.6600    9.8580    7.8250 C.3   207  TYR207      0.1605
    123  C         25.7380   11.3170    8.2540 C.2   207  TYR207      0.2264
    124  O         26.7620   11.9810    8.0480 O.2   207  TYR207     -0.2867
    125  CB        26.1870    9.0150    8.9980 C.3   207  TYR207      0.0534
    126  CG        25.5400    7.6230    9.0800 C.ar  207  TYR207     -0.0201
    127  CD1       24.2840    7.4540    9.6740 C.ar  207  TYR207     -0.0009
    128  CD2       26.1490    6.5210    8.5030 C.ar  207  TYR207     -0.0009
    129  CE1       23.6600    6.1880    9.7190 C.ar  207  TYR207      0.0417
    130  CE2       25.5630    5.2610    8.5570 C.ar  207  TYR207      0.0417
    131  CZ        24.2950    5.1170    9.1570 C.ar  207  TYR207      0.1957
    132  OH        23.6790    3.8920    9.1790 O.3   207  TYR207     -0.2866
    133  N         24.4640   13.8570   11.7780 N.3   209  HIS209     -0.1241
    134  CA        24.1870   13.7830   13.2070 C.3   209  HIS209      0.1621
    135  C         23.7520   15.1500   13.6870 C.2   209  HIS209      0.2264
    136  O         24.3480   16.1620   13.3090 O.2   209  HIS209     -0.2867
    137  CB        25.4480   13.3550   13.9480 C.3   209  HIS209      0.0745
    138  CG        26.1340   12.1870   13.3180 C.ar  209  HIS209      0.0817
    139  ND1       25.6710   10.8990   13.4680 N.ar  209  HIS209     -0.2268
    140  CD2       27.1870   12.1190   12.4630 C.ar  209  HIS209      0.1154
    141  CE1       26.4280   10.0780   12.7570 C.ar  209  HIS209      0.1986
    142  NE2       27.3590   10.7910   12.1380 N.ar  209  HIS209     -0.2212
    143  N         32.0540   11.0110   21.2680 N.3   222  PHE222     -0.1241
    144  CA        31.3290   10.9470   19.9990 C.3   222  PHE222      0.1605
    145  C         31.5490   12.2520   19.2370 C.2   222  PHE222      0.2264
    146  O         31.6890   12.2370   18.0170 O.2   222  PHE222     -0.2867
    147  CB        29.8290   10.7280   20.2410 C.3   222  PHE222      0.0534
    148  CG        29.0020   10.7210   18.9640 C.ar  222  PHE222     -0.0203
    149  CD1       28.8750    9.5450   18.2220 C.ar  222  PHE222     -0.0042
    150  CD2       28.4120   11.8870   18.4860 C.ar  222  PHE222     -0.0042
    151  CE1       28.1010    9.5150   17.0240 C.ar  222  PHE222     -0.0003
    152  CE2       27.6640   11.8980   17.2730 C.ar  222  PHE222     -0.0003
    153  CZ        27.5050   10.7080   16.5500 C.ar  222  PHE222     -0.0000
    154  N         23.7260    2.7670   21.5990 N.3   320  SER320     -0.1217
    155  CA        25.0430    2.1360   21.4250 C.3   320  SER320      0.1889
    156  C         25.7330    2.0120   22.7840 C.2   320  SER320      0.2288
    157  O         25.7490    2.9710   23.5770 O.2   320  SER320     -0.2866
    158  CB        25.8720    2.9280   20.4370 C.3   320  SER320      0.2089
    159  OG        25.4110    2.7520   19.1020 O.3   320  SER320     -0.2183
    160  N         24.9160    5.4330   24.6290 N.3   331  LEU331     -0.1245
    161  CA        24.6280    6.6000   23.7880 C.3   331  LEU331      0.1561
    162  C         23.2520    6.3250   23.1900 C.2   331  LEU331      0.2260
    163  O         23.0750    5.3750   22.4050 O.2   331  LEU331     -0.2867
    164  CB        25.6840    6.7340   22.6640 C.3   331  LEU331      0.0270
    165  CG        25.7680    8.0230   21.8220 C.3   331  LEU331      0.0019
    166  CD1       27.0340    8.0230   20.9500 C.3   331  LEU331      0.0001
    167  CD2       24.5670    8.2250   20.9470 C.3   331  LEU331      0.0001
    168  N         20.6290    6.9550   20.7780 N.3   333  ALA333     -0.1245
    169  CA        20.4470    7.6050   19.4890 C.3   333  ALA333      0.1562
    170  C         19.0640    7.3990   18.8700 C.2   333  ALA333      0.2260
    171  O         18.5250    6.2740   18.8570 O.2   333  ALA333     -0.2867
    172  CB        21.5760    7.1830   18.5200 C.3   333  ALA333      0.0290
    173  N         16.9750    7.7380   15.2810 N.3   335  TYR335     -0.1241
    174  CA        17.2550    7.6950   13.8270 C.3   335  TYR335      0.1605
    175  C         16.0680    8.1440   13.0310 C.2   335  TYR335      0.2264
    176  O         14.9260    7.6710   13.2460 O.2   335  TYR335     -0.2867
    177  CB        17.6260    6.2490   13.4020 C.3   335  TYR335      0.0534
    178  CG        18.9500    5.8220   13.9370 C.ar  335  TYR335     -0.0201
    179  CD1       20.0490    5.7750   13.1270 C.ar  335  TYR335     -0.0009
    180  CD2       19.1070    5.4490   15.2840 C.ar  335  TYR335     -0.0009
    181  CE1       21.2750    5.4050   13.6250 C.ar  335  TYR335      0.0417
    182  CE2       20.3230    5.0760   15.7930 C.ar  335  TYR335      0.0417
    183  CZ        21.4100    5.0640   14.9610 C.ar  335  TYR335      0.1957
    184  OH        22.6480    4.6800   15.4550 O.3   335  TYR335     -0.2866
    185  N         20.3260   10.8040   14.3360 N.3   366  ASN366     -0.1240
    186  CA        21.1470   10.3150   13.1980 C.3   366  ASN366      0.1653
    187  C         20.2970   10.0820   11.9750 C.2   366  ASN366      0.2266
    188  O         19.1060    9.7760   12.0770 O.2   366  ASN366     -0.2867
    189  CB        21.7440    8.9570   13.5960 C.3   366  ASN366      0.1155
    190  CG        22.8760    9.0820   14.6060 C.2   366  ASN366      0.2627
    191  OD1       23.4210   10.1630   14.8280 O.2   366  ASN366     -0.2716
    192  ND2       23.2140    7.9520   15.2530 N.am  366  ASN366     -0.0877
    193  N         31.6860   10.7810    9.8550 N.3   386  ASP386     -0.1225
    194  CA        32.6980   10.0890    9.0510 C.3   386  ASP386      0.1805
    195  C         32.1520    8.8270    8.3970 C.2   386  ASP386      0.2598
    196  O         32.8070    8.2300    7.5080 O.2   386  ASP386     -0.2718
    197  CB        33.9430    9.7670    9.8800 C.3   386  ASP386      0.1424
    198  CG        34.7610   10.9960   10.1950 C.2   386  ASP386      0.3668
    199  OD1       34.6980   11.9700    9.4170 O.co2 386  ASP386     -0.2456
    200  OD2       35.4840   10.9830   11.2150 O.co2 386  ASP386     -0.2456
    201  N         30.9550    8.4320    8.8070 N.am  387  GLY387     -0.1942
    202  CA        30.3500    7.1940    8.2970 C.3   387  GLY387      0.2014
    203  C         29.6170    7.3690    6.9790 C.2   387  GLY387      0.2639
    204  O         29.1490    8.4750    6.6370 O.2   387  GLY387     -0.2714
    205  N         29.5150    6.2760    6.2320 N.am  388  HIS388     -0.1959
    206  CA        28.7590    6.2560    4.9840 C.3   388  HIS388      0.1787
    207  C         27.9420    4.9860    5.0230 C.2   388  HIS388      0.2620
    208  O         28.4610    3.9530    5.4550 O.2   388  HIS388     -0.2715
    209  CB        29.7010    6.2190    3.7630 C.3   388  HIS388      0.0785
    210  CG        30.5770    7.4310    3.6440 C.ar  388  HIS388      0.0821
    211  ND1       30.2940    8.4640    2.7760 N.ar  388  HIS388     -0.2267
    212  CD2       31.7200    7.7730    4.2830 C.ar  388  HIS388      0.1154
    213  CE1       31.2220    9.4010    2.8910 C.ar  388  HIS388      0.1986
    214  NE2       32.0990    9.0090    3.8000 N.ar  388  HIS388     -0.2212
    215  N         26.6960    5.0390    4.5830 N.am  389  LEU389     -0.1977
    216  CA        25.9170    3.8220    4.4010 C.3   389  LEU389      0.1596
    217  C         25.8300    3.5430    2.9220 C.2   389  LEU389      0.2287
    218  O         25.2850    4.3540    2.1500 O.2   389  LEU389     -0.2864
    219  CB        24.5070    3.9690    4.9740 C.3   389  LEU389      0.0297
    220  CG        23.8090    2.6080    5.1840 C.3   389  LEU389      0.0022
    221  CD1       24.5450    1.7170    6.1570 C.3   389  LEU389      0.0001
    222  CD2       22.3590    2.8090    5.6060 C.3   389  LEU389      0.0001
    223  N         16.9300    1.8490    6.1920 N.3   410  MET410     -0.1230
    224  CA        17.4700    0.5600    6.5680 C.3   410  MET410      0.1702
    225  C         17.8580    0.5850    8.0570 C.2   410  MET410      0.2592
    226  O         18.6290    1.4470    8.4960 O.2   410  MET410     -0.2718
    227  CB        18.6330    0.2600    5.6090 C.3   410  MET410      0.0401
    228  CG        18.0370    0.0040    4.1760 C.3   410  MET410      0.0596
    229  SD        17.2260   -1.5710    3.9790 S.3   410  MET410     -0.1393
    230  CE        18.7230   -2.5100    3.7160 C.3   410  MET410      0.0692
    231  N         17.3260   -0.3730    8.8240 N.am  411  LEU411     -0.1980
    232  CA        17.3880   -0.3220   10.3040 C.3   411  LEU411      0.1596
    233  C         18.7220   -0.7470   10.8870 C.2   411  LEU411      0.2287
    234  O         19.3640   -1.6580   10.3370 O.2   411  LEU411     -0.2864
    235  CB        16.2860   -1.1840   10.9330 C.3   411  LEU411      0.0297
    236  CG        14.8790   -0.8510   10.4490 C.3   411  LEU411      0.0022
    237  CD1       13.9330   -1.8620   11.0630 C.3   411  LEU411      0.0001
    238  CD2       14.4260    0.5760   10.8020 C.3   411  LEU411      0.0001
@<TRIPOS>BOND
     1   218   217    2
     2   117   116    2
     3   211   213   ar
     4   211   210   ar
     5   213   214   ar
     6   217   216    1
     7   116   115    1
     8    87    89    1
     9    87    86    1
    10   104   102    1
    11    98    99    1
    12    99   102    1
    13    99   100    1
    14   210   209    1
    15   210   212   ar
    16   230   229    1
    17   209   206    1
    18   214   212   ar
    19    82    83    1
    20   229   228    1
    21    86    83    1
    22    86    88    1
    23   102   103    1
    24   105   100   am
    25   105   106    1
    26   228   227    1
    27   108   107    2
    28   100   101    2
    29   216   215    1
    30   216   219    1
    31   109   106    1
    32   115   118    1
    33   115   114    1
    34   215   207   am
    35    83    84    1
    36   120   118    1
    37   219   220    1
    38   206   207    1
    39   206   205    1
    40   106   107    1
    41   207   208    2
    42   118   119    1
    43   107   110   am
    44   113   112    2
    45   220   222    1
    46   220   221    1
    47   114   112   am
    48    85    84    2
    49   112   111    1
    50   227   224    1
    51    84    90   am
    52   223   224    1
    53   110   111    1
    54   205   203   am
    55   224   225    1
    56   121   122    1
    57   204   203    2
    58   203   202    1
    59    90    91    1
    60   196   195    2
    61   122   123    1
    62   122   125    1
    63   124   123    2
    64   225   226    2
    65   225   231   am
    66    91    94    1
    67    91    92    1
    68   202   201    1
    69   195   201   am
    70   195   194    1
    71   128   130   ar
    72   128   126   ar
    73   130   131   ar
    74    94    95    1
    75   231   232    1
    76   125   126    1
    77   194   193    1
    78   194   197    1
    79   126   127   ar
    80   131   132    1
    81   131   129   ar
    82    93    92    2
    83    95    96    2
    84    95    97   am
    85   199   198   ar
    86   127   129   ar
    87   197   198    1
    88   198   200   ar
    89   232   233    1
    90   232   235    1
    91   234   233    2
    92   236   238    1
    93   236   235    1
    94   236   237    1
    95    12    11    1
    96   133   134    1
    97   187   188    2
    98   187   186    1
    99   142   140   ar
   100   142   141   ar
   101   140   138   ar
   102    19    17    1
   103    11     9   ar
   104    11    10   ar
   105     9     7   ar
   106   141   139   ar
   107   175   176    2
   108   175   174    1
   109    18    17    1
   110   179   181   ar
   111   179   178   ar
   112   186   189    1
   113   186   185    1
   114   134   135    1
   115   134   137    1
   116    81    80    1
   117   136   135    2
   118   138   139   ar
   119   138   137    1
   120   177   174    1
   121   177   178    1
   122   189   190    1
   123   181   183   ar
   124    17    14    1
   125    10     8   ar
   126    68    69   ar
   127    68    66   ar
   128   174   173    1
   129   178   180   ar
   130     7     6   ar
   131    69    67   ar
   132    23    22    2
   133    80    78   ar
   134    80    79   ar
   135   190   191    2
   136   190   192   am
   137    14    13    1
   138    14    15    1
   139    66    64   ar
   140    78    76   ar
   141     8     6   ar
   142   183   184    1
   143   183   182   ar
   144     6     5    1
   145    13     3   am
   146    31    30    1
   147    31    32    2
   148   180   182   ar
   149    79    77   ar
   150    30    33    1
   151    30    29    1
   152    67    65   ar
   153    22    29   am
   154    22    21    1
   155    20    15   am
   156    20    21    1
   157    15    16    2
   158    33    34    1
   159     3     2    1
   160     3     4    2
   161    76    75   ar
   162    64    65   ar
   163    64    63    1
   164     2     5    1
   165     2     1    1
   166    21    24    1
   167    77    75   ar
   168   153   151   ar
   169   153   152   ar
   170    75    74    1
   171   151   149   ar
   172    24    25    1
   173    63    60    1
   174   152   150   ar
   175    34    36   ar
   176    34    35   ar
   177   146   145    2
   178    74    71    1
   179   149   148   ar
   180    25    26    1
   181   150   148   ar
   182   172   169    1
   183    60    59    1
   184    60    61    1
   185    59    50   am
   186    28    26   ar
   187    40    39    2
   188   171   170    2
   189    26    27   ar
   190   170   169    1
   191   148   147    1
   192   159   158    1
   193   145   144    1
   194    44    46   ar
   195    44    42   ar
   196    71    70    1
   197    71    72    1
   198   169   168    1
   199    61    62    2
   200    49    50    1
   201    49    48    1
   202    49    52    1
   203    50    51    2
   204    53    54    1
   205    53    52    1
   206    41    42    1
   207    41    38    1
   208    46    47   ar
   209    39    48   am
   210    39    38    1
   211   144   147    1
   212   144   143    1
   213    54    55    1
   214    42    43   ar
   215   158   155    1
   216    72    73    2
   217    37    38    1
   218   167   165    1
   219   166   165    1
   220    47    45   ar
   221   155   154    1
   222   155   156    1
   223    43    45   ar
   224    55    56    2
   225   165   164    1
   226    57    56    1
   227   163   162    2
   228    56    58    1
   229   164   161    1
   230   156   157    2
   231   162   161    1
   232   161   160    1
