@<TRIPOS>MOLECULE
tmp/2wscP03.pdb
 87 83 0 0 0
SMALL
GASTEIGER

@<TRIPOS>ATOM
      1  N        -37.7630  -21.0960   68.4250 N.3    56  HIS56      -0.1241
      2  CA       -36.6870  -20.3540   67.7820 C.3    56  HIS56       0.1621
      3  C        -37.2070  -19.7980   66.4690 C.2    56  HIS56       0.2264
      4  O        -36.6820  -18.8070   65.9400 O.2    56  HIS56      -0.2867
      5  CB       -35.5430  -21.2920   67.4710 C.3    56  HIS56       0.0745
      6  CG       -34.4690  -21.3120   68.5110 C.ar   56  HIS56       0.0817
      7  ND1      -33.4770  -20.3560   68.5630 N.ar   56  HIS56      -0.2268
      8  CD2      -34.1980  -22.1880   69.5140 C.ar   56  HIS56       0.1154
      9  CE1      -32.6350  -20.6430   69.5460 C.ar   56  HIS56       0.1986
     10  NE2      -33.0510  -21.7490   70.1440 N.ar   56  HIS56      -0.2212
     11  N        -39.2900  -16.2730   66.5340 N.3    59  LEU59      -0.1231
     12  CA       -38.2730  -15.2190   66.8320 C.3    59  LEU59       0.1693
     13  C        -38.0200  -14.5260   65.5080 C.2    59  LEU59       0.2591
     14  O        -38.9450  -14.3480   64.7070 O.2    59  LEU59      -0.2718
     15  CB       -36.9230  -15.7830   67.3410 C.3    59  LEU59       0.0284
     16  CG       -35.8060  -14.9020   67.9990 C.3    59  LEU59       0.0019
     17  CD1      -34.4200  -15.3600   67.6330 C.3    59  LEU59       0.0001
     18  CD2      -35.8760  -13.4240   67.7350 C.3    59  LEU59       0.0001
     19  N        -36.7560  -14.1770   65.2460 N.am   60  LEU60      -0.1980
     20  CA       -36.3370  -13.6270   63.9420 C.3    60  LEU60       0.1596
     21  C        -37.5410  -13.1740   63.1190 C.2    60  LEU60       0.2287
     22  O        -37.8240  -13.7470   62.0460 O.2    60  LEU60      -0.2864
     23  CB       -35.5540  -14.6700   63.1310 C.3    60  LEU60       0.0297
     24  CG       -34.3760  -15.4430   63.7340 C.3    60  LEU60       0.0022
     25  CD1      -34.4360  -16.9020   63.2360 C.3    60  LEU60       0.0001
     26  CD2      -33.0600  -14.7290   63.3960 C.3    60  LEU60       0.0001
     27  N        -33.1490  -17.8660   57.0030 N.3    87  LEU87      -0.1245
     28  CA       -32.2110  -18.1690   58.1020 C.3    87  LEU87       0.1561
     29  C        -32.3730  -19.6240   58.4490 C.2    87  LEU87       0.2260
     30  O        -31.4320  -20.4090   58.2210 O.2    87  LEU87      -0.2867
     31  CB       -32.3690  -17.2690   59.3540 C.3    87  LEU87       0.0270
     32  CG       -31.0210  -16.7910   59.9740 C.3    87  LEU87       0.0019
     33  CD1      -30.3570  -15.6910   59.1260 C.3    87  LEU87       0.0001
     34  CD2      -31.1100  -16.2880   61.4220 C.3    87  LEU87       0.0001
     35  N        -30.8770  -21.5050   55.8030 N.3    90  ILE90      -0.1231
     36  CA       -29.4140  -21.4120   55.6780 C.3    90  ILE90       0.1692
     37  C        -28.7980  -22.1740   56.8410 C.2    90  ILE90       0.2591
     38  O        -27.6170  -22.5340   56.8140 O.2    90  ILE90      -0.2718
     39  CB       -28.8660  -19.9450   55.5840 C.3    90  ILE90       0.0266
     40  CG1      -27.7120  -19.8590   54.5580 C.3    90  ILE90       0.0019
     41  CG2      -28.3840  -19.4110   56.9350 C.3    90  ILE90       0.0020
     42  CD1      -28.1330  -19.4530   53.1380 C.3    90  ILE90       0.0001
     43  N        -29.6200  -22.4440   57.8550 N.am   91  LEU91      -0.1980
     44  CA       -29.1280  -23.1430   59.0260 C.3    91  LEU91       0.1596
     45  C        -29.7670  -24.5280   59.2520 C.2    91  LEU91       0.2287
     46  O        -29.1980  -25.3410   59.9960 O.2    91  LEU91      -0.2864
     47  CB       -29.1930  -22.2230   60.2660 C.3    91  LEU91       0.0297
     48  CG       -30.4830  -22.0820   61.0850 C.3    91  LEU91       0.0022
     49  CD1      -30.4810  -23.1960   62.1670 C.3    91  LEU91       0.0001
     50  CD2      -30.6070  -20.6600   61.6890 C.3    91  LEU91       0.0001
     51  N        -27.0010  -26.0420   57.8610 N.3    94  CYS94      -0.1221
     52  CA       -25.8670  -25.6990   58.7140 C.3    94  CYS94       0.1808
     53  C        -25.7990  -26.8500   59.7140 C.2    94  CYS94       0.2601
     54  O        -24.7080  -27.2620   60.1480 O.2    94  CYS94      -0.2717
     55  CB       -26.0810  -24.3630   59.4590 C.3    94  CYS94       0.0970
     56  SG       -24.5460  -23.5500   60.0820 S.3    94  CYS94      -0.0800
     57  N        -26.9760  -27.3810   60.0530 N.am   95  LEU95      -0.1979
     58  CA       -27.0410  -28.5720   60.9070 C.3    95  LEU95       0.1596
     59  C        -26.7210  -29.8860   60.1440 C.2    95  LEU95       0.2287
     60  O        -25.7350  -30.5550   60.4720 O.2    95  LEU95      -0.2864
     61  CB       -28.3770  -28.6440   61.7060 C.3    95  LEU95       0.0297
     62  CG       -28.5550  -27.7830   62.9830 C.3    95  LEU95       0.0022
     63  CD1      -28.3780  -26.2940   62.6650 C.3    95  LEU95       0.0001
     64  CD2      -29.9040  -28.0080   63.6880 C.3    95  LEU95       0.0001
     65  N        -23.5610  -31.1190   60.0200 N.3    98  TYR98      -0.1241
     66  CA       -22.8200  -31.3040   61.2910 C.3    98  TYR98       0.1605
     67  C        -23.1260  -32.7370   61.7880 C.2    98  TYR98       0.2264
     68  O        -22.2410  -33.4070   62.3600 O.2    98  TYR98      -0.2867
     69  CB       -23.1420  -30.2290   62.3620 C.3    98  TYR98       0.0534
     70  CG       -22.6890  -30.5810   63.7840 C.ar   98  TYR98      -0.0201
     71  CD1      -21.4280  -30.2480   64.2530 C.ar   98  TYR98      -0.0009
     72  CD2      -23.5460  -31.2560   64.6610 C.ar   98  TYR98      -0.0009
     73  CE1      -21.0440  -30.5760   65.5730 C.ar   98  TYR98       0.0417
     74  CE2      -23.1710  -31.5960   65.9480 C.ar   98  TYR98       0.0417
     75  CZ       -21.9310  -31.2580   66.3980 C.ar   98  TYR98       0.1957
     76  OH       -21.5960  -31.6080   67.6760 O.3    98  TYR98      -0.2866
     77  N        -36.3780  -29.5450   62.8280 N.3   139  PHE139     -0.1241
     78  CA       -35.9580  -28.1420   62.6340 C.3   139  PHE139      0.1605
     79  C        -36.5580  -27.3330   61.4310 C.2   139  PHE139      0.2264
     80  O        -37.0190  -26.1920   61.6210 O.2   139  PHE139     -0.2867
     81  CB       -34.4360  -27.9680   62.6140 C.3   139  PHE139      0.0534
     82  CG       -34.0380  -26.5590   62.8700 C.ar  139  PHE139     -0.0203
     83  CD1      -33.8600  -26.1010   64.1730 C.ar  139  PHE139     -0.0042
     84  CD2      -33.9530  -25.6630   61.8320 C.ar  139  PHE139     -0.0042
     85  CE1      -33.5430  -24.7810   64.4260 C.ar  139  PHE139     -0.0003
     86  CE2      -33.6310  -24.3650   62.0720 C.ar  139  PHE139     -0.0003
     87  CZ       -33.4360  -23.9180   63.3800 C.ar  139  PHE139     -0.0000
@<TRIPOS>BOND
     1    42    40    1
     2    40    39    1
     3    39    36    1
     4    39    41    1
     5    36    35    1
     6    36    37    1
     7    38    37    2
     8    37    43   am
     9    27    28    1
    10    43    44    1
    11    51    52    1
    12    28    29    1
    13    28    31    1
    14    30    29    2
    15    52    55    1
    16    52    53    1
    17    44    45    1
    18    44    47    1
    19    33    32    1
    20    45    46    2
    21    31    32    1
    22    55    56    1
    23    53    57   am
    24    53    54    2
    25    32    34    1
    26    65    66    1
    27    57    58    1
    28    59    60    2
    29    59    58    1
    30    47    48    1
    31    58    61    1
    32    48    50    1
    33    48    49    1
    34    66    67    1
    35    66    69    1
    36    79    80    2
    37    79    78    1
    38    61    62    1
    39    67    68    2
    40    84    86   ar
    41    84    82   ar
    42    22    21    2
    43    86    87   ar
    44    69    70    1
    45    81    78    1
    46    81    82    1
    47    78    77    1
    48    63    62    1
    49    82    83   ar
    50    62    64    1
    51    21    20    1
    52    23    24    1
    53    23    20    1
    54    25    24    1
    55    87    85   ar
    56    26    24    1
    57    70    71   ar
    58    70    72   ar
    59    20    19    1
    60    83    85   ar
    61    71    73   ar
    62    72    74   ar
    63    14    13    2
    64    19    13   am
    65    13    12    1
    66    73    75   ar
    67     4     3    2
    68    74    75   ar
    69    75    76    1
    70     3     2    1
    71    11    12    1
    72    12    15    1
    73    15    16    1
    74     5     2    1
    75     5     6    1
    76    17    16    1
    77    18    16    1
    78     2     1    1
    79     6     7   ar
    80     6     8   ar
    81     7     9   ar
    82     8    10   ar
    83     9    10   ar
