@<TRIPOS>MOLECULE
tmp/2wscP10.pdb
 95 93 0 0 0
SMALL
GASTEIGER

@<TRIPOS>ATOM
      1  N        -38.2280  -26.8710   69.2510 N.3    52  VAL52      -0.1245
      2  CA       -36.9530  -26.1840   69.0020 C.3    52  VAL52       0.1561
      3  C        -37.0320  -25.4010   67.7030 C.2    52  VAL52       0.2260
      4  O        -36.8050  -24.1930   67.7070 O.2    52  VAL52      -0.2867
      5  CB       -35.7550  -27.1450   68.9650 C.3    52  VAL52       0.0252
      6  CG1      -34.4250  -26.3600   68.8220 C.3    52  VAL52       0.0019
      7  CG2      -35.7560  -28.0430   70.2170 C.3    52  VAL52       0.0019
      8  N        -37.7630  -21.0960   68.4250 N.3    56  HIS56      -0.1241
      9  CA       -36.6870  -20.3540   67.7820 C.3    56  HIS56       0.1621
     10  C        -37.2070  -19.7980   66.4690 C.2    56  HIS56       0.2264
     11  O        -36.6820  -18.8070   65.9400 O.2    56  HIS56      -0.2867
     12  CB       -35.5430  -21.2920   67.4710 C.3    56  HIS56       0.0745
     13  CG       -34.4690  -21.3120   68.5110 C.ar   56  HIS56       0.0817
     14  ND1      -33.4770  -20.3560   68.5630 N.ar   56  HIS56      -0.2268
     15  CD2      -34.1980  -22.1880   69.5140 C.ar   56  HIS56       0.1154
     16  CE1      -32.6350  -20.6430   69.5460 C.ar   56  HIS56       0.1986
     17  NE2      -33.0510  -21.7490   70.1440 N.ar   56  HIS56      -0.2212
     18  N        -29.6200  -22.4440   57.8550 N.3    91  LEU91      -0.1245
     19  CA       -29.1280  -23.1430   59.0260 C.3    91  LEU91       0.1561
     20  C        -29.7670  -24.5280   59.2520 C.2    91  LEU91       0.2260
     21  O        -29.1980  -25.3410   59.9960 O.2    91  LEU91      -0.2867
     22  CB       -29.1930  -22.2230   60.2660 C.3    91  LEU91       0.0270
     23  CG       -30.4830  -22.0820   61.0850 C.3    91  LEU91       0.0019
     24  CD1      -30.4810  -23.1960   62.1670 C.3    91  LEU91       0.0001
     25  CD2      -30.6070  -20.6600   61.6890 C.3    91  LEU91       0.0001
     26  N        -27.0010  -26.0420   57.8610 N.3    94  CYS94      -0.1221
     27  CA       -25.8670  -25.6990   58.7140 C.3    94  CYS94       0.1808
     28  C        -25.7990  -26.8500   59.7140 C.2    94  CYS94       0.2601
     29  O        -24.7080  -27.2620   60.1480 O.2    94  CYS94      -0.2717
     30  CB       -26.0810  -24.3630   59.4590 C.3    94  CYS94       0.0970
     31  SG       -24.5460  -23.5500   60.0820 S.3    94  CYS94      -0.0800
     32  N        -26.9760  -27.3810   60.0530 N.am   95  LEU95      -0.1979
     33  CA       -27.0410  -28.5720   60.9070 C.3    95  LEU95       0.1596
     34  C        -26.7210  -29.8860   60.1440 C.2    95  LEU95       0.2287
     35  O        -25.7350  -30.5550   60.4720 O.2    95  LEU95      -0.2864
     36  CB       -28.3770  -28.6440   61.7060 C.3    95  LEU95       0.0297
     37  CG       -28.5550  -27.7830   62.9830 C.3    95  LEU95       0.0022
     38  CD1      -28.3780  -26.2940   62.6650 C.3    95  LEU95       0.0001
     39  CD2      -29.9040  -28.0080   63.6880 C.3    95  LEU95       0.0001
     40  N        -25.1260  -31.0620   57.8000 N.3    97  MET97      -0.1230
     41  CA       -23.6990  -31.3020   57.5970 C.3    97  MET97       0.1702
     42  C        -22.9610  -30.8300   58.8620 C.2    97  MET97       0.2592
     43  O        -21.9220  -30.1830   58.8020 O.2    97  MET97      -0.2718
     44  CB       -23.1930  -30.6740   56.2630 C.3    97  MET97       0.0401
     45  CG       -21.7570  -31.1110   55.7830 C.3    97  MET97       0.0596
     46  SD       -21.3610  -32.7540   55.0050 S.3    97  MET97      -0.1393
     47  CE       -19.5610  -32.6050   54.9060 C.3    97  MET97       0.0692
     48  N        -23.5610  -31.1190   60.0200 N.am   98  TYR98      -0.1976
     49  CA       -22.8200  -31.3040   61.2910 C.3    98  TYR98       0.1639
     50  C        -23.1260  -32.7370   61.7880 C.2    98  TYR98       0.2290
     51  O        -22.2410  -33.4070   62.3600 O.2    98  TYR98      -0.2864
     52  CB       -23.1420  -30.2290   62.3620 C.3    98  TYR98       0.0560
     53  CG       -22.6890  -30.5810   63.7840 C.ar   98  TYR98      -0.0198
     54  CD1      -21.4280  -30.2480   64.2530 C.ar   98  TYR98      -0.0009
     55  CD2      -23.5460  -31.2560   64.6610 C.ar   98  TYR98      -0.0009
     56  CE1      -21.0440  -30.5760   65.5730 C.ar   98  TYR98       0.0417
     57  CE2      -23.1710  -31.5960   65.9480 C.ar   98  TYR98       0.0417
     58  CZ       -21.9310  -31.2580   66.3980 C.ar   98  TYR98       0.1957
     59  OH       -21.5960  -31.6080   67.6760 O.3    98  TYR98      -0.2866
     60  N        -30.0350  -37.5450   64.5560 N.3   132  TRP132     -0.1241
     61  CA       -29.7160  -36.1400   64.2520 C.3   132  TRP132      0.1605
     62  C        -30.3670  -35.6730   62.9790 C.2   132  TRP132      0.2264
     63  O        -30.3980  -34.4840   62.7080 O.2   132  TRP132     -0.2867
     64  CB       -28.2130  -35.8480   64.2340 C.3   132  TRP132      0.0550
     65  CG       -27.9710  -34.5810   64.9690 C.ar  132  TRP132      0.0003
     66  CD1      -28.1620  -34.3490   66.3270 C.ar  132  TRP132      0.0946
     67  CD2      -27.5520  -33.3500   64.4170 C.ar  132  TRP132      0.0152
     68  NE1      -27.8620  -33.0450   66.6450 N.ar  132  TRP132     -0.2442
     69  CE2      -27.4880  -32.4060   65.4860 C.ar  132  TRP132      0.0810
     70  CE3      -27.2090  -32.9400   63.1250 C.ar  132  TRP132      0.0012
     71  CZ2      -27.1050  -31.0870   65.2900 C.ar  132  TRP132      0.0191
     72  CZ3      -26.8240  -31.6280   62.9250 C.ar  132  TRP132      0.0001
     73  CH2      -26.7810  -30.7090   63.9980 C.ar  132  TRP132      0.0015
     74  N        -34.1740  -34.7740   64.1000 N.3   135  PHE135     -0.1241
     75  CA       -34.1640  -33.4950   64.7930 C.3   135  PHE135      0.1605
     76  C        -34.0410  -32.3570   63.8060 C.2   135  PHE135      0.2264
     77  O        -34.9200  -31.5150   63.7290 O.2   135  PHE135     -0.2867
     78  CB       -33.0130  -33.4080   65.8010 C.3   135  PHE135      0.0534
     79  CG       -33.0220  -32.1390   66.6280 C.ar  135  PHE135     -0.0203
     80  CD1      -33.9470  -31.9750   67.6770 C.ar  135  PHE135     -0.0042
     81  CD2      -32.1020  -31.1180   66.3600 C.ar  135  PHE135     -0.0042
     82  CE1      -33.9560  -30.8180   68.4460 C.ar  135  PHE135     -0.0003
     83  CE2      -32.1100  -29.9430   67.1200 C.ar  135  PHE135     -0.0003
     84  CZ       -33.0320  -29.7930   68.1710 C.ar  135  PHE135     -0.0000
     85  N        -36.3780  -29.5450   62.8280 N.3   139  PHE139     -0.1241
     86  CA       -35.9580  -28.1420   62.6340 C.3   139  PHE139      0.1605
     87  C        -36.5580  -27.3330   61.4310 C.2   139  PHE139      0.2264
     88  O        -37.0190  -26.1920   61.6210 O.2   139  PHE139     -0.2867
     89  CB       -34.4360  -27.9680   62.6140 C.3   139  PHE139      0.0534
     90  CG       -34.0380  -26.5590   62.8700 C.ar  139  PHE139     -0.0203
     91  CD1      -33.8600  -26.1010   64.1730 C.ar  139  PHE139     -0.0042
     92  CD2      -33.9530  -25.6630   61.8320 C.ar  139  PHE139     -0.0042
     93  CE1      -33.5430  -24.7810   64.4260 C.ar  139  PHE139     -0.0003
     94  CE2      -33.6310  -24.3650   62.0720 C.ar  139  PHE139     -0.0003
     95  CZ       -33.4360  -23.9180   63.3800 C.ar  139  PHE139     -0.0000
@<TRIPOS>BOND
     1    47    46    1
     2    46    45    1
     3    45    44    1
     4    44    41    1
     5    41    40    1
     6    41    42    1
     7    18    19    1
     8    26    27    1
     9    27    30    1
    10    27    28    1
    11    43    42    2
    12    42    48   am
    13    19    20    1
    14    19    22    1
    15    20    21    2
    16    30    31    1
    17    28    32   am
    18    28    29    2
    19    48    49    1
    20    32    33    1
    21    34    35    2
    22    34    33    1
    23    22    23    1
    24    33    36    1
    25    23    25    1
    26    23    24    1
    27    49    50    1
    28    49    52    1
    29    87    88    2
    30    87    86    1
    31    36    37    1
    32    50    51    2
    33    92    94   ar
    34    92    90   ar
    35    94    95   ar
    36    52    53    1
    37    89    86    1
    38    89    90    1
    39    86    85    1
    40    38    37    1
    41    63    62    2
    42    90    91   ar
    43    72    70   ar
    44    72    73   ar
    45    62    61    1
    46    37    39    1
    47    70    67   ar
    48    95    93   ar
    49    77    76    2
    50    53    54   ar
    51    53    55   ar
    52    76    75    1
    53    73    71   ar
    54    74    75    1
    55    91    93   ar
    56    64    61    1
    57    64    65    1
    58    61    60    1
    59    54    56   ar
    60    67    65   ar
    61    67    69   ar
    62    55    57   ar
    63    75    78    1
    64    65    66   ar
    65    71    69   ar
    66    69    68   ar
    67    56    58   ar
    68    78    79    1
    69    11    10    2
    70    57    58   ar
    71    66    68   ar
    72    81    79   ar
    73    81    83   ar
    74    58    59    1
    75    10     9    1
    76    79    80   ar
    77    83    84   ar
    78    12     9    1
    79    12    13    1
    80    80    82   ar
    81     3     4    2
    82     3     2    1
    83     9     8    1
    84    84    82   ar
    85    13    14   ar
    86    13    15   ar
    87    14    16   ar
    88     6     5    1
    89     5     2    1
    90     5     7    1
    91     2     1    1
    92    15    17   ar
    93    16    17   ar
