@<TRIPOS>MOLECULE
tmp/2wscB04.pdb
 81 79 0 0 0
SMALL
GASTEIGER

@<TRIPOS>ATOM
      1  N         54.8370   37.5590   95.3030 N.3    26  GLY26      -0.1210
      2  CA        55.2460   38.6670   94.4490 C.3    26  GLY26       0.1956
      3  C         54.0770   39.4800   93.9260 C.2    26  GLY26       0.2611
      4  O         54.1770   40.1010   92.8680 O.2    26  GLY26      -0.2717
      5  N         52.9680   39.4690   94.6650 N.am   27  ILE27      -0.1979
      6  CA        51.8020   40.2890   94.3360 C.3    27  ILE27       0.1595
      7  C         51.3410   41.1120   95.5370 C.2    27  ILE27       0.2287
      8  O         50.9910   42.2830   95.3840 O.2    27  ILE27      -0.2864
      9  CB        50.6150   39.4550   93.7220 C.3    27  ILE27       0.0276
     10  CG1       49.7580   40.3170   92.7870 C.3    27  ILE27       0.0022
     11  CG2       49.7330   38.8220   94.7920 C.3    27  ILE27       0.0022
     12  CD1       50.3220   40.4870   91.3790 C.3    27  ILE27       0.0001
     13  N         54.1610   43.9530   96.2770 N.3    30  PRO30      -0.2102
     14  CA        54.3490   44.9320   95.1970 C.3    30  PRO30       0.1504
     15  C         53.1020   45.7930   94.9360 C.2    30  PRO30       0.2575
     16  O         53.2300   46.9850   94.6380 O.2    30  PRO30      -0.2718
     17  CB        54.6720   44.0550   93.9830 C.3    30  PRO30       0.0282
     18  CG        55.1950   42.7850   94.5640 C.3    30  PRO30       0.0208
     19  CD        54.3810   42.5760   95.7980 C.3    30  PRO30       0.0893
     20  N         51.9170   45.1910   95.0580 N.am   31  GLU31      -0.1980
     21  CA        50.6470   45.9100   94.9270 C.3    31  GLU31       0.1602
     22  C         50.4060   46.8270   96.1310 C.2    31  GLU31       0.2287
     23  O         50.4900   48.0460   96.0010 O.2    31  GLU31      -0.2864
     24  CB        49.4830   44.9290   94.7390 C.3    31  GLU31       0.0415
     25  CG        48.0970   45.5700   94.6600 C.3    31  GLU31       0.1163
     26  CD        46.9690   44.5470   94.6940 C.2    31  GLU31       0.3649
     27  OE1       45.9510   44.8100   95.3680 O.co2  31  GLU31      -0.2457
     28  OE2       47.0980   43.4790   94.0530 O.co2  31  GLU31      -0.2457
     29  N         52.1900   47.6090   98.5120 N.3    33  LEU33      -0.1231
     30  CA        53.3180   48.4760   98.8120 C.3    33  LEU33       0.1693
     31  C         53.0240   49.8100   98.1670 C.2    33  LEU33       0.2593
     32  O         53.1850   50.8570   98.7970 O.2    33  LEU33      -0.2718
     33  CB        54.6170   47.9150   98.2280 C.3    33  LEU33       0.0284
     34  CG        55.9950   48.3940   98.6960 C.3    33  LEU33       0.0019
     35  CD1       56.3280   47.8250  100.0740 C.3    33  LEU33       0.0001
     36  CD2       57.0650   48.0040   97.6790 C.3    33  LEU33       0.0001
     37  N         52.5610   49.7560   96.9170 N.am   34  THR34      -0.1939
     38  CA        52.4680   50.9350   96.0590 C.3    34  THR34       0.2028
     39  C         53.6010   51.8840   96.4210 C.2    34  THR34       0.2642
     40  O         54.7740   51.4880   96.4550 O.2    34  THR34      -0.2714
     41  CB        51.1070   51.6860   96.1790 C.3    34  THR34       0.1808
     42  OG1       50.8020   51.9290   97.5550 O.3    34  THR34      -0.2208
     43  CG2       49.9720   50.9080   95.5310 C.3    34  THR34       0.0379
     44  N         53.2240   53.1280   96.7070 N.am   35  LYS35      -0.1977
     45  CA        54.1190   54.1830   97.1750 C.3    35  LYS35       0.1596
     46  C         53.3460   55.5000   97.1610 C.2    35  LYS35       0.2287
     47  O         53.9300   56.5770   97.0330 O.2    35  LYS35      -0.2864
     48  CB        55.4210   54.2550   96.3500 C.3    35  LYS35       0.0298
     49  CG        55.2530   54.3280   94.8260 C.3    35  LYS35       0.0038
     50  CD        56.2030   53.3780   94.0990 C.3    35  LYS35       0.0206
     51  CE        57.6540   53.5600   94.5150 C.3    35  LYS35       0.1093
     52  NZ        58.4190   52.2740   94.4490 N.3    35  LYS35      -0.1314
     53  N         55.1030   58.7270   96.4240 N.3    38  ILE38      -0.1245
     54  CA        56.5670   58.6270   96.5530 C.3    38  ILE38       0.1561
     55  C         57.2230   59.9910   96.7020 C.2    38  ILE38       0.2260
     56  O         57.7880   60.3260   97.7380 O.2    38  ILE38      -0.2867
     57  CB        57.1780   57.9720   95.2920 C.3    38  ILE38       0.0252
     58  CG1       56.1050   57.2500   94.4530 C.3    38  ILE38       0.0019
     59  CG2       58.3570   57.0750   95.6710 C.3    38  ILE38       0.0019
     60  CD1       55.1530   58.1590   93.6580 C.3    38  ILE38       0.0001
     61  N         52.9680   58.8200   89.0480 N.3    42  PRO42      -0.2116
     62  CA        53.7440   58.1310   88.0200 C.3    42  PRO42       0.1372
     63  C         53.6000   58.8150   86.6540 C.2    42  PRO42       0.2244
     64  O         52.4830   59.1460   86.2370 O.2    42  PRO42      -0.2868
     65  CB        53.1240   56.7300   87.9930 C.3    42  PRO42       0.0268
     66  CG        51.7100   56.9280   88.4250 C.3    42  PRO42       0.0207
     67  CD        51.6800   58.1470   89.3180 C.3    42  PRO42       0.0892
     68  N         54.9320   57.8250   82.8880 N.3    44  TRP44      -0.1241
     69  CA        55.5330   56.6640   82.2250 C.3    44  TRP44       0.1605
     70  C         55.9110   56.8900   80.7470 C.2    44  TRP44       0.2264
     71  O         56.2010   55.9310   80.0270 O.2    44  TRP44      -0.2867
     72  CB        54.6340   55.4210   82.4330 C.3    44  TRP44       0.0550
     73  CG        54.7920   54.2980   81.4200 C.ar   44  TRP44       0.0003
     74  CD1       55.8540   53.4430   81.2920 C.ar   44  TRP44       0.0946
     75  CD2       53.8450   53.9150   80.4070 C.ar   44  TRP44       0.0152
     76  NE1       55.6310   52.5630   80.2590 N.ar   44  TRP44      -0.2442
     77  CE2       54.4060   52.8270   79.7020 C.ar   44  TRP44       0.0810
     78  CE3       52.5800   54.3890   80.0270 C.ar   44  TRP44       0.0012
     79  CZ2       53.7420   52.2010   78.6390 C.ar   44  TRP44       0.0191
     80  CZ3       51.9210   53.7660   78.9710 C.ar   44  TRP44       0.0001
     81  CH2       52.5050   52.6850   78.2900 C.ar   44  TRP44       0.0015
@<TRIPOS>BOND
     1    81    79   ar
     2    81    80   ar
     3    79    77   ar
     4    80    78   ar
     5    77    76   ar
     6    77    75   ar
     7    71    70    2
     8    78    75   ar
     9    76    74   ar
    10    75    73   ar
    11    70    69    1
    12    74    73   ar
    13    73    72    1
    14    69    72    1
    15    69    68    1
    16    64    63    2
    17    63    62    1
    18    65    62    1
    19    65    66    1
    20    62    61    1
    21    66    67    1
    22    61    67    1
    23    12    10    1
    24    10     9    1
    25     4     3    2
    26    60    58    1
    27     9     6    1
    28     9    11    1
    29     3     2    1
    30     3     5   am
    31    17    18    1
    32    17    14    1
    33    28    26   ar
    34    50    51    1
    35    50    49    1
    36     6     5    1
    37     6     7    1
    38    52    51    1
    39     2     1    1
    40    58    57    1
    41    18    19    1
    42    16    15    2
    43    25    26    1
    44    25    24    1
    45    26    27   ar
    46    24    21    1
    47    49    48    1
    48    21    20    1
    49    21    22    1
    50    15    20   am
    51    15    14    1
    52    14    13    1
    53    57    59    1
    54    57    54    1
    55     8     7    2
    56    43    41    1
    57    19    13    1
    58    23    22    2
    59    38    41    1
    60    38    39    1
    61    38    37    1
    62    41    42    1
    63    48    45    1
    64    39    40    2
    65    39    44   am
    66    53    54    1
    67    54    55    1
    68    55    56    2
    69    44    45    1
    70    37    31   am
    71    47    46    2
    72    46    45    1
    73    36    34    1
    74    31    32    2
    75    31    30    1
    76    33    34    1
    77    33    30    1
    78    29    30    1
    79    34    35    1
