@<TRIPOS>MOLECULE
tmp/2wscP02.pdb
 77 76 0 0 0
SMALL
GASTEIGER

@<TRIPOS>ATOM
      1  N        -39.2900  -16.2730   66.5340 N.3    59  LEU59      -0.1231
      2  CA       -38.2730  -15.2190   66.8320 C.3    59  LEU59       0.1693
      3  C        -38.0200  -14.5260   65.5080 C.2    59  LEU59       0.2591
      4  O        -38.9450  -14.3480   64.7070 O.2    59  LEU59      -0.2718
      5  CB       -36.9230  -15.7830   67.3410 C.3    59  LEU59       0.0284
      6  CG       -35.8060  -14.9020   67.9990 C.3    59  LEU59       0.0019
      7  CD1      -34.4200  -15.3600   67.6330 C.3    59  LEU59       0.0001
      8  CD2      -35.8760  -13.4240   67.7350 C.3    59  LEU59       0.0001
      9  N        -36.7560  -14.1770   65.2460 N.am   60  LEU60      -0.1980
     10  CA       -36.3370  -13.6270   63.9420 C.3    60  LEU60       0.1596
     11  C        -37.5410  -13.1740   63.1190 C.2    60  LEU60       0.2287
     12  O        -37.8240  -13.7470   62.0460 O.2    60  LEU60      -0.2864
     13  CB       -35.5540  -14.6700   63.1310 C.3    60  LEU60       0.0297
     14  CG       -34.3760  -15.4430   63.7340 C.3    60  LEU60       0.0022
     15  CD1      -34.4360  -16.9020   63.2360 C.3    60  LEU60       0.0001
     16  CD2      -33.0600  -14.7290   63.3960 C.3    60  LEU60       0.0001
     17  N        -36.7920   -8.6730   64.4810 N.3    63  PRO63      -0.2102
     18  CA       -35.3690   -8.5390   64.1650 C.3    63  PRO63       0.1504
     19  C        -35.1100   -8.2720   62.6800 C.2    63  PRO63       0.2575
     20  O        -34.3630   -7.3600   62.3530 O.2    63  PRO63      -0.2718
     21  CB       -34.7730   -9.8860   64.6160 C.3    63  PRO63       0.0282
     22  CG       -35.8930  -10.7830   64.6840 C.3    63  PRO63       0.0208
     23  CD       -37.0520   -9.9770   65.1220 C.3    63  PRO63       0.0893
     24  N        -35.7110   -9.0520   61.7850 N.am   64  PHE64      -0.1977
     25  CA       -35.6890   -8.6690   60.3640 C.3    64  PHE64       0.1639
     26  C        -37.0910   -8.4350   59.7000 C.2    64  PHE64       0.2290
     27  O        -37.4360   -9.0680   58.6720 O.2    64  PHE64      -0.2864
     28  CB       -34.5370   -9.3190   59.4880 C.3    64  PHE64       0.0560
     29  CG       -34.3370  -10.8400   59.6360 C.ar   64  PHE64      -0.0200
     30  CD1      -34.9320  -11.5900   60.6540 C.ar   64  PHE64      -0.0042
     31  CD2      -33.4840  -11.5060   58.7380 C.ar   64  PHE64      -0.0042
     32  CE1      -34.6940  -12.9830   60.7500 C.ar   64  PHE64      -0.0003
     33  CE2      -33.2570  -12.8920   58.8190 C.ar   64  PHE64      -0.0003
     34  CZ       -33.8590  -13.6250   59.8240 C.ar   64  PHE64      -0.0000
     35  N        -36.2450   -4.4050   62.3060 N.3    67  ALA67      -0.1231
     36  CA       -34.8980   -3.8800   62.0110 C.3    67  ALA67       0.1694
     37  C        -34.3750   -4.1690   60.5580 C.2    67  ALA67       0.2593
     38  O        -33.1910   -3.9380   60.2200 O.2    67  ALA67      -0.2718
     39  CB       -33.8970   -4.3210   63.0750 C.3    67  ALA67       0.0304
     40  N        -35.2960   -4.6720   59.7200 N.am   68  GLY68      -0.1943
     41  CA       -35.0830   -4.8890   58.2820 C.3    68  GLY68       0.1998
     42  C        -34.3850   -3.7520   57.5410 C.2    68  GLY68       0.2481
     43  O        -34.4070   -2.6070   58.0110 O.2    68  GLY68      -0.2729
     44  N        -33.8340   -4.0600   56.3320 N.am   69  PRO69      -0.2715
     45  CA       -32.6690   -3.3650   55.7620 C.3    69  PRO69       0.1536
     46  C        -33.0540   -1.9540   55.3330 C.2    69  PRO69       0.2598
     47  O        -32.3030   -0.9830   55.5740 O.2    69  PRO69      -0.2715
     48  CB       -32.2650   -4.2490   54.5660 C.3    69  PRO69       0.0310
     49  CG       -33.4810   -4.8920   54.1640 C.3    69  PRO69       0.0237
     50  CD       -34.3680   -5.0570   55.3800 C.3    69  PRO69       0.0939
     51  N        -34.2270   -1.8420   54.7150 N.am   70  LEU70      -0.1964
     52  CA       -34.9310   -0.5840   54.7240 C.3    70  LEU70       0.1728
     53  C        -36.1780   -0.9560   55.5300 C.2    70  LEU70       0.2616
     54  O        -37.0320   -1.6810   55.0200 O.2    70  LEU70      -0.2715
     55  CB       -35.2260   -0.1420   53.2800 C.3    70  LEU70       0.0311
     56  CG       -34.1080    0.3690   52.3070 C.3    70  LEU70       0.0022
     57  CD1      -32.6350    0.0440   52.6440 C.3    70  LEU70       0.0001
     58  CD2      -34.4120   -0.1040   50.8680 C.3    70  LEU70       0.0001
     59  N        -36.2410   -0.5190   56.8060 N.am   71  ARG71      -0.1977
     60  CA       -37.1760   -1.0520   57.8540 C.3    71  ARG71       0.1597
     61  C        -38.7050   -0.8340   57.6780 C.2    71  ARG71       0.2287
     62  O        -39.2310   -0.9450   56.5730 O.2    71  ARG71      -0.2864
     63  CB       -36.7370   -0.5710   59.2620 C.3    71  ARG71       0.0334
     64  CG       -36.5770    0.9650   59.3690 C.3    71  ARG71       0.0492
     65  CD       -36.1080    1.4260   60.7450 C.3    71  ARG71       0.2205
     66  NE       -37.2370    1.5750   61.6750 N.pl3  71  ARG71      -0.0865
     67  CZ       -37.1200    1.8130   62.9850 C.cat  71  ARG71       0.5346
     68  NH1      -38.2160    1.9250   63.7330 N.pl3  71  ARG71       0.1354
     69  NH2      -35.9160    1.9270   63.5490 N.pl3  71  ARG71       0.1354
     70  N        -33.1490  -17.8660   57.0030 N.3    87  LEU87      -0.1245
     71  CA       -32.2110  -18.1690   58.1020 C.3    87  LEU87       0.1561
     72  C        -32.3730  -19.6240   58.4490 C.2    87  LEU87       0.2260
     73  O        -31.4320  -20.4090   58.2210 O.2    87  LEU87      -0.2867
     74  CB       -32.3690  -17.2690   59.3540 C.3    87  LEU87       0.0270
     75  CG       -31.0210  -16.7910   59.9740 C.3    87  LEU87       0.0019
     76  CD1      -30.3570  -15.6910   59.1260 C.3    87  LEU87       0.0001
     77  CD2      -31.1100  -16.2880   61.4220 C.3    87  LEU87       0.0001
@<TRIPOS>BOND
     1    58    56    1
     2    56    57    1
     3    56    55    1
     4    55    52    1
     5    49    48    1
     6    49    50    1
     7    48    45    1
     8    51    52    1
     9    51    46   am
    10    52    53    1
    11    54    53    2
    12    46    47    2
    13    46    45    1
    14    50    44    1
    15    53    59   am
    16    45    44    1
    17    44    42   am
    18    62    61    2
    19    59    60    1
    20    70    71    1
    21    42    43    2
    22    42    41    1
    23    61    60    1
    24    60    63    1
    25    71    72    1
    26    71    74    1
    27    73    72    2
    28    41    40    1
    29    27    26    2
    30    31    33   ar
    31    31    29   ar
    32    33    34   ar
    33    76    75    1
    34    63    64    1
    35    74    75    1
    36    64    65    1
    37    28    29    1
    38    28    25    1
    39    29    30   ar
    40    26    25    1
    41    40    37   am
    42    34    32   ar
    43    75    77    1
    44    38    37    2
    45    25    24    1
    46    37    36    1
    47    30    32   ar
    48    65    66    1
    49    66    67    2
    50    24    19   am
    51    36    35    1
    52    36    39    1
    53    12    11    2
    54    20    19    2
    55    19    18    1
    56    67    69    1
    57    67    68    1
    58    11    10    1
    59    13    14    1
    60    13    10    1
    61    15    14    1
    62    16    14    1
    63    10     9    1
    64    18    17    1
    65    18    21    1
    66    17    23    1
    67    21    22    1
    68    22    23    1
    69     4     3    2
    70     9     3   am
    71     3     2    1
    72     1     2    1
    73     2     5    1
    74     5     6    1
    75     7     6    1
    76     8     6    1
