@<TRIPOS>MOLECULE
tmp/2wscC01.pdb
 84 81 0 0 0
SMALL
GASTEIGER

@<TRIPOS>ATOM
      1  N         35.7600   15.1250  112.5450 N.3     3  PRO3       -0.2102
      2  CA        34.9660   15.5380  113.7120 C.3     3  PRO3        0.1504
      3  C         33.8000   14.5950  114.0420 C.2     3  PRO3        0.2576
      4  O         33.3660   13.8080  113.1910 O.2     3  PRO3       -0.2718
      5  CB        34.4350   16.9120  113.2970 C.3     3  PRO3        0.0282
      6  CG        35.4910   17.4500  112.4010 C.3     3  PRO3        0.0208
      7  CD        36.0230   16.2620  111.6390 C.3     3  PRO3        0.0893
      8  N         33.2970   14.6940  115.2710 N.am    4  GLU4       -0.1966
      9  CA        32.3120   13.7410  115.7890 C.3     4  GLU4        0.1733
     10  C         30.9430   14.3690  116.0790 C.2     4  GLU4        0.2616
     11  O         30.8090   15.5940  116.1760 O.2     4  GLU4       -0.2715
     12  CB        32.8620   13.0450  117.0420 C.3     4  GLU4        0.0429
     13  CG        34.1370   12.2260  116.8100 C.3     4  GLU4        0.1163
     14  CD        35.4010   13.0710  116.7400 C.2     4  GLU4        0.3649
     15  OE1       35.3380   14.2820  117.0370 O.co2   4  GLU4       -0.2457
     16  OE2       36.4640   12.5200  116.3880 O.co2   4  GLU4       -0.2457
     17  N         29.9320   13.5150  116.2060 N.am    5  GLY5       -0.1955
     18  CA        28.5800   13.9560  116.5290 C.3     5  GLY5        0.1869
     19  C         27.7000   12.7910  116.9290 C.2     5  GLY5        0.2309
     20  O         26.8940   12.3120  116.1290 O.2     5  GLY5       -0.2863
     21  N         21.9660   18.6910  124.7720 N.3    15  LEU15      -0.1245
     22  CA        22.1110   19.9480  124.0420 C.3    15  LEU15       0.1561
     23  C         20.7550   20.6200  123.8390 C.2    15  LEU15       0.2260
     24  O         20.6940   21.8120  123.5260 O.2    15  LEU15      -0.2867
     25  CB        22.8100   19.7420  122.6940 C.3    15  LEU15       0.0270
     26  CG        24.3450   19.7820  122.6160 C.3    15  LEU15       0.0019
     27  CD1       25.0310   18.5790  123.2820 C.3    15  LEU15       0.0001
     28  CD2       24.7780   19.8940  121.1580 C.3    15  LEU15       0.0001
     29  N         20.0980   24.2360  125.1840 N.3    19  GLU19      -0.1245
     30  CA        19.5760   25.2780  124.2800 C.3    19  GLU19       0.1567
     31  C         18.6020   26.2130  124.9830 C.2    19  GLU19       0.2260
     32  O         18.6790   27.4370  124.8310 O.2    19  GLU19      -0.2867
     33  CB        18.8980   24.6730  123.0390 C.3    19  GLU19       0.0388
     34  CG        19.8280   24.4540  121.8510 C.3    19  GLU19       0.1160
     35  CD        19.1530   24.6220  120.4950 C.2    19  GLU19       0.3649
     36  OE1       18.4760   25.6520  120.2680 O.co2  19  GLU19      -0.2457
     37  OE2       19.3270   23.7270  119.6420 O.co2  19  GLU19      -0.2457
     38  N         27.3020   37.3980  116.0600 N.3    74  MET74      -0.1230
     39  CA        26.7290   36.0710  116.3160 C.3    74  MET74       0.1702
     40  C         27.5090   34.9470  115.6300 C.2    74  MET74       0.2592
     41  O         27.4660   33.7960  116.0650 O.2    74  MET74      -0.2718
     42  CB        25.2520   36.0570  115.9000 C.3    74  MET74       0.0401
     43  CG        24.4370   34.8770  116.4070 C.3    74  MET74       0.0596
     44  SD        24.2760   33.5750  115.1800 S.3    74  MET74      -0.1393
     45  CE        23.1070   34.3230  114.0450 C.3    74  MET74       0.0692
     46  N         28.2220   35.2900  114.5630 N.am   75  ALA75      -0.1980
     47  CA        29.1310   34.3580  113.9300 C.3    75  ALA75       0.1597
     48  C         30.4510   34.3090  114.6890 C.2    75  ALA75       0.2287
     49  O         30.8850   33.2320  115.0890 O.2    75  ALA75      -0.2864
     50  CB        29.3590   34.7340  112.4760 C.3    75  ALA75       0.0319
     51  N         30.1920   33.0440  118.0580 N.3    78  GLY78      -0.1210
     52  CA        29.8300   31.6460  117.8610 C.3    78  GLY78       0.1956
     53  C         31.1030   30.9120  117.4940 C.2    78  GLY78       0.2611
     54  O         31.1680   29.6880  117.5900 O.2    78  GLY78      -0.2717
     55  N         32.1120   31.6840  117.0770 N.am   79  PHE79      -0.1976
     56  CA        33.4750   31.2010  116.8370 C.3    79  PHE79       0.1639
     57  C         34.2540   31.1860  118.1630 C.2    79  PHE79       0.2290
     58  O         35.4690   31.4160  118.2110 O.2    79  PHE79      -0.2864
     59  CB        34.1650   32.0760  115.7800 C.3    79  PHE79       0.0560
     60  CG        35.3000   31.3990  115.0580 C.ar   79  PHE79      -0.0200
     61  CD1       35.0480   30.4420  114.0770 C.ar   79  PHE79      -0.0042
     62  CD2       36.6230   31.7380  115.3410 C.ar   79  PHE79      -0.0042
     63  CE1       36.0930   29.8200  113.4020 C.ar   79  PHE79      -0.0003
     64  CE2       37.6760   31.1250  114.6710 C.ar   79  PHE79      -0.0003
     65  CZ        37.4100   30.1620  113.6970 C.ar   79  PHE79      -0.0000
     66  N         32.0050   29.5650  121.0450 N.3    81  GLU81      -0.1231
     67  CA        31.1260   28.5540  121.6550 C.3    81  GLU81       0.1699
     68  C         31.6720   27.1420  121.4210 C.2    81  GLU81       0.2592
     69  O         31.5650   26.2690  122.2850 O.2    81  GLU81      -0.2718
     70  CB        29.6910   28.6790  121.1100 C.3    81  GLU81       0.0402
     71  CG        28.6010   27.9760  121.9450 C.3    81  GLU81       0.1161
     72  CD        27.2210   27.9660  121.2740 C.2    81  GLU81       0.3649
     73  OE1       26.2710   27.3930  121.8620 O.co2  81  GLU81      -0.2457
     74  OE2       27.0770   28.5260  120.1580 O.co2  81  GLU81      -0.2457
     75  N         32.2840   26.9470  120.2560 N.am   82  HIS82      -0.1976
     76  CA        32.8480   25.6560  119.8600 C.3    82  HIS82       0.1656
     77  C         34.3630   25.5560  120.1290 C.2    82  HIS82       0.2291
     78  O         35.0650   24.7400  119.5160 O.2    82  HIS82      -0.2864
     79  CB        32.5110   25.3840  118.3910 C.3    82  HIS82       0.0771
     80  CG        31.0390   25.2890  118.1190 C.ar   82  HIS82       0.0820
     81  ND1       30.4820   24.2490  117.4080 N.ar   82  HIS82      -0.2267
     82  CD2       30.0090   26.0960  118.4740 C.ar   82  HIS82       0.1154
     83  CE1       29.1740   24.4230  117.3290 C.ar   82  HIS82       0.1986
     84  NE2       28.8610   25.5360  117.9670 N.ar   82  HIS82      -0.2212
@<TRIPOS>BOND
     1     7     6    1
     2     7     1    1
     3     6     5    1
     4    50    47    1
     5     1     2    1
     6     4     3    2
     7     5     2    1
     8    63    65   ar
     9    63    61   ar
    10    65    64   ar
    11     2     3    1
    12    47    46    1
    13    47    48    1
    14     3     8   am
    15    45    44    1
    16    61    60   ar
    17    46    40   am
    18    64    62   ar
    19    48    49    2
    20    60    62   ar
    21    60    59    1
    22    44    43    1
    23     8     9    1
    24    40    41    2
    25    40    39    1
    26    59    56    1
    27     9    10    1
    28     9    12    1
    29    42    39    1
    30    42    43    1
    31    38    39    1
    32    10    11    2
    33    10    17   am
    34    20    19    2
    35    17    18    1
    36    16    14   ar
    37    18    19    1
    38    14    13    1
    39    14    15   ar
    40    13    12    1
    41    56    55    1
    42    56    57    1
    43    55    53   am
    44    83    81   ar
    45    83    84   ar
    46    81    80   ar
    47    53    54    2
    48    53    52    1
    49    52    51    1
    50    84    82   ar
    51    80    79    1
    52    80    82   ar
    53    57    58    2
    54    79    76    1
    55    78    77    2
    56    37    35   ar
    57    76    77    1
    58    76    75    1
    59    74    72   ar
    60    75    68   am
    61    36    35   ar
    62    35    34    1
    63    66    67    1
    64    70    67    1
    65    70    71    1
    66    28    26    1
    67    72    73   ar
    68    72    71    1
    69    68    67    1
    70    68    69    2
    71    34    33    1
    72    26    25    1
    73    26    27    1
    74    25    22    1
    75    33    30    1
    76    24    23    2
    77    23    22    1
    78    22    21    1
    79    30    31    1
    80    30    29    1
    81    32    31    2
