@<TRIPOS>MOLECULE
tmp/2wseC09.pdb
 84 81 0 0 0
SMALL
GASTEIGER

@<TRIPOS>ATOM
      1  N         35.7160   15.3030  111.3280 N.3     3  PRO3       -0.2102
      2  CA        34.9240   15.7050  112.5000 C.3     3  PRO3        0.1504
      3  C         33.7590   14.7590  112.8230 C.2     3  PRO3        0.2576
      4  O         33.3230   13.9790  111.9660 O.2     3  PRO3       -0.2718
      5  CB        34.3920   17.0830  112.0980 C.3     3  PRO3        0.0282
      6  CG        35.4460   17.6290  111.2050 C.3     3  PRO3        0.0208
      7  CD        35.9770   16.4480  110.4320 C.3     3  PRO3        0.0893
      8  N         33.2570   14.8470  114.0540 N.am    4  GLU4       -0.1966
      9  CA        32.2740   13.8890  114.5650 C.3     4  GLU4        0.1733
     10  C         30.9050   14.5140  114.8630 C.2     4  GLU4        0.2616
     11  O         30.7710   15.7380  114.9710 O.2     4  GLU4       -0.2715
     12  CB        32.8260   13.1820  115.8110 C.3     4  GLU4        0.0429
     13  CG        34.1010   12.3650  115.5690 C.3     4  GLU4        0.1163
     14  CD        35.3640   13.2110  115.5050 C.2     4  GLU4        0.3649
     15  OE1       35.3010   14.4190  115.8130 O.co2   4  GLU4       -0.2457
     16  OE2       36.4270   12.6640  115.1460 O.co2   4  GLU4       -0.2457
     17  N         29.8940   13.6580  114.9840 N.am    5  GLY5       -0.1955
     18  CA        28.5430   14.0960  115.3130 C.3     5  GLY5        0.1869
     19  C         27.6640   12.9270  115.7040 C.2     5  GLY5        0.2309
     20  O         26.8570   12.4550  114.9010 O.2     5  GLY5       -0.2863
     21  N         21.9400   18.7540  123.6090 N.3    15  LEU15      -0.1245
     22  CA        22.0840   20.0180  122.8900 C.3    15  LEU15       0.1561
     23  C         20.7270   20.6910  122.6950 C.2    15  LEU15       0.2260
     24  O         20.6650   21.8860  122.3930 O.2    15  LEU15      -0.2867
     25  CB        22.7810   19.8240  121.5390 C.3    15  LEU15       0.0270
     26  CG        24.3160   19.8650  121.4590 C.3    15  LEU15       0.0019
     27  CD1       25.0030   18.6570  122.1130 C.3    15  LEU15       0.0001
     28  CD2       24.7460   19.9910  120.0010 C.3    15  LEU15       0.0001
     29  N         20.0710   24.2950  124.0730 N.3    19  GLU19      -0.1245
     30  CA        19.5480   25.3450  123.1800 C.3    19  GLU19       0.1567
     31  C         18.5740   26.2730  123.8930 C.2    19  GLU19       0.2260
     32  O         18.6510   27.4980  123.7520 O.2    19  GLU19      -0.2867
     33  CB        18.8680   24.7510  121.9340 C.3    19  GLU19       0.0388
     34  CG        19.7960   24.5430  120.7430 C.3    19  GLU19       0.1160
     35  CD        19.1190   24.7230  119.3900 C.2    19  GLU19       0.3649
     36  OE1       18.4410   25.7550  119.1730 O.co2  19  GLU19      -0.2457
     37  OE2       19.2920   23.8360  118.5280 O.co2  19  GLU19      -0.2457
     38  N         27.2570   37.5410  115.0570 N.3    73  MET73      -0.1230
     39  CA        26.6850   36.2110  115.3020 C.3    73  MET73       0.1702
     40  C         27.4640   35.0940  114.6050 C.2    73  MET73       0.2592
     41  O         27.4220   33.9390  115.0290 O.2    73  MET73      -0.2718
     42  CB        25.2070   36.2010  114.8880 C.3    73  MET73       0.0401
     43  CG        24.3930   35.0160  115.3860 C.3    73  MET73       0.0596
     44  SD        24.2310   33.7250  114.1470 S.3    73  MET73      -0.1393
     45  CE        23.0600   34.4830  113.0210 C.3    73  MET73       0.0692
     46  N         28.1750   35.4470  113.5400 N.am   74  ALA74      -0.1980
     47  CA        29.0840   34.5210  112.8970 C.3    74  ALA74       0.1597
     48  C         30.4050   34.4650  113.6530 C.2    74  ALA74       0.2287
     49  O         30.8400   33.3850  114.0430 O.2    74  ALA74      -0.2864
     50  CB        29.3090   34.9100  111.4460 C.3    74  ALA74       0.0319
     51  N         30.1510   33.1700  117.0110 N.3    77  GLY77      -0.1210
     52  CA        29.7900   31.7740  116.8020 C.3    77  GLY77       0.1956
     53  C         31.0620   31.0430  116.4270 C.2    77  GLY77       0.2611
     54  O         31.1280   29.8180  116.5110 O.2    77  GLY77      -0.2717
     55  N         32.0700   31.8190  116.0150 N.am   78  PHE78      -0.1976
     56  CA        33.4330   31.3390  115.7680 C.3    78  PHE78       0.1639
     57  C         34.2140   31.3120  117.0930 C.2    78  PHE78       0.2290
     58  O         35.4290   31.5420  117.1410 O.2    78  PHE78      -0.2864
     59  CB        34.1210   32.2240  114.7180 C.3    78  PHE78       0.0560
     60  CG        35.2550   31.5540  113.9880 C.ar   78  PHE78      -0.0200
     61  CD1       35.0020   30.6050  112.9990 C.ar   78  PHE78      -0.0042
     62  CD2       36.5790   31.8900  114.2720 C.ar   78  PHE78      -0.0042
     63  CE1       36.0460   29.9900  112.3170 C.ar   78  PHE78      -0.0003
     64  CE2       37.6310   31.2840  113.5950 C.ar   78  PHE78      -0.0003
     65  CZ        37.3630   30.3300  112.6130 C.ar   78  PHE78      -0.0000
     66  N         31.9700   29.6650  119.9640 N.3    80  GLU80      -0.1231
     67  CA        31.0920   28.6480  120.5660 C.3    80  GLU80       0.1699
     68  C         31.6390   27.2380  120.3190 C.2    80  GLU80       0.2592
     69  O         31.5330   26.3570  121.1750 O.2    80  GLU80      -0.2718
     70  CB        29.6570   28.7770  120.0250 C.3    80  GLU80       0.0402
     71  CG        28.5680   28.0660  120.8550 C.3    80  GLU80       0.1161
     72  CD        27.1870   28.0620  120.1860 C.2    80  GLU80       0.3649
     73  OE1       26.2380   27.4840  120.7700 O.co2  80  GLU80      -0.2457
     74  OE2       27.0410   28.6320  119.0750 O.co2  80  GLU80      -0.2457
     75  N         32.2490   27.0540  119.1510 N.am   81  HIS81      -0.1976
     76  CA        32.8120   25.7670  118.7420 C.3    81  HIS81       0.1656
     77  C         34.3280   25.6650  119.0080 C.2    81  HIS81       0.2291
     78  O         35.0290   24.8550  118.3870 O.2    81  HIS81      -0.2864
     79  CB        32.4730   25.5080  117.2710 C.3    81  HIS81       0.0771
     80  CG        31.0010   25.4150  117.0010 C.ar   81  HIS81       0.0820
     81  ND1       30.4430   24.3810  116.2810 N.ar   81  HIS81      -0.2267
     82  CD2       29.9710   26.2180  117.3650 C.ar   81  HIS81       0.1154
     83  CE1       29.1350   24.5550  116.2060 C.ar   81  HIS81       0.1986
     84  NE2       28.8230   25.6630  116.8550 N.ar   81  HIS81      -0.2212
@<TRIPOS>BOND
     1     7     6    1
     2     7     1    1
     3     6     5    1
     4     1     2    1
     5    50    47    1
     6     4     3    2
     7     5     2    1
     8    63    65   ar
     9    63    61   ar
    10     2     3    1
    11    65    64   ar
    12     3     8   am
    13    47    46    1
    14    47    48    1
    15    61    60   ar
    16    45    44    1
    17    46    40   am
    18    64    62   ar
    19    48    49    2
    20    60    62   ar
    21    60    59    1
    22     8     9    1
    23    44    43    1
    24     9    10    1
    25     9    12    1
    26    40    41    2
    27    40    39    1
    28    59    56    1
    29    10    11    2
    30    10    17   am
    31    42    39    1
    32    42    43    1
    33    20    19    2
    34    17    18    1
    35    38    39    1
    36    16    14   ar
    37    18    19    1
    38    14    13    1
    39    14    15   ar
    40    13    12    1
    41    56    55    1
    42    56    57    1
    43    55    53   am
    44    83    81   ar
    45    83    84   ar
    46    81    80   ar
    47    53    54    2
    48    53    52    1
    49    52    51    1
    50    84    82   ar
    51    80    79    1
    52    80    82   ar
    53    57    58    2
    54    79    76    1
    55    78    77    2
    56    37    35   ar
    57    76    77    1
    58    76    75    1
    59    74    72   ar
    60    75    68   am
    61    36    35   ar
    62    35    34    1
    63    66    67    1
    64    28    26    1
    65    70    67    1
    66    70    71    1
    67    72    73   ar
    68    72    71    1
    69    68    67    1
    70    68    69    2
    71    34    33    1
    72    26    25    1
    73    26    27    1
    74    25    22    1
    75    33    30    1
    76    24    23    2
    77    23    22    1
    78    22    21    1
    79    30    31    1
    80    30    29    1
    81    32    31    2
