@<TRIPOS>MOLECULE
tmp/2wseF08.pdb
 202 196 0 0 0
SMALL
GASTEIGER

@<TRIPOS>ATOM
      1  N         -4.9290   -1.1260   23.1280 N.3   122  TRP122     -0.1241
      2  CA        -4.2010   -2.0720   22.2920 C.3   122  TRP122      0.1605
      3  C         -5.0750   -3.1000   21.5850 C.2   122  TRP122      0.2264
      4  O         -4.6930   -3.5400   20.5170 O.2   122  TRP122     -0.2867
      5  CB        -3.0190   -2.7140   23.0260 C.3   122  TRP122      0.0550
      6  CG        -3.3890   -3.8470   23.9070 C.ar  122  TRP122      0.0003
      7  CD1       -4.4380   -3.9050   24.8020 C.ar  122  TRP122      0.0946
      8  CD2       -2.7020   -5.1000   24.0090 C.ar  122  TRP122      0.0152
      9  NE1       -4.4550   -5.1320   25.4350 N.ar  122  TRP122     -0.2442
     10  CE2       -3.3960   -5.8820   24.9720 C.ar  122  TRP122      0.0810
     11  CE3       -1.5740   -5.6460   23.3790 C.ar  122  TRP122      0.0012
     12  CZ2       -2.9910   -7.1580   25.3150 C.ar  122  TRP122      0.0191
     13  CZ3       -1.1870   -6.9230   23.7230 C.ar  122  TRP122      0.0001
     14  CH2       -1.8870   -7.6620   24.6850 C.ar  122  TRP122      0.0015
     15  N         -5.1880   -0.5260   19.4380 N.3   125  THR125     -0.1203
     16  CA        -3.9340   -0.0540   18.8300 C.3   125  THR125      0.1994
     17  C         -3.2850   -1.0130   17.7920 C.2   125  THR125      0.2617
     18  O         -2.5920   -0.5570   16.8850 O.2   125  THR125     -0.2717
     19  CB        -2.9380    0.4530   19.9080 C.3   125  THR125      0.1784
     20  OG1       -3.6210    1.4070   20.7560 O.3   125  THR125     -0.2211
     21  CG2       -1.6430    1.1000   19.2560 C.3   125  THR125      0.0376
     22  N         -3.4940   -2.3220   17.9400 N.am  126  ILE126     -0.1979
     23  CA        -3.5740   -3.1590   16.7650 C.3   126  ILE126      0.1595
     24  C         -5.0630   -3.0630   16.3380 C.2   126  ILE126      0.2287
     25  O         -5.9580   -3.7010   16.9330 O.2   126  ILE126     -0.2864
     26  CB        -2.9720   -4.6190   16.9370 C.3   126  ILE126      0.0276
     27  CG1       -3.8920   -5.7100   16.3720 C.3   126  ILE126      0.0022
     28  CG2       -2.7020   -4.9630   18.3890 C.3   126  ILE126      0.0022
     29  CD1       -4.0290   -5.7790   14.8880 C.3   126  ILE126      0.0001
     30  N         10.4030  -20.6820   19.8170 N.3   181  LEU181     -0.1231
     31  CA         9.5410  -19.7840   20.6290 C.3   181  LEU181      0.1693
     32  C          9.7280  -18.3120   20.2600 C.2   181  LEU181      0.2592
     33  O          9.2990  -17.8870   19.1810 O.2   181  LEU181     -0.2718
     34  CB         9.8000  -20.0140   22.1210 C.3   181  LEU181      0.0284
     35  CG         9.0620  -19.2200   23.2080 C.3   181  LEU181      0.0019
     36  CD1        7.5570  -19.3150   23.1150 C.3   181  LEU181      0.0001
     37  CD2        9.4900  -19.6910   24.5810 C.3   181  LEU181      0.0001
     38  N         10.3710  -17.5470   21.1500 N.am  182  PHE182     -0.1976
     39  CA        10.6560  -16.1140   20.9510 C.3   182  PHE182      0.1639
     40  C         10.7520  -15.6550   19.4910 C.2   182  PHE182      0.2290
     41  O          9.9810  -14.7840   19.0700 O.2   182  PHE182     -0.2864
     42  CB        11.9970  -15.7520   21.5770 C.3   182  PHE182      0.0560
     43  CG        11.9810  -15.6240   23.0570 C.ar  182  PHE182     -0.0200
     44  CD1       11.2580  -14.6030   23.6700 C.ar  182  PHE182     -0.0042
     45  CD2       12.7710  -16.4700   23.8330 C.ar  182  PHE182     -0.0042
     46  CE1       11.2630  -14.4590   25.0470 C.ar  182  PHE182     -0.0003
     47  CE2       12.7950  -16.3320   25.2170 C.ar  182  PHE182     -0.0003
     48  CZ        12.0270  -15.3230   25.8280 C.ar  182  PHE182     -0.0000
     49  N          7.9910  -16.2890   17.5020 N.3   185  SER185     -0.1202
     50  CA         6.8940  -15.7290   18.3000 C.3   185  SER185      0.2020
     51  C          6.8430  -14.2460   18.0500 C.2   185  SER185      0.2619
     52  O          5.7690  -13.6620   17.8270 O.2   185  SER185     -0.2717
     53  CB         7.1190  -15.9870   19.7710 C.3   185  SER185      0.2103
     54  OG         5.9270  -15.7300   20.5190 O.3   185  SER185     -0.2182
     55  N          8.0310  -13.6380   18.1000 N.am  186  SER186     -0.1951
     56  CA         8.2740  -12.4450   17.2990 C.3   186  SER186      0.1924
     57  C          8.0150  -12.9680   15.8730 C.2   186  SER186      0.2314
     58  O          7.0480  -13.7360   15.6930 O.2   186  SER186     -0.2863
     59  CB         9.6830  -11.8360   17.5200 C.3   186  SER186      0.2116
     60  OG         9.6730  -10.8820   18.5830 O.3   186  SER186     -0.2180
     61  N          4.3970  -12.2850   15.0710 N.3   189  TRP189     -0.1241
     62  CA         3.8530  -10.9810   15.4690 C.3   189  TRP189      0.1605
     63  C          4.2260   -9.9860   14.3920 C.2   189  TRP189      0.2264
     64  O          3.3350   -9.3750   13.8100 O.2   189  TRP189     -0.2867
     65  CB         4.3720  -10.5380   16.8410 C.3   189  TRP189      0.0550
     66  CG         3.6750   -9.3450   17.4080 C.ar  189  TRP189      0.0003
     67  CD1        4.2670   -8.1800   17.7980 C.ar  189  TRP189      0.0946
     68  CD2        2.2500   -9.1950   17.6850 C.ar  189  TRP189      0.0152
     69  NE1        3.3110   -7.3060   18.3020 N.ar  189  TRP189     -0.2442
     70  CE2        2.0650   -7.8990   18.2300 C.ar  189  TRP189      0.0810
     71  CE3        1.1190  -10.0250   17.5330 C.ar  189  TRP189      0.0012
     72  CZ2        0.7880   -7.4130   18.6140 C.ar  189  TRP189      0.0191
     73  CZ3       -0.1460   -9.5330   17.9240 C.ar  189  TRP189      0.0001
     74  CH2       -0.2940   -8.2460   18.4590 C.ar  189  TRP189      0.0015
     75  N          1.0680   -7.4350   12.9340 N.3   193  LEU193     -0.1245
     76  CA         0.9740   -5.9940   12.9950 C.3   193  LEU193      0.1561
     77  C          0.8910   -5.4150   11.5930 C.2   193  LEU193      0.2260
     78  O          0.1240   -4.4790   11.3310 O.2   193  LEU193     -0.2867
     79  CB         2.2020   -5.4290   13.6870 C.3   193  LEU193      0.0270
     80  CG         2.1710   -5.1210   15.1650 C.3   193  LEU193      0.0019
     81  CD1        3.6380   -4.9340   15.4500 C.3   193  LEU193      0.0001
     82  CD2        1.3770   -3.8440   15.4950 C.3   193  LEU193      0.0001
     83  N          4.8340    5.3180   20.1080 N.3   267  LEU267     -0.1245
     84  CA         5.8200    4.9140   19.1110 C.3   267  LEU267      0.1561
     85  C          5.1190    4.8420   17.7880 C.2   267  LEU267      0.2260
     86  O          3.9230    4.5250   17.7260 O.2   267  LEU267     -0.2867
     87  CB         6.4570    3.5480   19.4760 C.3   267  LEU267      0.0270
     88  CG         7.8210    3.4190   20.2070 C.3   267  LEU267      0.0019
     89  CD1        8.0580    4.4970   21.2540 C.3   267  LEU267      0.0001
     90  CD2        7.8880    2.0810   20.8860 C.3   267  LEU267      0.0001
     91  N          7.6550   -0.3750   15.7330 N.3   272  VAL272     -0.1245
     92  CA         7.4560   -1.5130   16.6270 C.3   272  VAL272      0.1561
     93  C          7.4060   -2.8690   15.8720 C.2   272  VAL272      0.2260
     94  O          6.9820   -3.8760   16.4640 O.2   272  VAL272     -0.2867
     95  CB         6.1720   -1.3920   17.5870 C.3   272  VAL272      0.0252
     96  CG1        6.0430   -0.0210   18.3290 C.3   272  VAL272      0.0019
     97  CG2        4.8770   -1.7000   16.8710 C.3   272  VAL272      0.0019
     98  N         11.4700   -3.6360   14.0010 N.3   275  HIS275     -0.1226
     99  CA        12.0790   -4.0880   15.2780 C.3   275  HIS275      0.1752
    100  C         11.7230   -5.5280   15.6110 C.2   275  HIS275      0.2596
    101  O         12.6220   -6.3610   15.7970 O.2   275  HIS275     -0.2718
    102  CB        11.6400   -3.2460   16.4610 C.3   275  HIS275      0.0759
    103  CG        11.9210   -3.9140   17.7690 C.ar  275  HIS275      0.0818
    104  ND1       11.0080   -4.7550   18.3930 N.ar  275  HIS275     -0.2268
    105  CD2       13.0330   -3.9170   18.5470 C.ar  275  HIS275      0.1154
    106  CE1       11.5370   -5.2270   19.5100 C.ar  275  HIS275      0.1986
    107  NE2       12.7640   -4.7290   19.6300 N.ar  275  HIS275     -0.2212
    108  N         10.4110   -5.7910   15.7080 N.am  276  HIS276     -0.1975
    109  CA         9.8870   -7.1230   15.9720 C.3   276  HIS276      0.1656
    110  C         10.4130   -8.1050   14.9720 C.2   276  HIS276      0.2291
    111  O         10.8590   -9.2090   15.3370 O.2   276  HIS276     -0.2864
    112  CB         8.3650   -7.1160   15.9780 C.3   276  HIS276      0.0771
    113  CG         7.7960   -7.0040   17.3540 C.ar  276  HIS276      0.0820
    114  ND1        8.0000   -7.9790   18.3030 N.ar  276  HIS276     -0.2267
    115  CD2        7.0790   -6.0200   17.9580 C.ar  276  HIS276      0.1154
    116  CE1        7.4190   -7.6100   19.4290 C.ar  276  HIS276      0.1986
    117  NE2        6.8500   -6.4310   19.2430 N.ar  276  HIS276     -0.2212
    118  N         14.7130   -7.9930   15.3760 N.3   279  ILE279     -0.1245
    119  CA        15.2820   -8.8870   16.3930 C.3   279  ILE279      0.1561
    120  C         15.0880  -10.3430   15.9870 C.2   279  ILE279      0.2260
    121  O         16.0200  -11.1600   16.1260 O.2   279  ILE279     -0.2867
    122  CB        14.8470   -8.6010   17.8910 C.3   279  ILE279      0.0252
    123  CG1       13.3410   -8.8840   18.1410 C.3   279  ILE279      0.0019
    124  CG2       15.2880   -7.1930   18.3380 C.3   279  ILE279      0.0019
    125  CD1       13.0580   -9.6520   19.4710 C.3   279  ILE279      0.0001
    126  N         17.6950  -13.9580   17.3170 N.3   283  PHE283     -0.1241
    127  CA        17.2450  -15.1130   18.1470 C.3   283  PHE283      0.1605
    128  C         17.1820  -16.4460   17.3770 C.2   283  PHE283      0.2264
    129  O         17.5540  -17.5130   17.9060 O.2   283  PHE283     -0.2867
    130  CB        15.8530  -14.8360   18.7410 C.3   283  PHE283      0.0534
    131  CG        15.8760  -14.2500   20.1320 C.ar  283  PHE283     -0.0203
    132  CD1       17.0520  -13.7490   20.6910 C.ar  283  PHE283     -0.0042
    133  CD2       14.7020  -14.1670   20.8710 C.ar  283  PHE283     -0.0042
    134  CE1       17.0470  -13.2010   21.9960 C.ar  283  PHE283     -0.0003
    135  CE2       14.6980  -13.6270   22.1530 C.ar  283  PHE283     -0.0003
    136  CZ        15.8700  -13.1440   22.7090 C.ar  283  PHE283     -0.0000
    137  N         13.6460   -7.2030   34.2140 N.3   343  ILE343     -0.1245
    138  CA        12.9470   -6.7380   32.9770 C.3   343  ILE343      0.1561
    139  C         11.4700   -6.3190   33.1520 C.2   343  ILE343      0.2260
    140  O         10.9260   -5.6290   32.3060 O.2   343  ILE343     -0.2867
    141  CB        13.0670   -7.7130   31.7380 C.3   343  ILE343      0.0252
    142  CG1       12.2870   -9.0280   31.9190 C.3   343  ILE343      0.0019
    143  CG2       14.5430   -7.9660   31.3130 C.3   343  ILE343      0.0019
    144  CD1       10.8590   -8.9820   31.4420 C.3   343  ILE343      0.0001
    145  N         12.0140   -2.7150   33.5500 N.3   346  LEU346     -0.1231
    146  CA        12.4770   -2.2680   32.2200 C.3   346  LEU346      0.1693
    147  C         11.3060   -2.1860   31.2080 C.2   346  LEU346      0.2591
    148  O         11.2180   -1.2450   30.4110 O.2   346  LEU346     -0.2718
    149  CB        13.5870   -3.2170   31.7160 C.3   346  LEU346      0.0284
    150  CG        14.6240   -2.7850   30.6690 C.3   346  LEU346      0.0019
    151  CD1       14.0660   -2.9070   29.2590 C.3   346  LEU346      0.0001
    152  CD2       15.1240   -1.3840   30.9320 C.3   346  LEU346      0.0001
    153  N         10.4240   -3.1960   31.2690 N.am  347  VAL347     -0.1980
    154  CA         9.0750   -3.1310   30.6670 C.3   347  VAL347      0.1595
    155  C          8.4090   -1.8490   31.1180 C.2   347  VAL347      0.2287
    156  O          8.1240   -0.9680   30.3210 O.2   347  VAL347     -0.2864
    157  CB         8.1520   -4.3640   31.0740 C.3   347  VAL347      0.0276
    158  CG1        6.7420   -3.9240   31.4330 C.3   347  VAL347      0.0022
    159  CG2        8.1060   -5.3920   29.9750 C.3   347  VAL347      0.0022
    160  N         10.0490    1.6870   30.8010 N.3   350  HIS350     -0.1226
    161  CA        10.0790    2.0590   29.3940 C.3   350  HIS350      0.1752
    162  C          8.6790    2.2510   28.8460 C.2   350  HIS350      0.2595
    163  O          8.4790    3.0240   27.9470 O.2   350  HIS350     -0.2718
    164  CB        10.7810    0.9950   28.5630 C.3   350  HIS350      0.0759
    165  CG        12.2810    1.0450   28.6470 C.ar  350  HIS350      0.0818
    166  ND1       13.0480   -0.0680   28.9530 N.ar  350  HIS350     -0.2268
    167  CD2       13.1560    2.0710   28.4780 C.ar  350  HIS350      0.1154
    168  CE1       14.3330    0.2720   28.9560 C.ar  350  HIS350      0.1986
    169  NE2       14.4240    1.5670   28.6890 N.ar  350  HIS350     -0.2212
    170  N          7.7120    1.5160   29.3880 N.am  351  MET351     -0.1979
    171  CA         6.3130    1.6430   28.9740 C.3   351  MET351      0.1605
    172  C          5.7920    3.0450   29.1700 C.2   351  MET351      0.2287
    173  O          4.6880    3.3470   28.7030 O.2   351  MET351     -0.2864
    174  CB         5.4050    0.6740   29.7200 C.3   351  MET351      0.0413
    175  CG         5.3180   -0.6570   29.0750 C.3   351  MET351      0.0598
    176  SD         3.6260   -1.2350   29.1350 S.3   351  MET351     -0.1393
    177  CE         2.8340    0.3730   29.0360 C.3   351  MET351      0.0692
    178  N          7.9820    5.9880   26.6240 N.3   354  LEU354     -0.1245
    179  CA         7.8110    5.3360   25.3700 C.3   354  LEU354      0.1561
    180  C          6.5960    4.4330   25.4680 C.2   354  LEU354      0.2260
    181  O          6.7290    3.2200   25.3850 O.2   354  LEU354     -0.2867
    182  CB         9.0490    4.5180   25.0230 C.3   354  LEU354      0.0270
    183  CG        10.3200    5.1880   24.4840 C.3   354  LEU354      0.0019
    184  CD1        9.9270    6.3890   23.6490 C.3   354  LEU354      0.0001
    185  CD2       11.2740    5.6040   25.5670 C.3   354  LEU354      0.0001
    186  N          3.5940    2.7260   23.6850 N.3   356  ALA356     -0.1231
    187  CA         3.3500    2.3760   22.3220 C.3   356  ALA356      0.1694
    188  C          1.8470    2.3360   21.9850 C.2   356  ALA356      0.2592
    189  O          1.4060    1.5090   21.1800 O.2   356  ALA356     -0.2718
    190  CB         4.0120    1.0470   22.0580 C.3   356  ALA356      0.0304
    191  N          1.0440    3.2350   22.5730 N.am  357  TYR357     -0.1976
    192  CA        -0.4160    3.1680   22.3240 C.3   357  TYR357      0.1639
    193  C         -1.2310    4.4250   21.9760 C.2   357  TYR357      0.2290
    194  O         -0.9850    5.5320   22.4510 O.2   357  TYR357     -0.2864
    195  CB        -1.1380    2.3600   23.4090 C.3   357  TYR357      0.0560
    196  CG        -0.7000    0.9180   23.4930 C.ar  357  TYR357     -0.0198
    197  CD1       -0.4200    0.1810   22.3440 C.ar  357  TYR357     -0.0009
    198  CD2       -0.5860    0.2930   24.7310 C.ar  357  TYR357     -0.0009
    199  CE1       -0.0030   -1.1400   22.4170 C.ar  357  TYR357      0.0417
    200  CE2       -0.1820   -1.0450   24.8250 C.ar  357  TYR357      0.0417
    201  CZ         0.1130   -1.7580   23.6640 C.ar  357  TYR357      0.1957
    202  OH         0.5100   -3.0810   23.7640 O.3   357  TYR357     -0.2866
@<TRIPOS>BOND
     1    78    77    2
     2    77    76    1
     3    75    76    1
     4    76    79    1
     5    79    80    1
     6    64    63    2
     7    98    99    1
     8    63    62    1
     9    29    27    1
    10   110   111    2
    11   110   109    1
    12    61    62    1
    13    80    81    1
    14    80    82    1
    15    99   100    1
    16    99   102    1
    17   118   119    1
    18    62    65    1
    19   100   108   am
    20   100   101    2
    21    58    57    2
    22   108   109    1
    23    91    92    1
    24    93    94    2
    25    93    92    1
    26    57    56    1
    27   109   112    1
    28   112   113    1
    29   120   121    2
    30   120   119    1
    31    24    23    1
    32    24    25    2
    33    27    26    1
    34   119   122    1
    35   102   103    1
    36    92    95    1
    37    23    26    1
    38    23    22    1
    39    65    66    1
    40    97    95    1
    41    18    17    2
    42    26    28    1
    43    56    59    1
    44    56    55    1
    45   126   127    1
    46   113   115   ar
    47   113   114   ar
    48   128   129    2
    49   128   127    1
    50    66    68   ar
    51    66    67   ar
    52    49    50    1
    53    59    60    1
    54    71    68   ar
    55    71    73   ar
    56    95    96    1
    57    68    70   ar
    58    86    85    2
    59   103   104   ar
    60   103   105   ar
    61    85    84    1
    62    17    22   am
    63    17    16    1
    64    67    69   ar
    65    52    51    2
    66   122   123    1
    67   122   124    1
    68    73    74   ar
    69   115   117   ar
    70    51    55   am
    71    51    50    1
    72   123   125    1
    73   127   130    1
    74    70    69   ar
    75    70    72   ar
    76    50    53    1
    77   114   116   ar
    78   104   106   ar
    79    74    72   ar
    80   105   107   ar
    81   130   131    1
    82    16    15    1
    83    16    19    1
    84    41    40    2
    85    84    87    1
    86    84    83    1
    87    33    32    2
    88   117   116   ar
    89    21    19    1
    90    87    88    1
    91    40    39    1
    92   106   107   ar
    93    53    54    1
    94    30    31    1
    95    19    20    1
    96   131   132   ar
    97   131   133   ar
    98    88    90    1
    99    88    89    1
   100    32    31    1
   101    32    38   am
   102     4     3    2
   103    31    34    1
   104   132   134   ar
   105   133   135   ar
   106    39    38    1
   107    39    42    1
   108   189   188    2
   109    42    43    1
   110     3     2    1
   111   193   192    1
   112   193   194    2
   113   188   187    1
   114   188   191   am
   115   134   136   ar
   116   190   187    1
   117    34    35    1
   118   135   136   ar
   119     2     5    1
   120     2     1    1
   121   187   186    1
   122   192   191    1
   123   192   195    1
   124   197   199   ar
   125   197   196   ar
   126   199   201   ar
   127     5     6    1
   128    43    44   ar
   129    43    45   ar
   130    36    35    1
   131    35    37    1
   132    11    13   ar
   133    11     8   ar
   134   195   196    1
   135   196   198   ar
   136   184   183    1
   137   201   202    1
   138   201   200   ar
   139    44    46   ar
   140    13    14   ar
   141    45    47   ar
   142     6     8   ar
   143     6     7   ar
   144     8    10   ar
   145   183   182    1
   146   183   185    1
   147    14    12   ar
   148   198   200   ar
   149     7     9   ar
   150    10    12   ar
   151    10     9   ar
   152   182   179    1
   153    46    48   ar
   154    47    48   ar
   155   179   180    1
   156   179   178    1
   157   181   180    2
   158   163   162    2
   159   167   165   ar
   160   167   169   ar
   161   164   165    1
   162   164   161    1
   163   165   166   ar
   164   169   168   ar
   165   173   172    2
   166   162   170   am
   167   162   161    1
   168   166   168   ar
   169   171   172    1
   170   171   170    1
   171   171   174    1
   172   177   176    1
   173   175   176    1
   174   175   174    1
   175   151   150    1
   176   161   160    1
   177   159   157    1
   178   156   155    2
   179   148   147    2
   180   154   157    1
   181   154   155    1
   182   154   153    1
   183   150   152    1
   184   150   149    1
   185   157   158    1
   186   147   153   am
   187   147   146    1
   188   143   141    1
   189   144   142    1
   190   149   146    1
   191   141   142    1
   192   141   138    1
   193   146   145    1
   194   140   139    2
   195   138   139    1
   196   138   137    1
