@<TRIPOS>MOLECULE
tmp/2wseO01.pdb
 69 65 0 0 0
SMALL
GASTEIGER

@<TRIPOS>ATOM
      1  N        -37.9510    3.1460  130.0780 N.3    48  GLN48      -0.1231
      2  CA       -37.9290    4.2750  131.0010 C.3    48  GLN48       0.1698
      3  C        -36.6140    5.0690  130.8970 C.2    48  GLN48       0.2592
      4  O        -36.5580    6.0990  130.2210 O.2    48  GLN48      -0.2718
      5  CB       -38.1480    3.7940  132.4330 C.3    48  GLN48       0.0381
      6  CG       -39.5930    3.8540  132.9200 C.3    48  GLN48       0.0905
      7  CD       -39.9910    2.6290  133.7180 C.2    48  GLN48       0.2608
      8  OE1      -39.8430    1.4940  133.2670 O.2    48  GLN48      -0.2717
      9  NE2      -40.5120    2.8530  134.9100 N.am   48  GLN48      -0.0878
     10  N        -35.5630    4.5630  131.5420 N.am   49  THR49      -0.1953
     11  CA       -34.3440    5.3380  131.8220 C.3    49  THR49       0.1897
     12  C        -33.0340    4.6970  131.3130 C.2    49  THR49       0.2313
     13  O        -32.7060    3.5480  131.6380 O.2    49  THR49      -0.2863
     14  CB       -34.2620    5.6860  133.3360 C.3    49  THR49       0.1794
     15  OG1      -35.1560    6.7730  133.6230 O.3    49  THR49      -0.2208
     16  CG2      -32.8370    6.0790  133.7510 C.3    49  THR49       0.0378
     17  N        -31.0380   11.3020  125.7540 N.3    54  GLY54      -0.1210
     18  CA       -32.3230   11.9060  125.8740 C.3    54  GLY54       0.1956
     19  C        -32.0270   13.0980  126.7240 C.2    54  GLY54       0.2611
     20  O        -32.4250   14.2430  126.4320 O.2    54  GLY54      -0.2717
     21  N        -31.2060   12.8620  127.7400 N.am   55  PHE55      -0.1976
     22  CA       -31.1420   13.9860  128.6470 C.3    55  PHE55       0.1639
     23  C        -30.5620   15.2700  128.0420 C.2    55  PHE55       0.2290
     24  O        -31.1480   16.3660  128.1450 O.2    55  PHE55      -0.2864
     25  CB       -30.4300   13.5610  129.9350 C.3    55  PHE55       0.0560
     26  CG       -31.1820   12.5120  130.7200 C.ar   55  PHE55      -0.0200
     27  CD1      -32.0070   11.6070  130.0790 C.ar   55  PHE55      -0.0042
     28  CD2      -31.0590   12.4230  132.0950 C.ar   55  PHE55      -0.0042
     29  CE1      -32.7100   10.6430  130.8000 C.ar   55  PHE55      -0.0003
     30  CE2      -31.7590   11.4540  132.8150 C.ar   55  PHE55      -0.0003
     31  CZ       -32.5820   10.5680  132.1630 C.ar   55  PHE55      -0.0000
     32  N        -32.8350   17.0440  125.4890 N.3    58  ALA58      -0.1231
     33  CA       -33.9100   17.6970  126.1980 C.3    58  ALA58       0.1694
     34  C        -33.3810   19.0320  126.6820 C.2    58  ALA58       0.2592
     35  O        -34.0610   20.0500  126.5940 O.2    58  ALA58      -0.2718
     36  CB       -34.3500   16.8500  127.3490 C.3    58  ALA58       0.0304
     37  N        -32.1410   19.0370  127.1510 N.am   59  ASP59      -0.1974
     38  CA       -31.4800   20.2980  127.5360 C.3    59  ASP59       0.1709
     39  C        -31.2410   21.3490  126.4520 C.2    59  ASP59       0.2293
     40  O        -31.3120   22.5420  126.7330 O.2    59  ASP59      -0.2864
     41  CB       -30.1800   20.1300  128.2830 C.3    59  ASP59       0.1436
     42  CG       -29.4420   21.4290  128.3600 C.2    59  ASP59       0.3671
     43  OD1      -29.1490   21.9880  127.2860 O.co2  59  ASP59      -0.2456
     44  OD2      -29.2170   21.9200  129.4760 O.co2  59  ASP59      -0.2456
     45  N        -33.1350   21.7590  124.0720 N.3    61  LEU61      -0.1231
     46  CA       -34.4730   22.3630  123.8680 C.3    61  LEU61       0.1693
     47  C        -34.7780   23.3310  125.0050 C.2    61  LEU61       0.2591
     48  O        -35.3370   24.3930  124.7890 O.2    61  LEU61      -0.2718
     49  CB       -35.6050   21.3350  123.7450 C.3    61  LEU61       0.0284
     50  CG       -36.9680   21.9570  123.4250 C.3    61  LEU61       0.0019
     51  CD1      -36.8770   22.7090  122.1210 C.3    61  LEU61       0.0001
     52  CD2      -38.0660   20.9150  123.3510 C.3    61  LEU61       0.0001
     53  N        -34.4040   22.9460  126.2150 N.am   62  ALA62      -0.1980
     54  CA       -34.6100   23.7490  127.4200 C.3    62  ALA62       0.1597
     55  C        -33.8820   25.0890  127.4340 C.2    62  ALA62       0.2287
     56  O        -34.4320   26.0770  127.9130 O.2    62  ALA62      -0.2864
     57  CB       -34.2430   22.9620  128.6450 C.3    62  ALA62       0.0319
     58  N        -35.3650   27.9520  127.4580 N.3    65  ALA65      -0.1231
     59  CA       -36.4180   28.0120  128.4690 C.3    65  ALA65       0.1694
     60  C        -36.5920   29.4150  129.0790 C.2    65  ALA65       0.2591
     61  O        -37.6520   30.0360  128.9220 O.2    65  ALA65      -0.2718
     62  CB       -36.1370   26.9990  129.5690 C.3    65  ALA65       0.0304
     63  N        -35.5560   29.9100  129.7560 N.am   66  VAL66      -0.1980
     64  CA       -35.6680   31.1110  130.5910 C.3    66  VAL66       0.1595
     65  C        -35.3550   32.4290  129.8620 C.2    66  VAL66       0.2287
     66  O        -35.8730   33.4980  130.2180 O.2    66  VAL66      -0.2864
     67  CB       -34.7780   30.9930  131.8430 C.3    66  VAL66       0.0276
     68  CG1      -35.1950   32.0090  132.8940 C.3    66  VAL66       0.0022
     69  CG2      -34.8430   29.5810  132.4030 C.3    66  VAL66       0.0022
@<TRIPOS>BOND
     1    51    50    1
     2    52    50    1
     3    50    49    1
     4    49    46    1
     5    46    45    1
     6    46    47    1
     7    48    47    2
     8    47    53   am
     9    32    33    1
    10    17    18    1
    11    18    19    1
    12    33    34    1
    13    33    36    1
    14    53    54    1
    15    20    19    2
    16    39    40    2
    17    39    38    1
    18    35    34    2
    19    34    37   am
    20    19    21   am
    21    37    38    1
    22    43    42   ar
    23    54    55    1
    24    54    57    1
    25    55    56    2
    26    58    59    1
    27    38    41    1
    28    21    22    1
    29    23    24    2
    30    23    22    1
    31    41    42    1
    32    42    44   ar
    33    59    60    1
    34    59    62    1
    35    22    25    1
    36    61    60    2
    37    60    63   am
    38    63    64    1
    39    65    66    2
    40    65    64    1
    41    25    26    1
    42     1     2    1
    43    27    26   ar
    44    27    29   ar
    45     4     3    2
    46    64    67    1
    47    26    28   ar
    48    29    31   ar
    49     3     2    1
    50     3    10   am
    51     2     5    1
    52    12    13    2
    53    12    11    1
    54    10    11    1
    55    11    14    1
    56    67    69    1
    57    67    68    1
    58    28    30   ar
    59    31    30   ar
    60     5     6    1
    61     6     7    1
    62     8     7    2
    63    14    15    1
    64    14    16    1
    65     7     9   am
