@<TRIPOS>MOLECULE
tmp/2wseF38.pdb
 230 225 0 0 0
SMALL
GASTEIGER

@<TRIPOS>ATOM
      1  N         -5.1460  -25.2290   57.6710 N.3    21  TRP21      -0.1227
      2  CA        -4.3390  -24.1360   57.0870 C.3    21  TRP21       0.1737
      3  C         -3.1670  -24.7340   56.3620 C.2    21  TRP21       0.2595
      4  O         -3.0580  -24.6720   55.1440 O.2    21  TRP21      -0.2718
      5  CB        -3.7860  -23.1930   58.1500 C.3    21  TRP21       0.0564
      6  CG        -4.7990  -22.5930   59.0290 C.ar   21  TRP21       0.0003
      7  CD1       -5.0480  -22.9130   60.3390 C.ar   21  TRP21       0.0946
      8  CD2       -5.6990  -21.5560   58.6910 C.ar   21  TRP21       0.0152
      9  NE1       -6.0560  -22.1230   60.8250 N.ar   21  TRP21      -0.2442
     10  CE2       -6.4730  -21.2740   59.8280 C.ar   21  TRP21       0.0810
     11  CE3       -5.9340  -20.8310   57.5330 C.ar   21  TRP21       0.0012
     12  CZ2       -7.4700  -20.2740   59.8370 C.ar   21  TRP21       0.0191
     13  CZ3       -6.9470  -19.8430   57.5340 C.ar   21  TRP21       0.0001
     14  CH2       -7.6940  -19.5810   58.6710 C.ar   21  TRP21       0.0015
     15  N         -2.3150  -25.3590   57.1570 N.am   22  PHE22      -0.1976
     16  CA        -1.1510  -26.0540   56.6710 C.3    22  PHE22       0.1639
     17  C         -1.3960  -27.0750   55.5590 C.2    22  PHE22       0.2290
     18  O         -0.4580  -27.4870   54.9020 O.2    22  PHE22      -0.2864
     19  CB        -0.4550  -26.6840   57.8500 C.3    22  PHE22       0.0560
     20  CG         0.3800  -25.7250   58.5870 C.ar   22  PHE22      -0.0200
     21  CD1        1.7540  -25.8450   58.5830 C.ar   22  PHE22      -0.0042
     22  CD2       -0.1980  -24.6640   59.2430 C.ar   22  PHE22      -0.0042
     23  CE1        2.5270  -24.9500   59.2450 C.ar   22  PHE22      -0.0003
     24  CE2        0.5790  -23.7650   59.9280 C.ar   22  PHE22      -0.0003
     25  CZ         1.9410  -23.9080   59.9250 C.ar   22  PHE22      -0.0000
     26  N         -3.7430  -26.1970   53.2200 N.3    24  ILE24      -0.1231
     27  CA        -3.8920  -25.1950   52.1570 C.3    24  ILE24       0.1692
     28  C         -2.7190  -24.2410   52.1560 C.2    24  ILE24       0.2592
     29  O         -2.8820  -23.0440   52.4510 O.2    24  ILE24      -0.2718
     30  CB        -5.2780  -24.4740   52.1910 C.3    24  ILE24       0.0266
     31  CG1       -5.8490  -24.3920   53.6030 C.3    24  ILE24       0.0019
     32  CG2       -6.2700  -25.2700   51.3930 C.3    24  ILE24       0.0020
     33  CD1       -5.7490  -23.0370   54.2260 C.3    24  ILE24       0.0001
     34  N         -1.5400  -24.8140   51.8420 N.am   25  ALA25      -0.1966
     35  CA        -0.2170  -24.1360   51.7510 C.3    25  ALA25       0.1728
     36  C          0.9240  -25.1260   51.9950 C.2    25  ALA25       0.2616
     37  O          1.9370  -24.7860   52.5800 O.2    25  ALA25      -0.2715
     38  CB        -0.1040  -22.8990   52.6990 C.3    25  ALA25       0.0334
     39  N          0.7320  -26.3730   51.5930 N.am   26  THR26      -0.1951
     40  CA         1.8510  -27.2850   51.3540 C.3    26  THR26       0.1897
     41  C          1.6040  -27.9100   49.9930 C.2    26  THR26       0.2313
     42  O          2.5230  -28.4310   49.3370 O.2    26  THR26      -0.2863
     43  CB         1.9920  -28.3820   52.4070 C.3    26  THR26       0.1794
     44  OG1        0.7160  -29.0140   52.6670 O.3    26  THR26      -0.2208
     45  CG2        2.5510  -27.8040   53.6440 C.3    26  THR26       0.0378
     46  N          4.2040  -27.4040   47.3140 N.3    29  ASP29      -0.1239
     47  CA         5.5810  -27.8400   47.6410 C.3    29  ASP29       0.1674
     48  C          5.9610  -29.2730   47.2010 C.2    29  ASP29       0.2266
     49  O          6.5190  -30.0350   47.9950 O.2    29  ASP29      -0.2867
     50  CB         5.8590  -27.6440   49.1390 C.3    29  ASP29       0.1410
     51  CG         7.3300  -27.9160   49.5200 C.2    29  ASP29       0.3668
     52  OD1        7.5640  -28.4000   50.6440 O.co2  29  ASP29      -0.2456
     53  OD2        8.2570  -27.6690   48.7130 O.co2  29  ASP29      -0.2456
     54  N          9.7490  -33.2510   47.6420 N.3    32  SER32      -0.1202
     55  CA         9.6350  -33.8030   48.9970 C.3    32  SER32       0.2020
     56  C          8.3420  -33.3910   49.7980 C.2    32  SER32       0.2618
     57  O          8.3470  -32.4440   50.6200 O.2    32  SER32      -0.2717
     58  CB        10.9750  -33.5960   49.7550 C.3    32  SER32       0.2103
     59  OG        12.1050  -33.7240   48.8610 O.3    32  SER32      -0.2182
     60  N          7.2290  -34.0820   49.4620 N.am   33  HIS33      -0.1975
     61  CA         6.0800  -34.3510   50.3720 C.3    33  HIS33       0.1656
     62  C          5.3610  -35.6250   49.9190 C.2    33  HIS33       0.2291
     63  O          4.9370  -35.7070   48.7650 O.2    33  HIS33      -0.2864
     64  CB         5.1050  -33.1470   50.5650 C.3    33  HIS33       0.0771
     65  CG         4.2220  -32.8320   49.3890 C.ar   33  HIS33       0.0820
     66  ND1        2.9590  -33.3710   49.2330 N.ar   33  HIS33      -0.2267
     67  CD2        4.4050  -31.9900   48.3440 C.ar   33  HIS33       0.1154
     68  CE1        2.4180  -32.9070   48.1220 C.ar   33  HIS33       0.1986
     69  NE2        3.2730  -32.0650   47.5650 N.ar   33  HIS33      -0.2212
     70  N          7.9400   -7.3150   43.7950 N.3   380  PHE380     -0.1241
     71  CA         7.3700   -8.5850   44.3130 C.3   380  PHE380      0.1605
     72  C          8.1000   -9.8410   43.8190 C.2   380  PHE380      0.2264
     73  O          8.0830  -10.8610   44.5010 O.2   380  PHE380     -0.2867
     74  CB         5.8580   -8.7130   44.0310 C.3   380  PHE380      0.0534
     75  CG         4.9630   -8.1890   45.1270 C.ar  380  PHE380     -0.0203
     76  CD1        4.4600   -6.8830   45.0850 C.ar  380  PHE380     -0.0042
     77  CD2        4.6030   -9.0080   46.2040 C.ar  380  PHE380     -0.0042
     78  CE1        3.6190   -6.4070   46.1170 C.ar  380  PHE380     -0.0003
     79  CE2        3.7730   -8.5430   47.2270 C.ar  380  PHE380     -0.0003
     80  CZ         3.2740   -7.2550   47.1780 C.ar  380  PHE380     -0.0000
     81  N         17.8010  -27.4670   50.1360 N.3   395  ARG395     -0.1245
     82  CA        17.2310  -28.7570   49.7160 C.3   395  ARG395      0.1563
     83  C         18.2230  -29.3290   48.7270 C.2   395  ARG395      0.2260
     84  O         18.8420  -30.3450   49.0550 O.2   395  ARG395     -0.2867
     85  CB        15.7770  -28.6800   49.1890 C.3   395  ARG395      0.0307
     86  CG        15.0000  -27.4670   49.7070 C.3   395  ARG395      0.0489
     87  CD        13.7550  -27.7660   50.5370 C.3   395  ARG395      0.2205
     88  NE        12.5780  -27.1700   49.9320 N.pl3 395  ARG395     -0.0865
     89  CZ        11.3720  -27.7250   49.9450 C.cat 395  ARG395      0.5346
     90  NH1       10.3520  -27.1260   49.3510 N.pl3 395  ARG395      0.1354
     91  NH2       11.1770  -28.8870   50.5380 N.pl3 395  ARG395      0.1354
     92  N         16.2980  -28.9000   56.0500 N.3   552  PHE552     -0.1241
     93  CA        14.9690  -28.3290   55.9930 C.3   552  PHE552      0.1605
     94  C         15.1740  -26.8840   55.6310 C.2   552  PHE552      0.2264
     95  O         14.2220  -26.1730   55.2690 O.2   552  PHE552     -0.2867
     96  CB        14.3110  -28.3710   57.3780 C.3   552  PHE552      0.0534
     97  CG        15.1470  -27.7100   58.4580 C.ar  552  PHE552     -0.0203
     98  CD1       15.1890  -26.3180   58.5750 C.ar  552  PHE552     -0.0042
     99  CD2       15.8890  -28.4770   59.3450 C.ar  552  PHE552     -0.0042
    100  CE1       15.9610  -25.7030   59.5180 C.ar  552  PHE552     -0.0003
    101  CE2       16.6530  -27.8710   60.2970 C.ar  552  PHE552     -0.0003
    102  CZ        16.6850  -26.4730   60.3850 C.ar  552  PHE552     -0.0000
    103  N         14.8120  -23.9350   54.6880 N.3   554  TYR554     -0.1227
    104  CA        13.9720  -22.7470   54.5620 C.3   554  TYR554      0.1736
    105  C         13.1810  -22.2890   55.7900 C.2   554  TYR554      0.2596
    106  O         13.7380  -21.5710   56.6360 O.2   554  TYR554     -0.2718
    107  CB        13.0920  -22.7740   53.3100 C.3   554  TYR554      0.0548
    108  CG        13.0770  -21.4030   52.7030 C.ar  554  TYR554     -0.0200
    109  CD1       14.1600  -20.9510   51.9590 C.ar  554  TYR554     -0.0009
    110  CD2       12.0290  -20.5250   52.9340 C.ar  554  TYR554     -0.0009
    111  CE1       14.1910  -19.6700   51.4190 C.ar  554  TYR554      0.0417
    112  CE2       12.0590  -19.2320   52.3970 C.ar  554  TYR554      0.0417
    113  CZ        13.1480  -18.8090   51.6450 C.ar  554  TYR554      0.1957
    114  OH        13.1880  -17.5290   51.1260 O.3   554  TYR554     -0.2866
    115  N         11.9020  -22.6810   55.8730 N.am  555  SER555     -0.1952
    116  CA        11.0190  -22.1590   56.8980 C.3   555  SER555      0.1924
    117  C         11.0150  -23.0840   58.0760 C.2   555  SER555      0.2314
    118  O         10.1330  -23.9240   58.2210 O.2   555  SER555     -0.2863
    119  CB         9.5780  -21.9820   56.3910 C.3   555  SER555      0.2116
    120  OG         9.4270  -20.8510   55.5580 O.3   555  SER555     -0.2180
    121  N         13.8440  -18.0680   55.3380 N.3   572  TRP572     -0.1241
    122  CA        12.4940  -17.6310   54.9830 C.3   572  TRP572      0.1605
    123  C         12.1510  -16.3470   55.6800 C.2   572  TRP572      0.2264
    124  O         11.4440  -15.5100   55.1200 O.2   572  TRP572     -0.2867
    125  CB        11.4310  -18.6280   55.3990 C.3   572  TRP572      0.0550
    126  CG        10.0080  -18.1990   55.0780 C.ar  572  TRP572      0.0003
    127  CD1        9.3880  -18.3190   53.8910 C.ar  572  TRP572      0.0946
    128  CD2        9.0290  -17.6130   55.9650 C.ar  572  TRP572      0.0152
    129  NE1        8.0900  -17.8450   53.9640 N.ar  572  TRP572     -0.2442
    130  CE2        7.8440  -17.4080   55.2270 C.ar  572  TRP572      0.0810
    131  CE3        9.0410  -17.2430   57.3090 C.ar  572  TRP572      0.0012
    132  CZ2        6.6920  -16.8620   55.7780 C.ar  572  TRP572      0.0191
    133  CZ3        7.8940  -16.6920   57.8540 C.ar  572  TRP572      0.0001
    134  CH2        6.7390  -16.5020   57.0890 C.ar  572  TRP572      0.0015
    135  N         13.7690  -13.5440   54.0660 N.3   575  PHE575     -0.1241
    136  CA        12.7800  -13.3490   53.0260 C.3   575  PHE575      0.1605
    137  C         11.5640  -12.6680   53.6620 C.2   575  PHE575      0.2264
    138  O         11.1370  -11.5950   53.2040 O.2   575  PHE575     -0.2867
    139  CB        12.3430  -14.6820   52.4350 C.3   575  PHE575      0.0534
    140  CG        11.0540  -14.5950   51.7040 C.ar  575  PHE575     -0.0203
    141  CD1        9.8370  -14.7950   52.3570 C.ar  575  PHE575     -0.0042
    142  CD2       11.0390  -14.2810   50.3510 C.ar  575  PHE575     -0.0042
    143  CE1        8.6280  -14.6930   51.6650 C.ar  575  PHE575     -0.0003
    144  CE2        9.8420  -14.1870   49.6510 C.ar  575  PHE575     -0.0003
    145  CZ         8.6370  -14.3930   50.3070 C.ar  575  PHE575     -0.0000
    146  N         10.6870   -8.6420   52.5380 N.3   579  VAL579     -0.1245
    147  CA         9.5170   -8.1560   51.7910 C.3   579  VAL579      0.1561
    148  C          8.9390   -6.7940   52.2290 C.2   579  VAL579      0.2260
    149  O          8.0870   -6.2230   51.5310 O.2   579  VAL579     -0.2867
    150  CB         8.3970   -9.1570   51.8440 C.3   579  VAL579      0.0252
    151  CG1        7.5840   -8.8660   53.0660 C.3   579  VAL579      0.0019
    152  CG2        7.5290   -9.0780   50.5670 C.3   579  VAL579      0.0019
    153  N          5.5400  -19.7130   62.3660 N.3   702  VAL702     -0.1231
    154  CA         5.8970  -19.0880   61.0650 C.3   702  VAL702      0.1692
    155  C          4.6420  -18.4400   60.3700 C.2   702  VAL702      0.2591
    156  O          4.6370  -17.2410   60.0260 O.2   702  VAL702     -0.2718
    157  CB         6.6480  -20.1090   60.1400 C.3   702  VAL702      0.0266
    158  CG1        6.5890  -21.4890   60.7290 C.3   702  VAL702      0.0020
    159  CG2        6.0810  -20.1350   58.7510 C.3   702  VAL702      0.0020
    160  N          3.5840  -19.2530   60.1960 N.am  703  GLN703     -0.1979
    161  CA         2.2970  -18.8190   59.6830 C.3   703  GLN703      0.1601
    162  C          1.9400  -17.3380   59.9570 C.2   703  GLN703      0.2287
    163  O          1.5110  -16.6390   59.0660 O.2   703  GLN703     -0.2864
    164  CB         1.1940  -19.7820   60.1630 C.3   703  GLN703      0.0394
    165  CG        -0.2460  -19.3210   59.9010 C.3   703  GLN703      0.0908
    166  CD        -1.2910  -20.3920   60.1960 C.2   703  GLN703      0.2608
    167  OE1       -1.2320  -21.0590   61.2120 O.2   703  GLN703     -0.2717
    168  NE2       -2.2750  -20.5330   59.3160 N.am  703  GLN703     -0.0878
    169  N          3.9520  -14.6220   58.1230 N.3   706  LEU706     -0.1231
    170  CA         3.2560  -14.5630   56.8510 C.3   706  LEU706      0.1693
    171  C          2.0090  -13.7100   57.0870 C.2   706  LEU706      0.2591
    172  O          2.1080  -12.5030   57.0140 O.2   706  LEU706     -0.2718
    173  CB         2.9180  -15.9940   56.3580 C.3   706  LEU706      0.0284
    174  CG         1.8240  -16.2720   55.3150 C.3   706  LEU706      0.0019
    175  CD1        2.2680  -15.8860   53.9440 C.3   706  LEU706      0.0001
    176  CD2        1.4110  -17.7030   55.3120 C.3   706  LEU706      0.0001
    177  N          0.8680  -14.3290   57.4380 N.am  707  VAL707     -0.1980
    178  CA        -0.4760  -13.6600   57.5250 C.3   707  VAL707      0.1595
    179  C         -0.5010  -12.1340   57.9220 C.2   707  VAL707      0.2287
    180  O         -1.2550  -11.3380   57.3380 O.2   707  VAL707     -0.2864
    181  CB        -1.4930  -14.4830   58.3900 C.3   707  VAL707      0.0276
    182  CG1       -2.9110  -14.1380   58.0160 C.3   707  VAL707      0.0022
    183  CG2       -1.2650  -15.9990   58.2560 C.3   707  VAL707      0.0022
    184  N          1.2840   -9.5920   56.9200 N.3   709  LEU709     -0.1231
    185  CA         2.0390   -9.6710   55.6660 C.3   709  LEU709      0.1693
    186  C          0.9870  -10.4910   55.0230 C.2   709  LEU709      0.2591
    187  O          0.1430  -11.0110   55.7440 O.2   709  LEU709     -0.2718
    188  CB         3.3430  -10.4770   55.7700 C.3   709  LEU709      0.0284
    189  CG         4.5450  -10.1830   54.8420 C.3   709  LEU709      0.0019
    190  CD1        4.5160  -10.9430   53.5210 C.3   709  LEU709      0.0001
    191  CD2        4.6820   -8.6840   54.6050 C.3   709  LEU709      0.0001
    192  N          0.9480  -10.5720   53.6980 N.am  710  VAL710     -0.1980
    193  CA        -0.1790  -11.2580   53.0580 C.3   710  VAL710      0.1595
    194  C         -1.4500  -10.6710   53.6240 C.2   710  VAL710      0.2287
    195  O         -2.5140  -11.2430   53.4580 O.2   710  VAL710     -0.2864
    196  CB        -0.1380  -12.7340   53.3970 C.3   710  VAL710      0.0276
    197  CG1       -1.4780  -13.3940   53.0760 C.3   710  VAL710      0.0022
    198  CG2        1.0740  -13.3860   52.7110 C.3   710  VAL710      0.0022
    199  N          0.3560   -6.3280   53.3660 N.3   713  SER713     -0.1202
    200  CA         0.5660   -6.0420   51.9340 C.3   713  SER713      0.2020
    201  C         -0.6440   -5.5180   51.1340 C.2   713  SER713      0.2618
    202  O         -0.5770   -4.3970   50.6040 O.2   713  SER713     -0.2717
    203  CB         1.2460   -7.2270   51.2460 C.3   713  SER713      0.2103
    204  OG         2.6460   -7.1740   51.5220 O.3   713  SER713     -0.2182
    205  N         -1.7350   -6.3080   51.0610 N.am  714  VAL714     -0.1979
    206  CA        -2.9850   -5.8460   50.3970 C.3   714  VAL714      0.1595
    207  C         -3.4020   -4.5000   50.9420 C.2   714  VAL714      0.2287
    208  O         -3.2600   -3.5160   50.2400 O.2   714  VAL714     -0.2864
    209  CB        -4.1370   -6.8840   50.3590 C.3   714  VAL714      0.0276
    210  CG1       -4.0560   -7.7960   51.5350 C.3   714  VAL714      0.0022
    211  CG2       -5.4860   -6.2040   50.2770 C.3   714  VAL714      0.0022
    212  N         -0.9700   -2.2660   49.5520 N.3   717  ILE717     -0.1231
    213  CA        -0.9680   -2.2210   48.0890 C.3   717  ILE717      0.1692
    214  C         -2.3890   -1.9110   47.5650 C.2   717  ILE717      0.2592
    215  O         -2.5630   -1.5290   46.4190 O.2   717  ILE717     -0.2718
    216  CB        -0.3170   -3.5010   47.4680 C.3   717  ILE717      0.0266
    217  CG1       -0.0380   -3.3220   45.9810 C.3   717  ILE717      0.0019
    218  CG2       -1.1930   -4.7210   47.6790 C.3   717  ILE717      0.0020
    219  CD1       -1.0780   -3.9960   45.0520 C.3   717  ILE717      0.0001
    220  N         -3.3920   -2.0690   48.4340 N.am  718  PHE718     -0.1976
    221  CA        -4.7790   -1.7880   48.0860 C.3   718  PHE718      0.1639
    222  C         -5.0540   -0.3580   48.5040 C.2   718  PHE718      0.2290
    223  O         -6.1460    0.1550   48.2240 O.2   718  PHE718     -0.2864
    224  CB        -5.7660   -2.7410   48.8050 C.3   718  PHE718      0.0560
    225  CG        -6.4800   -3.7330   47.9060 C.ar  718  PHE718     -0.0200
    226  CD1       -7.7250   -3.4510   47.3920 C.ar  718  PHE718     -0.0042
    227  CD2       -5.9320   -4.9790   47.6250 C.ar  718  PHE718     -0.0042
    228  CE1       -8.4060   -4.3840   46.5810 C.ar  718  PHE718     -0.0003
    229  CE2       -6.6160   -5.9090   46.8070 C.ar  718  PHE718     -0.0003
    230  CZ        -7.8490   -5.6000   46.2980 C.ar  718  PHE718     -0.0000
@<TRIPOS>BOND
     1    70    71    1
     2    72    71    1
     3    72    73    2
     4    74    71    1
     5    74    75    1
     6   219   217    1
     7    76    75   ar
     8    76    78   ar
     9    75    77   ar
    10   217   216    1
    11    78    80   ar
    12    77    79   ar
    13   230   228   ar
    14   230   229   ar
    15   215   214    2
    16   228   226   ar
    17   229   227   ar
    18    80    79   ar
    19    48    47    1
    20    48    49    2
    21    46    47    1
    22   226   225   ar
    23   216   218    1
    24   216   213    1
    25    69    68   ar
    26    69    67   ar
    27   214   213    1
    28   214   220   am
    29   227   225   ar
    30    47    50    1
    31    54    55    1
    32   225   224    1
    33   221   220    1
    34   221   222    1
    35   221   224    1
    36   213   212    1
    37    68    66   ar
    38   223   222    2
    39    67    65   ar
    40    53    51   ar
    41    83    84    2
    42    83    82    1
    43    63    62    2
    44    59    58    1
    45    55    58    1
    46    55    56    1
    47    50    51    1
    48    85    86    1
    49    85    82    1
    50    66    65   ar
    51    42    41    2
    52    90    89    1
    53    65    64    1
    54    60    56   am
    55    60    61    1
    56    51    52   ar
    57   144   145   ar
    58   144   142   ar
    59    86    87    1
    60    82    81    1
    61    56    57    2
    62    62    61    1
    63    88    89    2
    64    88    87    1
    65    89    91    1
    66    41    40    1
    67   208   207    2
    68   211   209    1
    69   145   143   ar
    70   142   140   ar
    71   209   206    1
    72   209   210    1
    73    61    64    1
    74   206   207    1
    75   206   205    1
    76   152   150    1
    77   202   201    2
    78   205   201   am
    79   114   113    1
    80   201   200    1
    81   203   204    1
    82   203   200    1
    83    40    39    1
    84    40    43    1
    85    32    30    1
    86   111   113   ar
    87   111   109   ar
    88   149   148    2
    89    39    36   am
    90   113   112   ar
    91   143   141   ar
    92   140   141   ar
    93   140   139    1
    94    35    34    1
    95    35    36    1
    96    35    38    1
    97   147   150    1
    98   147   148    1
    99   147   146    1
   100    34    28   am
   101   150   151    1
   102   200   199    1
   103   109   108   ar
   104    36    37    2
   105    28    27    1
   106    28    29    2
   107    27    30    1
   108    27    26    1
   109    30    31    1
   110   112   110   ar
   111    43    44    1
   112    43    45    1
   113   139   136    1
   114   108   110   ar
   115   108   107    1
   116   198   196    1
   117   136   137    1
   118   136   135    1
   119   193   196    1
   120   193   194    1
   121   193   192    1
   122   197   196    1
   123   138   137    2
   124   107   104    1
   125   195   194    2
   126   190   189    1
   127    31    33    1
   128   192   186   am
   129   127   129   ar
   130   127   126   ar
   131   175   174    1
   132   129   130   ar
   133   104   103    1
   134   104   105    1
   135   191   189    1
   136   189   188    1
   137    18    17    2
   138   122   121    1
   139   122   125    1
   140   122   123    1
   141   186   185    1
   142   186   187    2
   143   126   125    1
   144   126   128   ar
   145   124   123    2
   146     4     3    2
   147   130   132   ar
   148   130   128   ar
   149    95    94    2
   150   176   174    1
   151   174   173    1
   152   120   119    1
   153    17    16    1
   154    94    93    1
   155   185   188    1
   156   185   184    1
   157   132   134   ar
   158   105   115   am
   159   105   106    2
   160   115   116    1
   161   128   131   ar
   162    93    92    1
   163    93    96    1
   164   173   170    1
   165     3     2    1
   166     3    15   am
   167   119   116    1
   168    16    15    1
   169    16    19    1
   170   170   171    1
   171   170   169    1
   172   116   117    1
   173   172   171    2
   174   171   177   am
   175     2     1    1
   176     2     5    1
   177   134   133   ar
   178   131   133   ar
   179   180   179    2
   180    96    97    1
   181   177   178    1
   182   178   179    1
   183   178   181    1
   184    11    13   ar
   185    11     8   ar
   186    13    14   ar
   187    19    20    1
   188   182   181    1
   189   117   118    2
   190     5     6    1
   191   183   181    1
   192    97    98   ar
   193    97    99   ar
   194    98   100   ar
   195    21    20   ar
   196    21    23   ar
   197    20    22   ar
   198    14    12   ar
   199     8     6   ar
   200     8    10   ar
   201   159   157    1
   202     6     7   ar
   203   163   162    2
   204    22    24   ar
   205    23    25   ar
   206   168   166   am
   207    99   101   ar
   208   100   102   ar
   209   161   162    1
   210   161   164    1
   211   161   160    1
   212    10    12   ar
   213    10     9   ar
   214   165   164    1
   215   165   166    1
   216    25    24   ar
   217   156   155    2
   218   157   158    1
   219   157   154    1
   220   166   167    2
   221   160   155   am
   222   101   102   ar
   223     7     9   ar
   224   155   154    1
   225   154   153    1
