@<TRIPOS>MOLECULE
tmp/2wseE49.pdb
 117 111 0 0 0
SMALL
GASTEIGER

@<TRIPOS>ATOM
      1  N         16.7130   -1.4540   89.4630 N.3    42  HIS42      -0.1241
      2  CA        15.8670   -1.5840   90.6000 C.3    42  HIS42       0.1621
      3  C         15.1720   -2.9420   90.3030 C.2    42  HIS42       0.2264
      4  O         14.9120   -3.2080   89.1370 O.2    42  HIS42      -0.2867
      5  CB        14.8880   -0.3790   90.6260 C.3    42  HIS42       0.0745
      6  CG        15.4750    0.9160   90.0810 C.ar   42  HIS42       0.0817
      7  ND1       14.7190    1.8340   89.3640 N.ar   42  HIS42      -0.2268
      8  CD2       16.7360    1.4490   90.1570 C.ar   42  HIS42       0.1154
      9  CE1       15.4860    2.8620   89.0190 C.ar   42  HIS42       0.1986
     10  NE2       16.7160    2.6570   89.4900 N.ar   42  HIS42      -0.2212
     11  N         12.8000   12.1250   94.1590 N.3    65  GLN65      -0.1245
     12  CA        11.7620   12.5080   93.2050 C.3    65  GLN65       0.1566
     13  C         11.2270   13.8760   93.6120 C.2    65  GLN65       0.2260
     14  O         11.3210   14.8570   92.8610 O.2    65  GLN65      -0.2867
     15  CB        10.5990   11.4850   93.1890 C.3    65  GLN65       0.0367
     16  CG         9.7170   11.5650   91.9330 C.3    65  GLN65       0.0905
     17  CD        10.3840   10.9120   90.7330 C.2    65  GLN65       0.2608
     18  OE1       11.0860   11.5680   89.9620 O.2    65  GLN65      -0.2717
     19  NE2       10.1870    9.6020   90.5900 N.am   65  GLN65      -0.0878
     20  N         13.6440   17.0030   93.0220 N.3    68  ILE68      -0.1231
     21  CA        13.6830   16.8740   91.5280 C.3    68  ILE68       0.1692
     22  C         12.4220   17.6010   91.0950 C.2    68  ILE68       0.2591
     23  O         12.5040   18.6700   90.4820 O.2    68  ILE68      -0.2718
     24  CB        13.7170   15.4270   90.8820 C.3    68  ILE68       0.0266
     25  CG1       14.8940   15.2960   89.9210 C.3    68  ILE68       0.0019
     26  CG2       12.5180   15.1490   90.0330 C.3    68  ILE68       0.0020
     27  CD1       16.1260   14.6690   90.5390 C.3    68  ILE68       0.0001
     28  N         11.2550   17.0450   91.4670 N.am   69  ILE69      -0.1980
     29  CA         9.9710   17.7420   91.2890 C.3    69  ILE69       0.1595
     30  C         10.2380   19.1340   91.8330 C.2    69  ILE69       0.2287
     31  O          9.6740   20.1170   91.3850 O.2    69  ILE69      -0.2864
     32  CB         8.8260   17.0750   92.0690 C.3    69  ILE69       0.0276
     33  CG1        8.8220   15.5820   91.8090 C.3    69  ILE69       0.0022
     34  CG2        7.5040   17.6150   91.6310 C.3    69  ILE69       0.0022
     35  CD1        7.9210   14.8370   92.6910 C.3    69  ILE69       0.0001
     36  N         12.9990   20.8290   89.4580 N.3    72  TRP72      -0.1241
     37  CA        11.8710   21.1430   88.5750 C.3    72  TRP72       0.1605
     38  C         10.9620   22.0610   89.4010 C.2    72  TRP72       0.2264
     39  O         11.1050   22.0900   90.6250 O.2    72  TRP72      -0.2867
     40  CB        11.1510   19.8360   88.2310 C.3    72  TRP72       0.0550
     41  CG        10.1770   19.8590   87.1040 C.ar   72  TRP72       0.0003
     42  CD1       10.4620   19.7050   85.7800 C.ar   72  TRP72       0.0946
     43  CD2        8.7460   19.9530   87.1980 C.ar   72  TRP72       0.0152
     44  NE1        9.2920   19.7290   85.0380 N.ar   72  TRP72      -0.2442
     45  CE2        8.2260   19.8780   85.8980 C.ar   72  TRP72       0.0810
     46  CE3        7.8500   20.0980   88.2530 C.ar   72  TRP72       0.0012
     47  CZ2        6.8650   19.9460   85.6340 C.ar   72  TRP72       0.0191
     48  CZ3        6.5060   20.1650   87.9810 C.ar   72  TRP72       0.0001
     49  CH2        6.0220   20.0910   86.6900 C.ar   72  TRP72       0.0015
     50  N         -1.4370    2.4190   91.9130 N.3   334  LEU334     -0.1245
     51  CA        -1.3050    2.7990   90.4980 C.3   334  LEU334      0.1561
     52  C         -2.6810    2.7840   89.8410 C.2   334  LEU334      0.2260
     53  O         -3.0830    3.7680   89.1950 O.2   334  LEU334     -0.2867
     54  CB        -0.2680    1.9380   89.7460 C.3   334  LEU334      0.0270
     55  CG         1.1910    2.4710   89.6740 C.3   334  LEU334      0.0019
     56  CD1        2.0050    2.2210   90.9420 C.3   334  LEU334      0.0001
     57  CD2        1.9480    1.8900   88.5240 C.3   334  LEU334      0.0001
     58  N         -4.2370    5.9550   92.1190 N.3   337  LEU337     -0.1245
     59  CA        -3.4640    7.1310   91.7260 C.3   337  LEU337      0.1561
     60  C         -3.7450    7.4340   90.2670 C.2   337  LEU337      0.2260
     61  O         -4.3490    8.4700   89.9660 O.2   337  LEU337     -0.2867
     62  CB        -1.9590    6.8890   91.9370 C.3   337  LEU337      0.0270
     63  CG        -0.9920    8.0310   91.5930 C.3   337  LEU337      0.0019
     64  CD1       -1.5950    9.3740   91.9690 C.3   337  LEU337      0.0001
     65  CD2        0.3270    7.8410   92.3120 C.3   337  LEU337      0.0001
     66  N         -1.4710    9.7050   82.0550 N.3   374  ILE374     -0.1245
     67  CA        -1.0380    9.2030   83.3670 C.3   374  ILE374      0.1561
     68  C         -2.1380    8.3150   83.9870 C.2   374  ILE374      0.2260
     69  O         -1.8440    7.2620   84.5920 O.2   374  ILE374     -0.2867
     70  CB        -0.7130   10.3790   84.3250 C.3   374  ILE374      0.0252
     71  CG1        0.8070   10.6540   84.3770 C.3   374  ILE374      0.0019
     72  CG2       -1.1820   10.0790   85.6910 C.3   374  ILE374      0.0019
     73  CD1        1.5630   10.2260   85.6740 C.3   374  ILE374      0.0001
     74  N         -1.1360    5.5160   81.7260 N.3   377  PHE377     -0.1227
     75  CA         0.2350    4.9980   81.8170 C.3   377  PHE377      0.1736
     76  C          0.5660    4.4840   83.1760 C.2   377  PHE377      0.2595
     77  O          1.6210    3.8600   83.3520 O.2   377  PHE377     -0.2718
     78  CB         1.2820    6.0740   81.5140 C.3   377  PHE377      0.0547
     79  CG         2.0350    5.8460   80.2600 C.ar  377  PHE377     -0.0202
     80  CD1        1.6970    6.5520   79.1210 C.ar  377  PHE377     -0.0042
     81  CD2        3.0650    4.9080   80.2310 C.ar  377  PHE377     -0.0042
     82  CE1        2.3560    6.3390   77.9880 C.ar  377  PHE377     -0.0003
     83  CE2        3.7360    4.6810   79.1170 C.ar  377  PHE377     -0.0003
     84  CZ         3.3870    5.3970   77.9680 C.ar  377  PHE377     -0.0000
     85  N         -0.2860    4.8000   84.1480 N.am  378  LEU378     -0.1980
     86  CA        -0.0270    4.3960   85.5180 C.3   378  LEU378      0.1596
     87  C         -0.8890    3.1770   85.8980 C.2   378  LEU378      0.2287
     88  O         -0.7280    2.6080   86.9730 O.2   378  LEU378     -0.2864
     89  CB        -0.2330    5.5880   86.4650 C.3   378  LEU378      0.0297
     90  CG         0.7040    5.7470   87.6820 C.3   378  LEU378      0.0022
     91  CD1        2.1760    6.1090   87.3450 C.3   378  LEU378      0.0001
     92  CD2        0.1150    6.7930   88.5960 C.3   378  LEU378      0.0001
     93  N          2.8320   -4.5270   87.9920 N.3   385  HIS385     -0.1241
     94  CA         3.3590   -4.7580   89.3250 C.3   385  HIS385      0.1621
     95  C          2.5750   -5.7760   90.1630 C.2   385  HIS385      0.2264
     96  O          3.1690   -6.4040   91.0610 O.2   385  HIS385     -0.2867
     97  CB         3.6580   -3.4350   90.0530 C.3   385  HIS385      0.0745
     98  CG         5.0640   -2.9270   89.8080 C.ar  385  HIS385      0.0817
     99  ND1        6.1800   -3.4890   90.4080 N.ar  385  HIS385     -0.2268
    100  CD2        5.5390   -1.9490   88.9880 C.ar  385  HIS385      0.1154
    101  CE1        7.2790   -2.8750   89.9740 C.ar  385  HIS385      0.1986
    102  NE2        6.9190   -1.9370   89.1120 N.ar  385  HIS385     -0.2212
    103  N         -0.0440   -2.2310   77.0320 N.3   574  LEU574     -0.1245
    104  CA         0.3590   -0.8880   76.6850 C.3   574  LEU574      0.1561
    105  C         -0.1620   -0.7040   75.2910 C.2   574  LEU574      0.2260
    106  O         -1.1110    0.0650   75.0930 O.2   574  LEU574     -0.2867
    107  CB         1.8810   -0.6870   76.7860 C.3   574  LEU574      0.0270
    108  CG         2.3870   -0.3830   78.2170 C.3   574  LEU574      0.0019
    109  CD1        3.9510   -0.4530   78.3590 C.3   574  LEU574      0.0001
    110  CD2        1.7860    0.9150   78.7950 C.3   574  LEU574      0.0001
    111  N          8.1260    1.1650   73.7310 N.3   708  THR708     -0.1218
    112  CA         8.5350    2.4190   74.2770 C.3   708  THR708      0.1862
    113  C          8.6450    3.4130   73.1200 C.2   708  THR708      0.2287
    114  O          8.0490    4.4780   73.1730 O.2   708  THR708     -0.2866
    115  CB         9.7260    2.2540   75.2910 C.3   708  THR708      0.1770
    116  OG1        9.1720    2.2540   76.6250 O.3   708  THR708     -0.2211
    117  CG2       10.8000    3.3560   75.1590 C.3   708  THR708      0.0375
@<TRIPOS>BOND
     1   113   114    2
     2   113   112    1
     3   111   112    1
     4   112   115    1
     5   106   105    2
     6   117   115    1
     7   115   116    1
     8   105   104    1
     9   104   107    1
    10   104   103    1
    11   107   108    1
    12    84    82   ar
    13    84    83   ar
    14    82    80   ar
    15   108   109    1
    16   108   110    1
    17    83    81   ar
    18    80    79   ar
    19    81    79   ar
    20    79    78    1
    21    78    75    1
    22    74    75    1
    23    75    76    1
    24    66    67    1
    25    76    77    2
    26    76    85   am
    27    67    68    1
    28    67    70    1
    29    68    69    2
    30    85    86    1
    31    70    71    1
    32    70    72    1
    33    71    73    1
    34    44    42   ar
    35    44    45   ar
    36    86    87    1
    37    86    89    1
    38    47    45   ar
    39    47    49   ar
    40    42    41   ar
    41    87    88    2
    42    45    43   ar
    43    89    90    1
    44    49    48   ar
    45    41    43   ar
    46    41    40    1
    47    43    46   ar
    48    91    90    1
    49    90    92    1
    50    48    46   ar
    51    93    94    1
    52    40    37    1
    53    57    55    1
    54    37    38    1
    55    37    36    1
    56   100   102   ar
    57   100    98   ar
    58     9     7   ar
    59     9    10   ar
    60   102   101   ar
    61     4     3    2
    62    53    52    2
    63    94    97    1
    64    94    95    1
    65     7     6   ar
    66    38    39    2
    67     1     2    1
    68    10     8   ar
    69    55    54    1
    70    55    56    1
    71    54    51    1
    72    98    97    1
    73    98    99   ar
    74    52    51    1
    75    25    27    1
    76    25    24    1
    77    18    17    2
    78    61    60    2
    79   101    99   ar
    80    26    24    1
    81     6     8   ar
    82     6     5    1
    83    95    96    2
    84    60    59    1
    85     3     2    1
    86    23    22    2
    87    51    50    1
    88    19    17   am
    89     2     5    1
    90    17    16    1
    91    24    21    1
    92    22    28   am
    93    22    21    1
    94    29    28    1
    95    29    30    1
    96    29    32    1
    97    31    30    2
    98    21    20    1
    99    63    62    1
   100    63    64    1
   101    63    65    1
   102    34    32    1
   103    59    62    1
   104    59    58    1
   105    33    32    1
   106    33    35    1
   107    16    15    1
   108    14    13    2
   109    15    12    1
   110    12    13    1
   111    12    11    1
