@<TRIPOS>MOLECULE
tmp/2wseE25.pdb
 107 102 0 0 0
SMALL
GASTEIGER

@<TRIPOS>ATOM
      1  N         28.2140   -7.6020   76.1240 N.3    31  THR31      -0.1218
      2  CA        27.5790   -6.3060   75.9870 C.3    31  THR31       0.1862
      3  C         26.2330   -6.3390   76.6700 C.2    31  THR31       0.2287
      4  O         25.8420   -5.3500   77.2910 O.2    31  THR31      -0.2866
      5  CB        27.4150   -5.8880   74.4990 C.3    31  THR31       0.1770
      6  OG1       27.2400   -4.4740   74.4290 O.3    31  THR31      -0.2211
      7  CG2       26.2030   -6.5270   73.8880 C.3    31  THR31       0.0375
      8  N         25.2660   -4.4850   79.6980 N.3    34  ILE34      -0.1231
      9  CA        25.2120   -3.0170   79.7560 C.3    34  ILE34       0.1692
     10  C         23.7650   -2.4930   79.5690 C.2    34  ILE34       0.2592
     11  O         23.4570   -1.3750   79.9330 O.2    34  ILE34      -0.2718
     12  CB        26.2920   -2.3380   78.8590 C.3    34  ILE34       0.0266
     13  CG1       27.7000   -2.6030   79.4480 C.3    34  ILE34       0.0019
     14  CG2       26.0200   -0.8130   78.7110 C.3    34  ILE34       0.0020
     15  CD1       28.8990   -2.0980   78.6290 C.3    34  ILE34       0.0001
     16  N         22.8600   -3.3310   79.0640 N.am   35  TRP35      -0.1976
     17  CA        21.4080   -3.0390   79.1680 C.3    35  TRP35       0.1640
     18  C         20.8020   -3.6860   80.3950 C.2    35  TRP35       0.2290
     19  O         19.9040   -3.1180   81.0190 O.2    35  TRP35      -0.2864
     20  CB        20.6460   -3.4540   77.9130 C.3    35  TRP35       0.0576
     21  CG        20.7660   -2.4240   76.8700 C.ar   35  TRP35       0.0006
     22  CD1       20.2450   -1.1450   76.8960 C.ar   35  TRP35       0.0946
     23  CD2       21.4840   -2.5520   75.6520 C.ar   35  TRP35       0.0152
     24  NE1       20.5840   -0.4770   75.7510 N.ar   35  TRP35      -0.2442
     25  CE2       21.3400   -1.3160   74.9590 C.ar   35  TRP35       0.0810
     26  CE3       22.2230   -3.5910   75.0620 C.ar   35  TRP35       0.0012
     27  CZ2       21.9240   -1.0950   73.6850 C.ar   35  TRP35       0.0191
     28  CZ3       22.7940   -3.3780   73.8030 C.ar   35  TRP35       0.0001
     29  CH2       22.6420   -2.1400   73.1270 C.ar   35  TRP35       0.0015
     30  N         25.3410   -9.1330   62.7970 N.3   676  ILE676     -0.1245
     31  CA        26.3080   -8.4920   63.6860 C.3   676  ILE676      0.1561
     32  C         27.6740   -9.1380   63.5990 C.2   676  ILE676      0.2260
     33  O         28.6530   -8.5740   64.0580 O.2   676  ILE676     -0.2867
     34  CB        25.8010   -8.6250   65.1260 C.3   676  ILE676      0.0252
     35  CG1       25.9410   -7.3110   65.8850 C.3   676  ILE676      0.0019
     36  CG2       26.5020   -9.8040   65.8380 C.3   676  ILE676      0.0019
     37  CD1       25.3390   -7.3800   67.2280 C.3   676  ILE676      0.0001
     38  N         29.5070   -8.0570   60.1100 N.3   679  ILE679     -0.1231
     39  CA        30.0700   -6.8550   60.7020 C.3   679  ILE679      0.1692
     40  C         31.3430   -7.1920   61.4850 C.2   679  ILE679      0.2591
     41  O         32.4300   -6.6640   61.1880 O.2   679  ILE679     -0.2718
     42  CB        29.0350   -6.2150   61.6720 C.3   679  ILE679      0.0266
     43  CG1       27.5900   -6.3920   61.1710 C.3   679  ILE679      0.0019
     44  CG2       29.3640   -4.7430   61.9390 C.3   679  ILE679      0.0020
     45  CD1       26.9740   -5.1400   60.6550 C.3   679  ILE679      0.0001
     46  N         31.1980   -8.0820   62.4810 N.am  680  VAL680     -0.1980
     47  CA        32.3030   -8.4590   63.4120 C.3   680  VAL680      0.1595
     48  C         33.5100   -9.0170   62.6440 C.2   680  VAL680      0.2287
     49  O         34.6900   -8.7780   62.9840 O.2   680  VAL680     -0.2864
     50  CB        31.8300   -9.4510   64.4930 C.3   680  VAL680      0.0276
     51  CG1       32.9220  -10.4140   64.8140 C.3   680  VAL680      0.0022
     52  CG2       31.4250   -8.6980   65.7270 C.3   680  VAL680      0.0022
     53  N         35.2270   -6.0910   60.8230 N.3   683  HIS683     -0.1241
     54  CA        35.8930   -5.5610   61.9990 C.3   683  HIS683      0.1621
     55  C         37.2740   -6.1980   62.2830 C.2   683  HIS683      0.2264
     56  O         38.2780   -5.4850   62.3900 O.2   683  HIS683     -0.2867
     57  CB        35.0140   -5.8080   63.2130 C.3   683  HIS683      0.0745
     58  CG        33.7340   -5.0220   63.2360 C.ar  683  HIS683      0.0817
     59  ND1       33.6960   -3.6360   63.3140 N.ar  683  HIS683     -0.2268
     60  CD2       32.4370   -5.4340   63.2590 C.ar  683  HIS683      0.1154
     61  CE1       32.4270   -3.2330   63.3400 C.ar  683  HIS683      0.1986
     62  NE2       31.6430   -4.3070   63.3060 N.ar  683  HIS683     -0.2212
     63  N         39.9570   -4.4930   64.6590 N.3   688  VAL688     -0.1231
     64  CA        39.1760   -3.4150   65.2850 C.3   688  VAL688      0.1692
     65  C         37.9540   -3.8130   66.1420 C.2   688  VAL688      0.2591
     66  O         37.3040   -2.9200   66.6760 O.2   688  VAL688     -0.2718
     67  CB        38.7480   -2.3210   64.2460 C.3   688  VAL688      0.0266
     68  CG1       39.9200   -1.9510   63.3270 C.3   688  VAL688      0.0020
     69  CG2       37.5130   -2.7640   63.4100 C.3   688  VAL688      0.0020
     70  N         37.6280   -5.1010   66.3120 N.am  689  ALA689     -0.1980
     71  CA        36.4050   -5.4280   67.1160 C.3   689  ALA689      0.1597
     72  C         36.4490   -6.1610   68.4960 C.2   689  ALA689      0.2287
     73  O         36.2010   -5.5170   69.5320 O.2   689  ALA689     -0.2864
     74  CB        35.3120   -6.0300   66.2540 C.3   689  ALA689      0.0319
     75  N         34.8610   -7.0610   74.3870 N.3   692  THR692     -0.1218
     76  CA        33.4480   -6.7510   74.7720 C.3   692  THR692      0.1862
     77  C         32.4440   -7.3370   73.7800 C.2   692  THR692      0.2287
     78  O         31.6690   -6.6260   73.1440 O.2   692  THR692     -0.2866
     79  CB        33.1840   -5.2440   75.1890 C.3   692  THR692      0.1770
     80  OG1       33.5590   -5.0760   76.5600 O.3   692  THR692     -0.2211
     81  CG2       31.7190   -4.8870   75.0850 C.3   692  THR692      0.0375
     82  N         30.4060   -7.9870   71.2530 N.3   694  PRO694     -0.2102
     83  CA        29.2260   -7.3070   70.7240 C.3   694  PRO694      0.1504
     84  C         28.0560   -8.2770   70.4470 C.2   694  PRO694      0.2575
     85  O         28.2490   -9.3040   69.7990 O.2   694  PRO694     -0.2718
     86  CB        29.7780   -6.7190   69.4190 C.3   694  PRO694      0.0282
     87  CG        31.1910   -6.4540   69.7100 C.3   694  PRO694      0.0208
     88  CD        31.5880   -7.7120   70.4070 C.3   694  PRO694      0.0893
     89  N         26.8600   -7.9560   70.9310 N.am  695  ARG695     -0.1980
     90  CA        25.7590   -8.9240   70.9010 C.3   695  ARG695      0.1597
     91  C         24.4190   -8.2820   70.5460 C.2   695  ARG695      0.2287
     92  O         24.1790   -7.0970   70.8010 O.2   695  ARG695     -0.2864
     93  CB        25.6410   -9.6170   72.2640 C.3   695  ARG695      0.0334
     94  CG        25.7520  -11.1470   72.2700 C.3   695  ARG695      0.0492
     95  CD        27.2250  -11.6360   72.2190 C.3   695  ARG695      0.2205
     96  NE        27.4270  -12.9170   72.9000 N.pl3 695  ARG695     -0.0865
     97  CZ        26.4490  -13.7810   73.2270 C.cat 695  ARG695      0.5346
     98  NH1       25.1650  -13.5460   72.9130 N.pl3 695  ARG695      0.1354
     99  NH2       26.7530  -14.9110   73.8640 N.pl3 695  ARG695      0.1354
    100  N         20.0640   -7.8060   70.5030 N.3   697  LEU697     -0.1245
    101  CA        19.1850   -7.4190   71.5920 C.3   697  LEU697      0.1561
    102  C         18.3430   -8.5360   72.2230 C.2   697  LEU697      0.2260
    103  O         17.7840   -9.4250   71.5540 O.2   697  LEU697     -0.2867
    104  CB        18.3300   -6.1950   71.2580 C.3   697  LEU697      0.0270
    105  CG        19.1160   -4.9010   71.4220 C.3   697  LEU697      0.0019
    106  CD1       20.3110   -4.9480   70.5080 C.3   697  LEU697      0.0001
    107  CD2       18.2410   -3.7240   71.0960 C.3   697  LEU697      0.0001
@<TRIPOS>BOND
     1    38    39    1
     2    45    43    1
     3    39    40    1
     4    39    42    1
     5    53    54    1
     6    43    42    1
     7    41    40    2
     8    40    46   am
     9    42    44    1
    10    54    55    1
    11    54    57    1
    12    55    56    2
    13    46    47    1
    14    48    49    2
    15    48    47    1
    16    30    31    1
    17    57    58    1
    18    58    60   ar
    19    58    59   ar
    20    60    62   ar
    21    62    61   ar
    22    59    61   ar
    23    68    67    1
    24    69    67    1
    25    47    50    1
    26    32    31    1
    27    32    33    2
    28    31    34    1
    29    67    64    1
    30    50    51    1
    31    50    52    1
    32    63    64    1
    33    34    36    1
    34    34    35    1
    35    64    65    1
    36    35    37    1
    37    65    70   am
    38    65    66    2
    39    74    71    1
    40    70    71    1
    41    71    72    1
    42    72    73    2
    43    86    87    1
    44    86    83    1
    45    87    88    1
    46    85    84    2
    47    88    82    1
    48    84    83    1
    49    84    89   am
    50   100   101    1
    51   106   105    1
    52    91    92    2
    53    91    90    1
    54    83    82    1
    55    90    89    1
    56    90    93    1
    57   107   105    1
    58   104   105    1
    59   104   101    1
    60   103   102    2
    61   101   102    1
    62    95    94    1
    63    95    96    1
    64    93    94    1
    65    96    97    2
    66    98    97    1
    67    29    27   ar
    68    29    28   ar
    69    78    77    2
    70    97    99    1
    71    27    25   ar
    72    77    76    1
    73    28    26   ar
    74     7     5    1
    75    75    76    1
    76     6     5    1
    77     5     2    1
    78    76    79    1
    79    25    23   ar
    80    25    24   ar
    81    26    23   ar
    82    81    79    1
    83    79    80    1
    84    23    21   ar
    85    24    22   ar
    86     2     1    1
    87     2     3    1
    88     3     4    2
    89    21    22   ar
    90    21    20    1
    91    20    17    1
    92    15    13    1
    93    14    12    1
    94    12    13    1
    95    12     9    1
    96    16    17    1
    97    16    10   am
    98    17    18    1
    99    10     9    1
   100    10    11    2
   101     8     9    1
   102    18    19    2
