@<TRIPOS>MOLECULE
tmp/2wseF35.pdb
 141 139 0 0 0
SMALL
GASTEIGER

@<TRIPOS>ATOM
      1  N         -5.9730  -17.5860   30.0290 N.3    57  PHE57      -0.1241
      2  CA        -6.8730  -17.3630   28.9050 C.3    57  PHE57       0.1605
      3  C         -8.3700  -17.2290   29.2880 C.2    57  PHE57       0.2264
      4  O         -9.1470  -16.6300   28.5390 O.2    57  PHE57      -0.2867
      5  CB        -6.6320  -18.3720   27.7700 C.3    57  PHE57       0.0534
      6  CG        -5.2110  -18.3180   27.1570 C.ar   57  PHE57      -0.0203
      7  CD1       -4.3060  -17.3200   27.4930 C.ar   57  PHE57      -0.0042
      8  CD2       -4.8110  -19.2710   26.2240 C.ar   57  PHE57      -0.0042
      9  CE1       -3.0370  -17.2840   26.9340 C.ar   57  PHE57      -0.0003
     10  CE2       -3.5400  -19.2300   25.6610 C.ar   57  PHE57      -0.0003
     11  CZ        -2.6520  -18.2290   26.0140 C.ar   57  PHE57      -0.0000
     12  N         -8.0760  -13.3820   30.1370 N.3    60  THR60      -0.1218
     13  CA        -8.0610  -12.6080   28.9000 C.3    60  THR60       0.1862
     14  C         -9.3490  -12.6720   28.0800 C.2    60  THR60       0.2287
     15  O         -9.7960  -11.6290   27.5250 O.2    60  THR60      -0.2866
     16  CB        -6.8980  -13.0190   28.0320 C.3    60  THR60       0.1770
     17  OG1       -5.7570  -13.2720   28.8690 O.3    60  THR60      -0.2211
     18  CG2       -6.5760  -11.8890   27.0780 C.3    60  THR60       0.0375
     19  N        -11.7940   -9.5000   27.2140 N.3    64  LEU64      -0.1245
     20  CA       -12.3710   -9.0970   25.9350 C.3    64  LEU64       0.1561
     21  C        -13.9280   -9.3140   25.8390 C.2    64  LEU64       0.2260
     22  O        -14.5720   -8.9800   24.8140 O.2    64  LEU64      -0.2867
     23  CB       -11.5650   -9.7170   24.7750 C.3    64  LEU64       0.0270
     24  CG       -10.0510   -9.3980   24.8140 C.3    64  LEU64       0.0019
     25  CD1       -9.3180  -10.0720   23.6590 C.3    64  LEU64       0.0001
     26  CD2       -9.7360   -7.8740   24.8930 C.3    64  LEU64       0.0001
     27  N         -4.9290   -1.1260   23.1280 N.3   122  TRP122     -0.1227
     28  CA        -4.2010   -2.0720   22.2920 C.3   122  TRP122      0.1737
     29  C         -5.0750   -3.1000   21.5850 C.2   122  TRP122      0.2595
     30  O         -4.6930   -3.5400   20.5170 O.2   122  TRP122     -0.2718
     31  CB        -3.0190   -2.7140   23.0260 C.3   122  TRP122      0.0564
     32  CG        -3.3890   -3.8470   23.9070 C.ar  122  TRP122      0.0003
     33  CD1       -4.4380   -3.9050   24.8020 C.ar  122  TRP122      0.0946
     34  CD2       -2.7020   -5.1000   24.0090 C.ar  122  TRP122      0.0152
     35  NE1       -4.4550   -5.1320   25.4350 N.ar  122  TRP122     -0.2442
     36  CE2       -3.3960   -5.8820   24.9720 C.ar  122  TRP122      0.0810
     37  CE3       -1.5740   -5.6460   23.3790 C.ar  122  TRP122      0.0012
     38  CZ2       -2.9910   -7.1580   25.3150 C.ar  122  TRP122      0.0191
     39  CZ3       -1.1870   -6.9230   23.7230 C.ar  122  TRP122      0.0001
     40  CH2       -1.8870   -7.6620   24.6850 C.ar  122  TRP122      0.0015
     41  N         -6.2270   -3.4990   22.1570 N.am  123  TRP123     -0.1976
     42  CA        -7.2380   -4.1790   21.3500 C.3   123  TRP123      0.1640
     43  C         -7.5990   -3.1660   20.2590 C.2   123  TRP123      0.2290
     44  O         -7.9730   -3.5540   19.1540 O.2   123  TRP123     -0.2864
     45  CB        -8.4790   -4.6220   22.1600 C.3   123  TRP123      0.0576
     46  CG        -9.8120   -4.7750   21.3380 C.ar  123  TRP123      0.0006
     47  CD1      -10.1650   -4.0990   20.1830 C.ar  123  TRP123      0.0946
     48  CD2      -10.9700   -5.5930   21.6680 C.ar  123  TRP123      0.0152
     49  NE1      -11.4310   -4.4710   19.7670 N.ar  123  TRP123     -0.2442
     50  CE2      -11.9510   -5.3810   20.6580 C.ar  123  TRP123      0.0810
     51  CE3      -11.2740   -6.4790   22.7200 C.ar  123  TRP123      0.0012
     52  CZ2      -13.2030   -6.0370   20.6650 C.ar  123  TRP123      0.0191
     53  CZ3      -12.5310   -7.1270   22.7230 C.ar  123  TRP123      0.0001
     54  CH2      -13.4730   -6.8970   21.7040 C.ar  123  TRP123      0.0015
     55  N         -3.4940   -2.3220   17.9400 N.3   126  ILE126     -0.1245
     56  CA        -3.5740   -3.1590   16.7650 C.3   126  ILE126      0.1561
     57  C         -5.0630   -3.0630   16.3380 C.2   126  ILE126      0.2260
     58  O         -5.9580   -3.7010   16.9330 O.2   126  ILE126     -0.2867
     59  CB        -2.9720   -4.6190   16.9370 C.3   126  ILE126      0.0252
     60  CG1       -3.8920   -5.7100   16.3720 C.3   126  ILE126      0.0019
     61  CG2       -2.7020   -4.9630   18.3890 C.3   126  ILE126      0.0019
     62  CD1       -4.0290   -5.7790   14.8880 C.3   126  ILE126      0.0001
     63  N         -8.3100   -3.7010   15.2730 N.3   128  LEU128     -0.1245
     64  CA        -9.4720   -4.2910   15.9990 C.3   128  LEU128      0.1561
     65  C        -10.4970   -3.2210   16.4990 C.2   128  LEU128      0.2260
     66  O        -10.3290   -2.6120   17.5560 O.2   128  LEU128     -0.2867
     67  CB        -8.9580   -5.1780   17.1460 C.3   128  LEU128      0.0270
     68  CG        -9.7300   -6.4180   17.6510 C.3   128  LEU128      0.0019
     69  CD1       -9.1850   -6.8610   19.0350 C.3   128  LEU128      0.0001
     70  CD2      -11.2730   -6.2270   17.6660 C.3   128  LEU128      0.0001
     71  N        -12.9700  -12.6260   20.8480 N.3   137  GLY137     -0.1225
     72  CA       -12.2100  -12.4250   22.0690 C.3   137  GLY137      0.1811
     73  C        -12.2260  -13.7740   22.7510 C.2   137  GLY137      0.2280
     74  O        -11.3800  -14.6080   22.4650 O.2   137  GLY137     -0.2866
     75  N        -12.1170  -17.1020   20.4190 N.3   140  PHE140     -0.1227
     76  CA       -10.7800  -17.6820   20.1480 C.3   140  PHE140      0.1736
     77  C        -10.0590  -18.0420   21.4670 C.2   140  PHE140      0.2595
     78  O        -10.1860  -19.1760   21.9550 O.2   140  PHE140     -0.2718
     79  CB        -9.9110  -16.8200   19.1930 C.3   140  PHE140      0.0547
     80  CG        -8.5000  -17.3320   19.0220 C.ar  140  PHE140     -0.0202
     81  CD1       -7.4020  -16.5090   19.2930 C.ar  140  PHE140     -0.0042
     82  CD2       -8.2670  -18.6430   18.6340 C.ar  140  PHE140     -0.0042
     83  CE1       -6.0950  -16.9850   19.1470 C.ar  140  PHE140     -0.0003
     84  CE2       -6.9800  -19.1230   18.5040 C.ar  140  PHE140     -0.0003
     85  CZ        -5.8930  -18.2980   18.7520 C.ar  140  PHE140     -0.0000
     86  N         -9.3450  -17.0710   22.0400 N.am  141  LEU141     -0.1980
     87  CA        -8.6670  -17.2330   23.3140 C.3   141  LEU141      0.1596
     88  C         -9.1600  -18.4010   24.1610 C.2   141  LEU141      0.2287
     89  O         -8.3740  -18.9990   24.8800 O.2   141  LEU141     -0.2864
     90  CB        -8.8320  -15.9800   24.1570 C.3   141  LEU141      0.0297
     91  CG        -7.7280  -14.9230   24.2320 C.3   141  LEU141      0.0022
     92  CD1       -6.3500  -15.5290   23.9340 C.3   141  LEU141      0.0001
     93  CD2       -8.0530  -13.7100   23.3370 C.3   141  LEU141      0.0001
     94  N         -8.9870  -21.6620   22.7560 N.3   144  LEU144     -0.1245
     95  CA        -7.5790  -21.8370   23.0050 C.3   144  LEU144      0.1561
     96  C         -7.4440  -22.3150   24.4380 C.2   144  LEU144      0.2260
     97  O         -7.0040  -23.4410   24.6790 O.2   144  LEU144     -0.2867
     98  CB        -6.8550  -20.5080   22.7850 C.3   144  LEU144      0.0270
     99  CG        -5.5800  -20.4710   21.9510 C.3   144  LEU144      0.0019
    100  CD1       -4.3770  -20.8070   22.8110 C.3   144  LEU144      0.0001
    101  CD2       -5.7260  -21.4370   20.8090 C.3   144  LEU144      0.0001
    102  N          6.1960  -14.0200   13.6120 N.3   188  ALA188     -0.1231
    103  CA         4.7130  -14.1430   13.5370 C.3   188  ALA188      0.1694
    104  C          3.9110  -12.9290   14.0190 C.2   188  ALA188      0.2592
    105  O          2.8620  -12.5940   13.4650 O.2   188  ALA188     -0.2718
    106  CB         4.2330  -15.3930   14.2450 C.3   188  ALA188      0.0304
    107  N          4.3970  -12.2850   15.0710 N.am  189  TRP189     -0.1976
    108  CA         3.8530  -10.9810   15.4690 C.3   189  TRP189      0.1640
    109  C          4.2260   -9.9860   14.3920 C.2   189  TRP189      0.2290
    110  O          3.3350   -9.3750   13.8100 O.2   189  TRP189     -0.2864
    111  CB         4.3720  -10.5380   16.8410 C.3   189  TRP189      0.0576
    112  CG         3.6750   -9.3450   17.4080 C.ar  189  TRP189      0.0006
    113  CD1        4.2670   -8.1800   17.7980 C.ar  189  TRP189      0.0946
    114  CD2        2.2500   -9.1950   17.6850 C.ar  189  TRP189      0.0152
    115  NE1        3.3110   -7.3060   18.3020 N.ar  189  TRP189     -0.2442
    116  CE2        2.0650   -7.8990   18.2300 C.ar  189  TRP189      0.0810
    117  CE3        1.1190  -10.0250   17.5330 C.ar  189  TRP189      0.0012
    118  CZ2        0.7880   -7.4130   18.6140 C.ar  189  TRP189      0.0191
    119  CZ3       -0.1460   -9.5330   17.9240 C.ar  189  TRP189      0.0001
    120  CH2       -0.2940   -8.2460   18.4590 C.ar  189  TRP189      0.0015
    121  N          1.7630  -10.0770   11.9220 N.3   192  HIS192     -0.1241
    122  CA         0.4040   -9.6160   12.1380 C.3   192  HIS192      0.1621
    123  C          0.2690   -8.1020   12.1250 C.2   192  HIS192      0.2264
    124  O         -0.5620   -7.5360   11.4200 O.2   192  HIS192     -0.2867
    125  CB        -0.0590  -10.1580   13.4710 C.3   192  HIS192      0.0745
    126  CG        -1.3830   -9.6230   13.9040 C.ar  192  HIS192      0.0817
    127  ND1       -1.5100   -8.5090   14.7120 N.ar  192  HIS192     -0.2268
    128  CD2       -2.6510  -10.0370   13.6300 C.ar  192  HIS192      0.1154
    129  CE1       -2.8010   -8.2700   14.9320 C.ar  192  HIS192      0.1986
    130  NE2       -3.5150   -9.1860   14.2920 N.ar  192  HIS192     -0.2212
    131  N         -8.0780  -11.1760    2.3540 N.3   211  PHE211     -0.1241
    132  CA        -6.8740  -11.4800    3.1250 C.3   211  PHE211      0.1605
    133  C         -5.7890  -11.7850    2.0720 C.2   211  PHE211      0.2264
    134  O         -4.5750  -11.6600    2.3240 O.2   211  PHE211     -0.2867
    135  CB        -7.1910  -12.6990    3.9980 C.3   211  PHE211      0.0534
    136  CG        -6.0500  -13.1760    4.8730 C.ar  211  PHE211     -0.0203
    137  CD1       -5.8970  -12.6830    6.1620 C.ar  211  PHE211     -0.0042
    138  CD2       -5.1750  -14.1870    4.4390 C.ar  211  PHE211     -0.0042
    139  CE1       -4.8580  -13.1550    6.9830 C.ar  211  PHE211     -0.0003
    140  CE2       -4.1380  -14.6540    5.2660 C.ar  211  PHE211     -0.0003
    141  CZ        -3.9860  -14.1400    6.5350 C.ar  211  PHE211     -0.0000
@<TRIPOS>BOND
     1   133   134    2
     2   133   132    1
     3   131   132    1
     4   132   135    1
     5   135   136    1
     6   138   136   ar
     7   138   140   ar
     8   136   137   ar
     9   140   141   ar
    10   137   139   ar
    11   141   139   ar
    12   124   123    2
    13   121   122    1
    14   123   122    1
    15   122   125    1
    16   105   104    2
    17   125   126    1
    18   103   102    1
    19   103   104    1
    20   103   106    1
    21   128   126   ar
    22   128   130   ar
    23   110   109    2
    24   126   127   ar
    25   104   107   am
    26   130   129   ar
    27   109   108    1
    28   127   129   ar
    29    62    60    1
    30   107   108    1
    31    63    64    1
    32   108   111    1
    33    64    65    1
    34    64    67    1
    35    57    56    1
    36    57    58    2
    37    60    59    1
    38    65    66    2
    39    56    59    1
    40    56    55    1
    41   111   112    1
    42    59    61    1
    43    67    68    1
    44   112   114   ar
    45   112   113   ar
    46   117   114   ar
    47   117   119   ar
    48    68    70    1
    49    68    69    1
    50   114   116   ar
    51   113   115   ar
    52   119   120   ar
    53   116   115   ar
    54   116   118   ar
    55   120   118   ar
    56    84    82   ar
    57    84    85   ar
    58    82    80   ar
    59    85    83   ar
    60    80    79    1
    61    80    81   ar
    62    83    81   ar
    63    44    43    2
    64    79    76    1
    65    49    47   ar
    66    49    50   ar
    67    76    75    1
    68    76    77    1
    69    47    46   ar
    70    43    42    1
    71    30    29    2
    72    50    52   ar
    73    50    48   ar
    74    52    54   ar
    75   101    99    1
    76    71    72    1
    77    46    48   ar
    78    46    45    1
    79    42    41    1
    80    42    45    1
    81    77    78    2
    82    77    86   am
    83    29    41   am
    84    29    28    1
    85    48    51   ar
    86    54    53   ar
    87    99    98    1
    88    99   100    1
    89    86    87    1
    90    72    73    1
    91    28    31    1
    92    28    27    1
    93    74    73    2
    94    51    53   ar
    95    94    95    1
    96    98    95    1
    97    95    96    1
    98    31    32    1
    99    87    90    1
   100    87    88    1
   101    93    91    1
   102    37    39   ar
   103    37    34   ar
   104    25    24    1
   105    39    40   ar
   106    32    34   ar
   107    32    33   ar
   108    92    91    1
   109    34    36   ar
   110    90    91    1
   111    88    89    2
   112    96    97    2
   113    40    38   ar
   114    23    24    1
   115    23    20    1
   116    33    35   ar
   117    22    21    2
   118    24    26    1
   119    36    38   ar
   120    36    35   ar
   121    10    11   ar
   122    10     8   ar
   123    21    20    1
   124    20    19    1
   125    11     9   ar
   126     8     6   ar
   127     9     7   ar
   128    18    16    1
   129     6     7   ar
   130     6     5    1
   131    15    14    2
   132     5     2    1
   133    16    17    1
   134    16    13    1
   135    14    13    1
   136     4     3    2
   137    13    12    1
   138     2     3    1
   139     2     1    1
