@<TRIPOS>MOLECULE
tmp/2wseD07.pdb
 119 113 0 0 0
SMALL
GASTEIGER

@<TRIPOS>ATOM
      1  N         65.7150    8.2600   54.1900 N.3    13  GLN13      -0.1245
      2  CA        66.0110    8.8170   52.9080 C.3    13  GLN13       0.1566
      3  C         64.8190    9.6670   52.5780 C.2    13  GLN13       0.2260
      4  O         64.9430   10.7370   52.0030 O.2    13  GLN13      -0.2867
      5  CB        66.2140    7.7370   51.8780 C.3    13  GLN13       0.0367
      6  CG        66.9310    8.2200   50.6830 C.3    13  GLN13       0.0905
      7  CD        68.3360    7.7420   50.6120 C.2    13  GLN13       0.2608
      8  OE1       68.8800    7.2350   51.5620 O.2    13  GLN13      -0.2717
      9  NE2       68.9310    7.8810   49.4730 N.am   13  GLN13      -0.0878
     10  N         66.2750   13.6710   53.7760 N.3    16  LEU16      -0.1231
     11  CA        67.4180   14.2880   53.1240 C.3    16  LEU16       0.1693
     12  C         67.0050   14.9690   51.8000 C.2    16  LEU16       0.2591
     13  O         67.4330   16.1050   51.5560 O.2    16  LEU16      -0.2718
     14  CB        68.6710   13.3660   53.0730 C.3    16  LEU16       0.0284
     15  CG        68.9900   12.4970   51.8430 C.3    16  LEU16       0.0019
     16  CD1       70.0390   13.1370   50.8630 C.3    16  LEU16       0.0001
     17  CD2       69.4310   11.0890   52.3210 C.3    16  LEU16       0.0001
     18  N         66.1140   14.3110   51.0270 N.am   17  VAL17      -0.1980
     19  CA        65.5580   14.8380   49.7600 C.3    17  VAL17       0.1595
     20  C         64.6600   16.0570   49.9890 C.2    17  VAL17       0.2287
     21  O         64.5920   16.9760   49.1480 O.2    17  VAL17      -0.2864
     22  CB        64.7220   13.7860   49.0030 C.3    17  VAL17       0.0276
     23  CG1       64.6840   14.1180   47.5310 C.3    17  VAL17       0.0022
     24  CG2       65.2960   12.4090   49.1960 C.3    17  VAL17       0.0022
     25  N         67.5090   18.7310   51.3900 N.3    20  ARG20      -0.1231
     26  CA        68.3890   19.2980   50.3500 C.3    20  ARG20       0.1694
     27  C         67.6500   19.9980   49.1710 C.2    20  ARG20       0.2592
     28  O         68.2640   20.8420   48.4920 O.2    20  ARG20      -0.2718
     29  CB        69.4280   18.2510   49.8680 C.3    20  ARG20       0.0321
     30  CG        70.8940   18.7990   49.7500 C.3    20  ARG20       0.0489
     31  CD        71.7920   18.4840   50.9810 C.3    20  ARG20       0.2205
     32  NE        71.8750   17.0410   51.2950 N.pl3  20  ARG20      -0.0865
     33  CZ        72.8880   16.4380   51.9410 C.cat  20  ARG20       0.5346
     34  NH1       72.8340   15.1180   52.1600 N.pl3  20  ARG20       0.1354
     35  NH2       73.9630   17.1320   52.3540 N.pl3  20  ARG20       0.1354
     36  N         66.3580   19.6610   48.9500 N.am   21  TRP21      -0.1976
     37  CA        65.4890   20.4760   48.0680 C.3    21  TRP21       0.1640
     38  C         64.8140   21.7390   48.6970 C.2    21  TRP21       0.2290
     39  O         64.5060   22.7120   47.9870 O.2    21  TRP21      -0.2864
     40  CB        64.4800   19.6220   47.2640 C.3    21  TRP21       0.0576
     41  CG        64.9380   19.5180   45.8370 C.ar   21  TRP21       0.0006
     42  CD1       65.6140   20.4850   45.1140 C.ar   21  TRP21       0.0946
     43  CD2       64.7800   18.4000   44.9550 C.ar   21  TRP21       0.0152
     44  NE1       65.8960   20.0270   43.8510 N.ar   21  TRP21      -0.2442
     45  CE2       65.3990   18.7510   43.7260 C.ar   21  TRP21       0.0810
     46  CE3       64.1930   17.1350   45.0840 C.ar   21  TRP21       0.0012
     47  CZ2       65.4460   17.8860   42.6510 C.ar   21  TRP21       0.0191
     48  CZ3       64.2310   16.2750   44.0120 C.ar   21  TRP21       0.0001
     49  CH2       64.8580   16.6560   42.8070 C.ar   21  TRP21       0.0015
     50  N         67.7920   24.0600   48.3510 N.3    24  LEU24      -0.1245
     51  CA        67.7260   24.6830   47.0280 C.3    24  LEU24       0.1561
     52  C         66.5320   25.6760   46.9130 C.2    24  LEU24       0.2260
     53  O         66.7550   26.8690   46.6870 O.2    24  LEU24      -0.2867
     54  CB        67.7330   23.6480   45.8810 C.3    24  LEU24       0.0270
     55  CG        69.0910   22.9860   45.5270 C.3    24  LEU24       0.0019
     56  CD1       69.3510   21.7940   46.4370 C.3    24  LEU24       0.0001
     57  CD2       69.2530   22.5380   44.0550 C.3    24  LEU24       0.0001
     58  N         65.1820   10.0490   35.5720 N.3    72  VAL72      -0.1245
     59  CA        66.3000   10.0600   36.4940 C.3    72  VAL72       0.1561
     60  C         65.8450    9.6540   37.8690 C.2    72  VAL72       0.2260
     61  O         66.6020    9.1220   38.7120 O.2    72  VAL72      -0.2867
     62  CB        66.8400   11.3860   36.6570 C.3    72  VAL72       0.0252
     63  CG1       66.6880   11.7820   38.0540 C.3    72  VAL72       0.0019
     64  CG2       68.2670   11.3720   36.2810 C.3    72  VAL72       0.0019
     65  N         65.3820    6.2430   38.4800 N.3    75  ARG75      -0.1231
     66  CA        66.7400    5.8000   38.8030 C.3    75  ARG75       0.1694
     67  C         67.0500    5.7930   40.2650 C.2    75  ARG75       0.2591
     68  O         67.4220    4.7730   40.8120 O.2    75  ARG75      -0.2718
     69  CB        67.7700    6.6850   38.1630 C.3    75  ARG75       0.0321
     70  CG        68.9180    6.9550   39.0830 C.3    75  ARG75       0.0489
     71  CD        69.0410    8.4320   39.4650 C.3    75  ARG75       0.2205
     72  NE        68.2550    8.7450   40.6440 N.pl3  75  ARG75      -0.0865
     73  CZ        67.5650    9.8660   40.8340 C.cat  75  ARG75       0.5346
     74  NH1       66.8790   10.0210   41.9440 N.pl3  75  ARG75       0.1354
     75  NH2       67.5590   10.8190   39.9270 N.pl3  75  ARG75       0.1354
     76  N         66.9020    6.9180   40.9380 N.am   76  ARG76      -0.1980
     77  CA        67.0020    6.7880   42.4000 C.3    76  ARG76       0.1597
     78  C         66.1330    5.7160   43.0560 C.2    76  ARG76       0.2287
     79  O         66.4820    5.2220   44.0870 O.2    76  ARG76      -0.2864
     80  CB        66.7220    8.0680   43.1370 C.3    76  ARG76       0.0334
     81  CG        66.3750    7.7260   44.5460 C.3    76  ARG76       0.0492
     82  CD        66.9500    8.6880   45.5260 C.3    76  ARG76       0.2205
     83  NE        66.0010    8.9900   46.5580 N.pl3  76  ARG76      -0.0865
     84  CZ        64.9880    9.8150   46.4060 C.cat  76  ARG76       0.5346
     85  NH1       64.1670   10.0300   47.3820 N.pl3  76  ARG76       0.1354
     86  NH2       64.7910   10.4130   45.2770 N.pl3  76  ARG76       0.1354
     87  N         67.5010    2.5790   42.6460 N.3    79  ASP79      -0.1239
     88  CA        68.4720    2.3540   43.6740 C.3    79  ASP79       0.1674
     89  C         68.0080    1.7380   44.9820 C.2    79  ASP79       0.2266
     90  O         68.5160    0.6990   45.3550 O.2    79  ASP79      -0.2867
     91  CB        69.1880    3.6290   43.9790 C.3    79  ASP79       0.1410
     92  CG        70.0930    3.4460   45.0840 C.2    79  ASP79       0.3668
     93  OD1       70.6740    4.4130   45.6030 O.co2  79  ASP79      -0.2456
     94  OD2       70.2010    2.2670   45.4300 O.co2  79  ASP79      -0.2456
     95  N         72.0620    0.8180   44.7690 N.3    84  GLY84      -0.1210
     96  CA        72.9010    1.1420   43.5920 C.3    84  GLY84       0.1956
     97  C         73.0210    2.6370   43.2530 C.2    84  GLY84       0.2612
     98  O         72.1270    3.2120   42.6240 O.2    84  GLY84      -0.2717
     99  N         74.1310    3.2580   43.6630 N.am   85  SER85      -0.1952
    100  CA        74.4350    4.6700   43.3460 C.3    85  SER85       0.1924
    101  C         75.9010    5.0340   43.7220 C.2    85  SER85       0.2314
    102  O         76.1610    5.6560   44.7510 O.2    85  SER85      -0.2863
    103  CB        73.3930    5.6460   43.9700 C.3    85  SER85       0.2116
    104  OG        73.1420    5.3780   45.3450 O.3    85  SER85      -0.2180
    105  N         73.6470    9.3320   49.6140 N.3    90  PRO90      -0.2102
    106  CA        72.3340    9.4850   50.2790 C.3    90  PRO90       0.1504
    107  C         71.7980    8.2730   51.0920 C.2    90  PRO90       0.2575
    108  O         71.4000    8.4600   52.2330 O.2    90  PRO90      -0.2718
    109  CB        71.3950    9.8080   49.1160 C.3    90  PRO90       0.0282
    110  CG        72.0520    9.1860   47.9070 C.3    90  PRO90       0.0208
    111  CD        73.5010    8.8830   48.2150 C.3    90  PRO90       0.0893
    112  N         71.8300    7.0630   50.5060 N.am   91  ILE91      -0.1980
    113  CA        71.0560    5.8560   50.9240 C.3    91  ILE91       0.1595
    114  C         71.3850    5.3980   52.3400 C.2    91  ILE91       0.2287
    115  O         70.8000    4.4550   52.8820 O.2    91  ILE91      -0.2864
    116  CB        71.2390    4.6730   49.8800 C.3    91  ILE91       0.0276
    117  CG1       71.3610    5.2000   48.4470 C.3    91  ILE91       0.0022
    118  CG2       70.0430    3.7520   49.8380 C.3    91  ILE91       0.0022
    119  CD1       72.8080    5.4910   47.9740 C.3    91  ILE91       0.0001
@<TRIPOS>BOND
     1    58    59    1
     2    64    62    1
     3    59    62    1
     4    59    60    1
     5    62    63    1
     6    60    61    2
     7    69    66    1
     8    69    70    1
     9    65    66    1
    10    66    67    1
    11    70    71    1
    12    71    72    1
    13    75    73    1
    14    67    68    2
    15    67    76   am
    16    72    73    2
    17    73    74    1
    18    76    77    1
    19    77    78    1
    20    77    80    1
    21    98    97    2
    22    87    88    1
    23    47    49   ar
    24    47    45   ar
    25    49    48   ar
    26    78    79    2
    27    80    81    1
    28    97    96    1
    29    97    99   am
    30   100    99    1
    31   100   101    1
    32   100   103    1
    33    96    95    1
    34    88    91    1
    35    88    89    1
    36   101   102    2
    37    45    44   ar
    38    45    43   ar
    39    44    42   ar
    40   103   104    1
    41    91    92    1
    42    48    46   ar
    43    57    55    1
    44    81    82    1
    45    43    46   ar
    46    43    41   ar
    47    89    90    2
    48    92    94   ar
    49    92    93   ar
    50    42    41   ar
    51    86    84    1
    52    82    83    1
    53    55    54    1
    54    55    56    1
    55    41    40    1
    56    54    51    1
    57    84    83    2
    58    84    85    1
    59    53    52    2
    60    52    51    1
    61    51    50    1
    62    40    37    1
    63    23    22    1
    64   110   111    1
    65   110   109    1
    66   119   117    1
    67    39    38    2
    68    37    38    1
    69    37    36    1
    70   111   105    1
    71   117   116    1
    72    28    27    2
    73    36    27   am
    74    22    24    1
    75    22    19    1
    76   109   106    1
    77    21    20    2
    78    27    26    1
    79     9     7   am
    80   105   106    1
    81    30    29    1
    82    30    31    1
    83    19    20    1
    84    19    18    1
    85   118   116    1
    86    29    26    1
    87   116   113    1
    88   106   107    1
    89    26    25    1
    90   112   113    1
    91   112   107   am
    92     7     6    1
    93     7     8    2
    94     6     5    1
    95    16    15    1
    96   113   114    1
    97    31    32    1
    98    18    12   am
    99   107   108    2
   100    32    33    2
   101    13    12    2
   102    12    11    1
   103    15    17    1
   104    15    14    1
   105     5     2    1
   106    33    34    1
   107    33    35    1
   108     4     3    2
   109   114   115    2
   110     3     2    1
   111     2     1    1
   112    14    11    1
   113    11    10    1
