@<TRIPOS>MOLECULE
tmp/2wseF32.pdb
 149 148 0 0 0
SMALL
GASTEIGER

@<TRIPOS>ATOM
      1  N         -5.9510  -27.9570   58.7610 N.3    20  ILE20      -0.1231
      2  CA        -6.5410  -27.2420   57.6190 C.3    20  ILE20       0.1692
      3  C         -5.4940  -26.3190   56.9750 C.2    20  ILE20       0.2592
      4  O         -5.0070  -26.6120   55.8690 O.2    20  ILE20      -0.2718
      5  CB        -7.8890  -26.4820   57.9770 C.3    20  ILE20       0.0266
      6  CG1       -8.9600  -27.4590   58.4310 C.3    20  ILE20       0.0019
      7  CG2       -8.4620  -25.7700   56.8010 C.3    20  ILE20       0.0020
      8  CD1       -8.7480  -27.9930   59.8090 C.3    20  ILE20       0.0001
      9  N         -5.1460  -25.2290   57.6710 N.am   21  TRP21      -0.1976
     10  CA        -4.3390  -24.1360   57.0870 C.3    21  TRP21       0.1640
     11  C         -3.1670  -24.7340   56.3620 C.2    21  TRP21       0.2290
     12  O         -3.0580  -24.6720   55.1440 O.2    21  TRP21      -0.2864
     13  CB        -3.7860  -23.1930   58.1500 C.3    21  TRP21       0.0576
     14  CG        -4.7990  -22.5930   59.0290 C.ar   21  TRP21       0.0006
     15  CD1       -5.0480  -22.9130   60.3390 C.ar   21  TRP21       0.0946
     16  CD2       -5.6990  -21.5560   58.6910 C.ar   21  TRP21       0.0152
     17  NE1       -6.0560  -22.1230   60.8250 N.ar   21  TRP21      -0.2442
     18  CE2       -6.4730  -21.2740   59.8280 C.ar   21  TRP21       0.0810
     19  CE3       -5.9340  -20.8310   57.5330 C.ar   21  TRP21       0.0012
     20  CZ2       -7.4700  -20.2740   59.8370 C.ar   21  TRP21       0.0191
     21  CZ3       -6.9470  -19.8430   57.5340 C.ar   21  TRP21       0.0001
     22  CH2       -7.6940  -19.5810   58.6710 C.ar   21  TRP21       0.0015
     23  N         -3.7430  -26.1970   53.2200 N.3    24  ILE24      -0.1245
     24  CA        -3.8920  -25.1950   52.1570 C.3    24  ILE24       0.1561
     25  C         -2.7190  -24.2410   52.1560 C.2    24  ILE24       0.2260
     26  O         -2.8820  -23.0440   52.4510 O.2    24  ILE24      -0.2867
     27  CB        -5.2780  -24.4740   52.1910 C.3    24  ILE24       0.0252
     28  CG1       -5.8490  -24.3920   53.6030 C.3    24  ILE24       0.0019
     29  CG2       -6.2700  -25.2700   51.3930 C.3    24  ILE24       0.0019
     30  CD1       -5.7490  -23.0370   54.2260 C.3    24  ILE24       0.0001
     31  N         -1.2680   -7.3430   64.6570 N.3   661  MET661     -0.1230
     32  CA        -1.5770   -8.4870   65.5270 C.3   661  MET661      0.1702
     33  C         -0.5430   -9.5480   65.1790 C.2   661  MET661      0.2592
     34  O          0.5870   -9.5880   65.7160 O.2   661  MET661     -0.2718
     35  CB        -2.9870   -9.0230   65.2000 C.3   661  MET661      0.0401
     36  CG        -3.7790   -9.7260   66.3090 C.3   661  MET661      0.0596
     37  SD        -5.4170   -8.9260   66.4180 S.3   661  MET661     -0.1393
     38  CE        -6.3260  -10.0340   67.4710 C.3   661  MET661      0.0692
     39  N         -0.9210  -10.4000   64.2370 N.am  662  PHE662     -0.1962
     40  CA         0.0760  -11.0980   63.4660 C.3   662  PHE662      0.1771
     41  C          1.1570  -10.0330   63.3430 C.2   662  PHE662      0.2619
     42  O          0.9150   -8.9880   62.7490 O.2   662  PHE662     -0.2715
     43  CB        -0.5610  -11.4670   62.1240 C.3   662  PHE662      0.0574
     44  CG        -1.9650  -12.0330   62.2610 C.ar  662  PHE662     -0.0200
     45  CD1       -2.1720  -13.3170   62.8040 C.ar  662  PHE662     -0.0042
     46  CD2       -3.0740  -11.2810   61.9040 C.ar  662  PHE662     -0.0042
     47  CE1       -3.4580  -13.8570   62.9630 C.ar  662  PHE662     -0.0003
     48  CE2       -4.3770  -11.8150   62.0650 C.ar  662  PHE662     -0.0003
     49  CZ        -4.5580  -13.1220   62.6030 C.ar  662  PHE662     -0.0000
     50  N          2.2980  -10.2280   64.0000 N.am  663  LEU663     -0.1977
     51  CA         3.3970   -9.2430   63.8970 C.3   663  LEU663      0.1596
     52  C          3.8530   -8.6790   65.2290 C.2   663  LEU663      0.2287
     53  O          5.0560   -8.4720   65.3980 O.2   663  LEU663     -0.2864
     54  CB         3.0610   -8.0830   62.9270 C.3   663  LEU663      0.0297
     55  CG         3.5820   -7.9140   61.4810 C.3   663  LEU663      0.0022
     56  CD1        4.1220   -9.2150   60.8090 C.3   663  LEU663      0.0001
     57  CD2        2.4870   -7.2670   60.6200 C.3   663  LEU663      0.0001
     58  N          2.1350  -10.1620   68.0150 N.3   665  SER665     -0.1202
     59  CA         1.3860  -11.0240   68.8800 C.3   665  SER665      0.2020
     60  C          2.0490  -12.3850   69.2050 C.2   665  SER665      0.2619
     61  O          2.2310  -12.7290   70.3780 O.2   665  SER665     -0.2717
     62  CB        -0.0880  -11.0580   68.4580 C.3   665  SER665      0.2103
     63  OG        -0.5910   -9.7300   68.5470 O.3   665  SER665     -0.2182
     64  N          2.4450  -13.1650   68.2230 N.am  666  TRP666     -0.1961
     65  CA         3.3150  -14.2830   68.5810 C.3   666  TRP666      0.1771
     66  C          2.5950  -15.4380   69.3140 C.2   666  TRP666      0.2619
     67  O          2.4970  -15.4020   70.5250 O.2   666  TRP666     -0.2715
     68  CB         4.4510  -13.7040   69.4570 C.3   666  TRP666      0.0590
     69  CG         5.6760  -13.3570   68.7120 C.ar  666  TRP666      0.0006
     70  CD1        6.8990  -13.9220   68.8660 C.ar  666  TRP666      0.0946
     71  CD2        5.8130  -12.3970   67.6590 C.ar  666  TRP666      0.0152
     72  NE1        7.8080  -13.3570   67.9970 N.ar  666  TRP666     -0.2442
     73  CE2        7.1530  -12.4310   67.2340 C.ar  666  TRP666      0.0810
     74  CE3        4.9310  -11.5200   67.0250 C.ar  666  TRP666      0.0012
     75  CZ2        7.6280  -11.6230   66.2170 C.ar  666  TRP666      0.0191
     76  CZ3        5.4140  -10.7360   66.0020 C.ar  666  TRP666      0.0001
     77  CH2        6.7320  -10.7820   65.6160 C.ar  666  TRP666      0.0015
     78  N          2.1560  -16.4670   68.5800 N.am  667  ARG667     -0.1977
     79  CA         1.2380  -17.5460   69.0630 C.3   667  ARG667      0.1597
     80  C          0.9770  -17.7750   70.6070 C.2   667  ARG667      0.2287
     81  O         -0.1540  -18.0720   71.0340 O.2   667  ARG667     -0.2864
     82  CB         1.6030  -18.8650   68.3520 C.3   667  ARG667      0.0334
     83  CG         0.5410  -19.9590   68.3400 C.3   667  ARG667      0.0492
     84  CD         1.2560  -21.3200   68.3150 C.3   667  ARG667      0.2205
     85  NE         0.4090  -22.5170   68.5610 N.pl3 667  ARG667     -0.0865
     86  CZ         0.1210  -23.0520   69.7570 C.cat 667  ARG667      0.5346
     87  NH1        0.5960  -22.5110   70.8810 N.pl3 667  ARG667      0.1354
     88  NH2       -0.6440  -24.1440   69.8350 N.pl3 667  ARG667      0.1354
     89  N         -2.0990  -16.1840   72.3150 N.3   670  TRP670     -0.1241
     90  CA        -3.3690  -16.4390   71.6700 C.3   670  TRP670      0.1605
     91  C         -3.9180  -17.8070   72.0530 C.2   670  TRP670      0.2264
     92  O         -5.0500  -17.9490   72.4980 O.2   670  TRP670     -0.2867
     93  CB        -3.2010  -16.2220   70.1530 C.3   670  TRP670      0.0550
     94  CG        -3.1460  -14.7520   69.8920 C.ar  670  TRP670      0.0003
     95  CD1       -2.0450  -13.9940   69.5520 C.ar  670  TRP670      0.0946
     96  CD2       -4.2400  -13.8400   70.0560 C.ar  670  TRP670      0.0152
     97  NE1       -2.4060  -12.6670   69.4800 N.ar  670  TRP670     -0.2442
     98  CE2       -3.7530  -12.5520   69.7850 C.ar  670  TRP670      0.0810
     99  CE3       -5.5860  -13.9890   70.4200 C.ar  670  TRP670      0.0012
    100  CZ2       -4.5720  -11.4270   69.8560 C.ar  670  TRP670      0.0191
    101  CZ3       -6.3880  -12.8850   70.4720 C.ar  670  TRP670      0.0001
    102  CH2       -5.8870  -11.6230   70.1930 C.ar  670  TRP670      0.0015
    103  N         -7.2400  -19.3000   74.4460 N.3   674  ILE674     -0.1245
    104  CA        -8.1100  -20.2490   73.7170 C.3   674  ILE674      0.1561
    105  C         -8.2140  -21.5630   74.5010 C.2   674  ILE674      0.2260
    106  O         -9.1910  -22.3040   74.3620 O.2   674  ILE674     -0.2867
    107  CB        -7.6470  -20.4150   72.2250 C.3   674  ILE674      0.0252
    108  CG1       -7.9190  -19.0960   71.4700 C.3   674  ILE674      0.0019
    109  CG2       -8.3120  -21.6280   71.5180 C.3   674  ILE674      0.0019
    110  CD1       -7.7500  -19.1700   69.9420 C.3   674  ILE674      0.0001
    111  N         -6.8500  -24.2120   68.0550 N.3   697  VAL697     -0.1231
    112  CA        -5.4740  -23.7270   68.3440 C.3   697  VAL697      0.1692
    113  C         -5.1520  -22.3470   67.8150 C.2   697  VAL697      0.2592
    114  O         -5.9420  -21.7630   67.0700 O.2   697  VAL697     -0.2718
    115  CB        -4.3640  -24.6660   67.8290 C.3   697  VAL697      0.0266
    116  CG1       -4.3710  -25.9820   68.6050 C.3   697  VAL697      0.0020
    117  CG2       -4.4750  -24.8770   66.3180 C.3   697  VAL697      0.0020
    118  N         -3.9690  -21.8450   68.2050 N.am  698  ALA698     -0.1966
    119  CA        -3.4510  -20.5500   67.7320 C.3   698  ALA698      0.1728
    120  C         -2.2740  -20.6950   66.7610 C.2   698  ALA698      0.2616
    121  O         -1.4140  -21.5570   66.9210 O.2   698  ALA698     -0.2715
    122  CB        -3.0940  -19.6380   68.8710 C.3   698  ALA698      0.0334
    123  N         -2.2560  -19.8070   65.7660 N.am  699  LEU699     -0.1963
    124  CA        -1.4850  -19.9510   64.5140 C.3   699  LEU699      0.1728
    125  C         -0.0140  -20.2310   64.6800 C.2   699  LEU699      0.2617
    126  O          0.5910  -19.8830   65.6670 O.2   699  LEU699     -0.2715
    127  CB        -1.6730  -18.7450   63.5880 C.3   699  LEU699      0.0311
    128  CG        -3.1430  -18.4390   63.2710 C.3   699  LEU699      0.0022
    129  CD1       -3.3240  -18.1350   61.7940 C.3   699  LEU699      0.0001
    130  CD2       -4.0440  -19.6110   63.7250 C.3   699  LEU699      0.0001
    131  N          0.5390  -20.8830   63.6770 N.am  700  SER700     -0.1936
    132  CA         1.8380  -21.4830   63.7840 C.3   700  SER700      0.2055
    133  C          2.7740  -20.3390   63.8330 C.2   700  SER700      0.2642
    134  O          2.4140  -19.2020   63.5290 O.2   700  SER700     -0.2714
    135  CB         2.1390  -22.3860   62.5890 C.3   700  SER700      0.2130
    136  OG         3.5380  -22.4390   62.3470 O.3   700  SER700     -0.2179
    137  N          3.9960  -20.6650   64.2060 N.am  701  ILE701     -0.1977
    138  CA         4.9160  -19.6800   64.7030 C.3   701  ILE701      0.1596
    139  C          5.7060  -19.1110   63.5330 C.2   701  ILE701      0.2287
    140  O          6.4110  -18.1440   63.6810 O.2   701  ILE701     -0.2864
    141  CB         5.7260  -20.3270   65.8950 C.3   701  ILE701      0.0276
    142  CG1        6.2680  -19.2750   66.8870 C.3   701  ILE701      0.0022
    143  CG2        6.6590  -21.5040   65.4230 C.3   701  ILE701      0.0022
    144  CD1        7.5860  -18.5670   66.4920 C.3   701  ILE701      0.0001
    145  N          2.1140  -16.8330   61.1620 N.3   704  ALA704     -0.1245
    146  CA         1.5760  -15.4930   61.4500 C.3   704  ALA704      0.1562
    147  C          2.5440  -14.3740   61.0540 C.2   704  ALA704      0.2260
    148  O          2.1150  -13.2380   60.8210 O.2   704  ALA704     -0.2867
    149  CB         1.1250  -15.3750   62.8800 C.3   704  ALA704      0.0290
@<TRIPOS>BOND
     1    29    27    1
     2    25    24    1
     3    25    26    2
     4    24    27    1
     5    24    23    1
     6    27    28    1
     7    28    30    1
     8    12    11    2
     9     4     3    2
    10    11    10    1
    11     7     5    1
    12     3     2    1
    13     3     9   am
    14    10     9    1
    15    10    13    1
    16    19    21   ar
    17    19    16   ar
    18    21    22   ar
    19     2     5    1
    20     2     1    1
    21     5     6    1
    22    13    14    1
    23     6     8    1
    24    22    20   ar
    25    16    14   ar
    26    16    18   ar
    27    14    15   ar
    28    18    20   ar
    29    18    17   ar
    30    15    17   ar
    31    57    55    1
    32    56    55    1
    33   148   147    2
    34   147   146    1
    35   145   146    1
    36   146   149    1
    37    55    54    1
    38   129   128    1
    39    46    48   ar
    40    46    44   ar
    41    48    49   ar
    42    43    44    1
    43    43    40    1
    44    44    45   ar
    45   136   135    1
    46   135   132    1
    47    49    47   ar
    48    42    41    2
    49    45    47   ar
    50    54    51    1
    51   128   127    1
    52   128   130    1
    53    41    40    1
    54    41    50   am
    55    40    39    1
    56   134   133    2
    57   139   140    2
    58   139   138    1
    59   127   124    1
    60   131   132    1
    61   131   125   am
    62   132   133    1
    63   133   137   am
    64    51    50    1
    65    51    52    1
    66   137   138    1
    67    39    33   am
    68   124   125    1
    69   124   123    1
    70    31    32    1
    71   125   126    2
    72   138   141    1
    73    33    32    1
    74    33    34    2
    75    35    32    1
    76    35    36    1
    77    52    53    2
    78   143   141    1
    79    77    76   ar
    80    77    75   ar
    81   123   120   am
    82   141   142    1
    83    76    74   ar
    84    75    73   ar
    85    36    37    1
    86   117   115    1
    87    37    38    1
    88   144   142    1
    89   120   121    2
    90   120   119    1
    91    74    71   ar
    92   114   113    2
    93    73    71   ar
    94    73    72   ar
    95    71    69   ar
    96   119   118    1
    97   119   122    1
    98   113   118   am
    99   113   112    1
   100   115   112    1
   101   115   116    1
   102    72    70   ar
   103    58    59    1
   104   111   112    1
   105    64    65    1
   106    64    60   am
   107    84    83    1
   108    84    85    1
   109    83    82    1
   110    82    79    1
   111    62    63    1
   112    62    59    1
   113    85    86    2
   114    78    79    1
   115    78    66   am
   116    65    66    1
   117    65    68    1
   118    69    70   ar
   119    69    68    1
   120    59    60    1
   121    79    80    1
   122    60    61    2
   123    66    67    2
   124    97    95   ar
   125    97    98   ar
   126    95    94   ar
   127    86    88    1
   128    86    87    1
   129    98   100   ar
   130    98    96   ar
   131   100   102   ar
   132    94    96   ar
   133    94    93    1
   134   110   108    1
   135    96    99   ar
   136    93    90    1
   137   102   101   ar
   138    99   101   ar
   139    80    81    2
   140   108   107    1
   141   109   107    1
   142    90    91    1
   143    90    89    1
   144    91    92    2
   145   107   104    1
   146   104   103    1
   147   104   105    1
   148   106   105    2
