@<TRIPOS>MOLECULE
tmp/2wseF22.pdb
 101 98 0 0 0
SMALL
GASTEIGER

@<TRIPOS>ATOM
      1  N         22.3810    7.3420   56.6300 N.3   430  PHE430     -0.1227
      2  CA        22.4230    8.6510   57.3040 C.3   430  PHE430      0.1736
      3  C         22.7400    9.8410   56.3990 C.2   430  PHE430      0.2595
      4  O         22.5310   10.9920   56.7760 O.2   430  PHE430     -0.2718
      5  CB        23.4700    8.6790   58.4090 C.3   430  PHE430      0.0547
      6  CG        23.8000    7.3470   59.0050 C.ar  430  PHE430     -0.0202
      7  CD1       22.8740    6.6380   59.7320 C.ar  430  PHE430     -0.0042
      8  CD2       25.0920    6.8520   58.9270 C.ar  430  PHE430     -0.0042
      9  CE1       23.2510    5.4430   60.3320 C.ar  430  PHE430     -0.0003
     10  CE2       25.4540    5.6750   59.5260 C.ar  430  PHE430     -0.0003
     11  CZ        24.5410    4.9690   60.2140 C.ar  430  PHE430     -0.0000
     12  N         23.2800    9.5670   55.2180 N.am  431  HIS431     -0.1975
     13  CA        23.7060   10.6370   54.3330 C.3   431  HIS431      0.1656
     14  C         22.5350   11.1520   53.5170 C.2   431  HIS431      0.2291
     15  O         22.4540   12.3440   53.2820 O.2   431  HIS431     -0.2864
     16  CB        24.9130   10.2160   53.4800 C.3   431  HIS431      0.0771
     17  CG        26.2280   10.2170   54.2220 C.ar  431  HIS431      0.0820
     18  ND1       26.8120   11.3810   54.6960 N.ar  431  HIS431     -0.2267
     19  CD2       27.0870    9.2070   54.5460 C.ar  431  HIS431      0.1154
     20  CE1       27.9700   11.0920   55.2740 C.ar  431  HIS431      0.1986
     21  NE2       28.1600    9.7800   55.1990 N.ar  431  HIS431     -0.2212
     22  N         19.4480   10.8620   54.8670 N.3   433  LEU433     -0.1231
     23  CA        18.7770   11.4600   56.0600 C.3   433  LEU433      0.1693
     24  C         19.4220   12.7150   56.7060 C.2   433  LEU433      0.2593
     25  O         18.7650   13.3940   57.4660 O.2   433  LEU433     -0.2718
     26  CB        18.5210   10.3810   57.1420 C.3   433  LEU433      0.0284
     27  CG        17.6250   10.5480   58.3760 C.3   433  LEU433      0.0019
     28  CD1       16.3940   11.2990   58.0460 C.3   433  LEU433      0.0001
     29  CD2       17.1850    9.2100   58.7910 C.3   433  LEU433      0.0001
     30  N         20.6810   13.0400   56.4420 N.am  434  GLY434     -0.1942
     31  CA        21.1390   14.3520   56.8400 C.3   434  GLY434      0.2014
     32  C         20.3840   15.2750   55.9040 C.2   434  GLY434      0.2638
     33  O         19.6510   16.1980   56.3220 O.2   434  GLY434     -0.2714
     34  N         20.5320   14.9790   54.6190 N.am  435  LEU435     -0.1977
     35  CA        19.9400   15.7810   53.5620 C.3   435  LEU435      0.1596
     36  C         18.4720   15.3940   53.4480 C.2   435  LEU435      0.2287
     37  O         18.1570   14.4150   52.7620 O.2   435  LEU435     -0.2864
     38  CB        20.6720   15.5070   52.2370 C.3   435  LEU435      0.0297
     39  CG        22.1520   15.9270   52.0590 C.3   435  LEU435      0.0022
     40  CD1       23.0090   15.7930   53.3530 C.3   435  LEU435      0.0001
     41  CD2       22.7860   15.1750   50.8810 C.3   435  LEU435      0.0001
     42  N         16.3240   16.0580   56.5700 N.3   437  VAL437     -0.1231
     43  CA        15.9050   16.7030   57.7960 C.3   437  VAL437      0.1692
     44  C         16.4770   18.0830   57.6590 C.2   437  VAL437      0.2592
     45  O         15.7070   19.0170   57.6120 O.2   437  VAL437     -0.2718
     46  CB        16.2270   15.9190   59.1300 C.3   437  VAL437      0.0266
     47  CG1       16.2120   14.4080   58.8990 C.3   437  VAL437      0.0020
     48  CG2       17.4930   16.3650   59.8050 C.3   437  VAL437      0.0020
     49  N         17.8090   18.1950   57.4670 N.am  438  HIS438     -0.1976
     50  CA        18.5130   19.4910   57.3190 C.3   438  HIS438      0.1656
     51  C         17.6890   20.4310   56.4270 C.2   438  HIS438      0.2291
     52  O         17.3910   21.5680   56.7700 O.2   438  HIS438     -0.2864
     53  CB        19.9470   19.2730   56.7890 C.3   438  HIS438      0.0771
     54  CG        20.6640   20.5520   56.4300 C.ar  438  HIS438      0.0820
     55  ND1       21.9060   20.9030   56.9530 N.ar  438  HIS438     -0.2267
     56  CD2       20.3070   21.5700   55.5960 C.ar  438  HIS438      0.1154
     57  CE1       22.2770   22.0780   56.4500 C.ar  438  HIS438      0.1986
     58  NE2       21.3260   22.5020   55.6260 N.ar  438  HIS438     -0.2212
     59  N         14.7990   21.1200   58.6770 N.3   441  VAL441     -0.1231
     60  CA        15.0660   21.9820   59.8100 C.3   441  VAL441      0.1692
     61  C         15.2130   23.4090   59.3140 C.2   441  VAL441      0.2591
     62  O         14.8230   24.3530   60.0130 O.2   441  VAL441     -0.2718
     63  CB        16.3890   21.6810   60.5200 C.3   441  VAL441      0.0266
     64  CG1       16.2340   22.0440   61.9890 C.3   441  VAL441      0.0020
     65  CG2       16.8260   20.2430   60.3650 C.3   441  VAL441      0.0020
     66  N         15.7870   23.5760   58.1170 N.am  442  MET442     -0.1979
     67  CA        16.0310   24.9170   57.5890 C.3   442  MET442      0.1605
     68  C         14.7620   25.6900   57.1630 C.2   442  MET442      0.2287
     69  O         14.5890   26.8570   57.5770 O.2   442  MET442     -0.2864
     70  CB        17.1210   24.9210   56.5380 C.3   442  MET442      0.0413
     71  CG        18.3640   25.6470   57.0200 C.3   442  MET442      0.0598
     72  SD        19.8870   24.6770   56.8710 S.3   442  MET442     -0.1393
     73  CE        19.8140   23.7750   58.4220 C.3   442  MET442      0.0692
     74  N         12.2950   26.8030   60.1850 N.3   445  PHE445     -0.1241
     75  CA        13.1890   27.8080   60.7820 C.3   445  PHE445      0.1605
     76  C         13.2160   29.2080   60.1170 C.2   445  PHE445      0.2264
     77  O         13.8390   30.1510   60.6290 O.2   445  PHE445     -0.2867
     78  CB        14.5970   27.2370   60.9210 C.3   445  PHE445      0.0534
     79  CG        14.9080   26.7800   62.3010 C.ar  445  PHE445     -0.0203
     80  CD1       13.8800   26.5850   63.2210 C.ar  445  PHE445     -0.0042
     81  CD2       16.2290   26.5010   62.6780 C.ar  445  PHE445     -0.0042
     82  CE1       14.1640   26.1400   64.5080 C.ar  445  PHE445     -0.0003
     83  CE2       16.5210   26.0680   63.9420 C.ar  445  PHE445     -0.0003
     84  CZ        15.4770   25.8920   64.8780 C.ar  445  PHE445     -0.0000
     85  N         20.1170   28.4810   52.8600 N.3   450  LYS450     -0.1245
     86  CA        20.7350   27.5200   53.7880 C.3   450  LYS450      0.1561
     87  C         20.3670   26.0600   53.5060 C.2   450  LYS450      0.2260
     88  O         21.1740   25.1600   53.7180 O.2   450  LYS450     -0.2867
     89  CB        20.4270   27.8670   55.2370 C.3   450  LYS450      0.0271
     90  CG        21.3490   28.9430   55.8470 C.3   450  LYS450      0.0035
     91  CD        21.8850   28.6050   57.2480 C.3   450  LYS450      0.0206
     92  CE        20.7770   28.2670   58.2710 C.3   450  LYS450      0.1093
     93  NZ        21.2600   27.6090   59.5600 N.3   450  LYS450     -0.1314
     94  N         20.3540   22.6710   52.0730 N.3   452  ILE452     -0.1245
     95  CA        21.3450   21.8480   51.2980 C.3   452  ILE452      0.1561
     96  C         20.7040   21.1320   50.0890 C.2   452  ILE452      0.2260
     97  O         19.7210   20.4090   50.2310 O.2   452  ILE452     -0.2867
     98  CB        22.2090   20.8530   52.2080 C.3   452  ILE452      0.0252
     99  CG1       23.2440   20.0360   51.3820 C.3   452  ILE452      0.0019
    100  CG2       21.3220   19.9220   53.0030 C.3   452  ILE452      0.0019
    101  CD1       24.7100   20.6220   51.3760 C.3   452  ILE452      0.0001
@<TRIPOS>BOND
     1    96    97    2
     2    96    95    1
     3    41    39    1
     4    95    94    1
     5    95    98    1
     6   101    99    1
     7    99    98    1
     8    39    38    1
     9    39    40    1
    10    98   100    1
    11    38    35    1
    12    37    36    2
    13    85    86    1
    14    15    14    2
    15    36    35    1
    16    16    17    1
    17    16    13    1
    18    87    88    2
    19    87    86    1
    20    14    13    1
    21    35    34    1
    22    86    89    1
    23    17    19   ar
    24    17    18   ar
    25    13    12    1
    26    19    21   ar
    27    34    32   am
    28    18    20   ar
    29    22    23    1
    30    21    20   ar
    31    12     3   am
    32    89    90    1
    33    56    58   ar
    34    56    54   ar
    35    58    57   ar
    36    90    91    1
    37    32    33    2
    38    32    31    1
    39    23    24    1
    40    23    26    1
    41     3     4    2
    42     3     2    1
    43    51    52    2
    44    51    50    1
    45    54    53    1
    46    54    55   ar
    47    30    24   am
    48    30    31    1
    49    57    55   ar
    50    70    71    1
    51    70    67    1
    52    42    43    1
    53     1     2    1
    54    24    25    2
    55    53    50    1
    56    72    71    1
    57    72    73    1
    58    26    27    1
    59    68    69    2
    60    68    67    1
    61    91    92    1
    62     2     5    1
    63    50    49    1
    64    49    44   am
    65    67    66    1
    66    45    44    2
    67    44    43    1
    68    43    46    1
    69    28    27    1
    70    66    61   am
    71    92    93    1
    72    27    29    1
    73     5     6    1
    74    59    60    1
    75    47    46    1
    76     8     6   ar
    77     8    10   ar
    78     6     7   ar
    79    46    48    1
    80    61    60    1
    81    61    62    2
    82    10    11   ar
    83     7     9   ar
    84    60    63    1
    85    76    77    2
    86    76    75    1
    87    74    75    1
    88    11     9   ar
    89    65    63    1
    90    63    64    1
    91    75    78    1
    92    78    79    1
    93    79    81   ar
    94    79    80   ar
    95    81    83   ar
    96    80    82   ar
    97    83    84   ar
    98    82    84   ar
