@<TRIPOS>MOLECULE
tmp/2wseF52.pdb
 120 115 0 0 0
SMALL
GASTEIGER

@<TRIPOS>ATOM
      1  N          1.4970  -26.7920   47.0520 N.3    28  HIS28      -0.1241
      2  CA         2.3740  -26.5630   45.9020 C.3    28  HIS28       0.1621
      3  C          3.8810  -26.9370   46.1040 C.2    28  HIS28       0.2264
      4  O          4.7180  -26.8330   45.1820 O.2    28  HIS28      -0.2867
      5  CB         2.1480  -25.1430   45.3200 C.3    28  HIS28       0.0745
      6  CG         0.7080  -24.8610   44.9730 C.ar   28  HIS28       0.0817
      7  ND1        0.0780  -23.6710   45.2900 N.ar   28  HIS28      -0.2268
      8  CD2       -0.2320  -25.6330   44.3570 C.ar   28  HIS28       0.1154
      9  CE1       -1.1820  -23.7150   44.8690 C.ar   28  HIS28       0.1986
     10  NE2       -1.3970  -24.8910   44.2950 N.ar   28  HIS28      -0.2212
     11  N         -1.4080  -24.1030   34.1840 N.3    52  GLN52      -0.1245
     12  CA        -1.1300  -22.7510   33.7210 C.3    52  GLN52       0.1566
     13  C         -1.2270  -22.5480   32.1940 C.2    52  GLN52       0.2260
     14  O         -1.6530  -23.4540   31.4690 O.2    52  GLN52      -0.2867
     15  CB         0.1230  -22.1210   34.3480 C.3    52  GLN52       0.0367
     16  CG        -0.2700  -21.1750   35.4270 C.3    52  GLN52       0.0905
     17  CD        -1.7740  -21.0470   35.4500 C.2    52  GLN52       0.2608
     18  OE1       -2.3880  -20.4660   34.5520 O.2    52  GLN52      -0.2717
     19  NE2       -2.3940  -21.6490   36.4580 N.am   52  GLN52      -0.0878
     20  N         -5.3100  -20.8410   32.8260 N.3    55  ILE55      -0.1231
     21  CA        -6.0750  -19.8940   33.6350 C.3    55  ILE55       0.1692
     22  C         -5.8170  -18.4820   33.1620 C.2    55  ILE55       0.2591
     23  O         -6.5190  -17.5640   33.5450 O.2    55  ILE55      -0.2718
     24  CB        -5.6640  -19.9920   35.1380 C.3    55  ILE55       0.0266
     25  CG1       -5.6590  -21.4770   35.6620 C.3    55  ILE55       0.0019
     26  CG2       -6.4820  -19.0170   35.9970 C.3    55  ILE55       0.0020
     27  CD1       -6.9760  -22.3370   35.5040 C.3    55  ILE55       0.0001
     28  N         -4.7880  -18.3020   32.3360 N.am   56  ILE56      -0.1980
     29  CA        -4.4390  -16.9590   31.8010 C.3    56  ILE56       0.1595
     30  C         -5.3390  -16.5760   30.6310 C.2    56  ILE56       0.2287
     31  O         -5.4640  -15.3840   30.3120 O.2    56  ILE56      -0.2864
     32  CB        -2.9050  -16.8110   31.4640 C.3    56  ILE56       0.0276
     33  CG1       -2.2040  -16.0480   32.5710 C.3    56  ILE56       0.0022
     34  CG2       -2.6850  -15.9700   30.2470 C.3    56  ILE56       0.0022
     35  CD1       -0.7850  -16.3960   32.7050 C.3    56  ILE56       0.0001
     36  N         -8.9430  -15.5090   31.8270 N.3    59  TRP59      -0.1241
     37  CA        -8.7860  -14.1530   32.3060 C.3    59  TRP59       0.1605
     38  C         -9.0020  -13.2640   31.0980 C.2    59  TRP59       0.2264
     39  O        -10.0220  -12.5620   31.0210 O.2    59  TRP59      -0.2867
     40  CB        -7.3660  -14.0300   32.8420 C.3    59  TRP59       0.0550
     41  CG        -6.9880  -12.7620   33.4630 C.ar   59  TRP59       0.0003
     42  CD1       -7.5980  -12.1460   34.5000 C.ar   59  TRP59       0.0946
     43  CD2       -5.8120  -11.9930   33.1580 C.ar   59  TRP59       0.0152
     44  NE1       -6.8980  -11.0160   34.8430 N.ar   59  TRP59      -0.2442
     45  CE2       -5.7990  -10.8990   34.0250 C.ar   59  TRP59       0.0810
     46  CE3       -4.7780  -12.1180   32.2110 C.ar   59  TRP59       0.0012
     47  CZ2       -4.8120   -9.9240   33.9680 C.ar   59  TRP59       0.0191
     48  CZ3       -3.7900  -11.1550   32.1670 C.ar   59  TRP59       0.0001
     49  CH2       -3.8140  -10.0750   33.0360 C.ar   59  TRP59       0.0015
     50  N         13.1560  -16.2140   37.7940 N.3   337  LEU337     -0.1245
     51  CA        12.7270  -15.0170   38.5790 C.3   337  LEU337      0.1561
     52  C         13.9420  -14.0800   38.6770 C.2   337  LEU337      0.2260
     53  O         15.0570  -14.5390   38.9470 O.2   337  LEU337     -0.2867
     54  CB        12.2460  -15.4250   39.9910 C.3   337  LEU337      0.0270
     55  CG        10.9300  -16.1400   40.4220 C.3   337  LEU337      0.0019
     56  CD1       11.2230  -17.0050   41.5850 C.3   337  LEU337      0.0001
     57  CD2        9.8290  -15.1860   40.8130 C.3   337  LEU337      0.0001
     58  N         13.2620  -11.7570   34.6010 N.3   340  LEU340     -0.1245
     59  CA        11.8610  -11.3410   34.6250 C.3   340  LEU340      0.1561
     60  C         11.7670  -10.1670   35.5810 C.2   340  LEU340      0.2260
     61  O         11.2490   -9.1340   35.2460 O.2   340  LEU340     -0.2867
     62  CB        10.9280  -12.5130   35.0240 C.3   340  LEU340      0.0270
     63  CG         9.6030  -12.7380   34.2430 C.3   340  LEU340      0.0019
     64  CD1        9.8010  -12.9110   32.7340 C.3   340  LEU340      0.0001
     65  CD2        8.8330  -13.9280   34.7730 C.3   340  LEU340      0.0001
     66  N          4.5980   -6.4090   41.9460 N.3   377  ILE377     -0.1245
     67  CA         5.1920   -7.4250   41.0580 C.3   377  ILE377      0.1561
     68  C          6.6220   -6.8790   40.8390 C.2   377  ILE377      0.2260
     69  O          6.9650   -5.9110   41.5000 O.2   377  ILE377     -0.2867
     70  CB         4.4650   -7.5340   39.7400 C.3   377  ILE377      0.0252
     71  CG1        2.9590   -7.7200   39.9730 C.3   377  ILE377      0.0019
     72  CG2        4.9960   -8.7250   38.9990 C.3   377  ILE377      0.0019
     73  CD1        2.1230   -7.2700   38.8150 C.3   377  ILE377      0.0001
     74  N          7.9400   -7.3150   43.7950 N.3   380  PHE380     -0.1227
     75  CA         7.3700   -8.5850   44.3130 C.3   380  PHE380      0.1736
     76  C          8.1000   -9.8410   43.8190 C.2   380  PHE380      0.2595
     77  O          8.0830  -10.8610   44.5010 O.2   380  PHE380     -0.2718
     78  CB         5.8580   -8.7130   44.0310 C.3   380  PHE380      0.0547
     79  CG         4.9630   -8.1890   45.1270 C.ar  380  PHE380     -0.0202
     80  CD1        4.4600   -6.8830   45.0850 C.ar  380  PHE380     -0.0042
     81  CD2        4.6030   -9.0080   46.2040 C.ar  380  PHE380     -0.0042
     82  CE1        3.6190   -6.4070   46.1170 C.ar  380  PHE380     -0.0003
     83  CE2        3.7730   -8.5430   47.2270 C.ar  380  PHE380     -0.0003
     84  CZ         3.2740   -7.2550   47.1780 C.ar  380  PHE380     -0.0000
     85  N          8.7370   -9.7590   42.6490 N.am  381  ILE381     -0.1980
     86  CA         9.5070  -10.8830   42.1060 C.3   381  ILE381      0.1595
     87  C         10.8710  -10.9320   42.8450 C.2   381  ILE381      0.2287
     88  O         10.8880  -11.1960   44.0310 O.2   381  ILE381     -0.2864
     89  CB         9.5230  -10.8440   40.5330 C.3   381  ILE381      0.0276
     90  CG1        8.5610  -11.9010   39.9650 C.3   381  ILE381      0.0022
     91  CG2       10.8850  -11.1450   39.9510 C.3   381  ILE381      0.0022
     92  CD1        7.1440  -11.4350   39.7370 C.3   381  ILE381      0.0001
     93  N         14.3370  -18.3340   45.9910 N.3   388  HIS388     -0.1241
     94  CA        14.5120  -19.6910   45.5100 C.3   388  HIS388      0.1621
     95  C         15.9840  -20.0160   45.2350 C.2   388  HIS388      0.2264
     96  O         16.3590  -21.1790   45.0020 O.2   388  HIS388     -0.2867
     97  CB        13.6550  -19.9140   44.3130 C.3   388  HIS388      0.0745
     98  CG        12.1970  -19.8680   44.6230 C.ar  388  HIS388      0.0817
     99  ND1       11.5890  -18.7360   45.1280 N.ar  388  HIS388     -0.2268
    100  CD2       11.2180  -20.8060   44.5170 C.ar  388  HIS388      0.1154
    101  CE1       10.2960  -18.9770   45.3100 C.ar  388  HIS388      0.1986
    102  NE2       10.0440  -20.2230   44.9400 N.ar  388  HIS388     -0.2212
    103  N         13.7690  -13.5440   54.0660 N.3   575  PHE575     -0.1241
    104  CA        12.7800  -13.3490   53.0260 C.3   575  PHE575      0.1605
    105  C         11.5640  -12.6680   53.6620 C.2   575  PHE575      0.2264
    106  O         11.1370  -11.5950   53.2040 O.2   575  PHE575     -0.2867
    107  CB        12.3430  -14.6820   52.4350 C.3   575  PHE575      0.0534
    108  CG        11.0540  -14.5950   51.7040 C.ar  575  PHE575     -0.0203
    109  CD1        9.8370  -14.7950   52.3570 C.ar  575  PHE575     -0.0042
    110  CD2       11.0390  -14.2810   50.3510 C.ar  575  PHE575     -0.0042
    111  CE1        8.6280  -14.6930   51.6650 C.ar  575  PHE575     -0.0003
    112  CE2        9.8420  -14.1870   49.6510 C.ar  575  PHE575     -0.0003
    113  CZ         8.6370  -14.3930   50.3070 C.ar  575  PHE575     -0.0000
    114  N          0.9480  -10.5720   53.6980 N.3   710  VAL710     -0.1245
    115  CA        -0.1790  -11.2580   53.0580 C.3   710  VAL710      0.1561
    116  C         -1.4500  -10.6710   53.6240 C.2   710  VAL710      0.2260
    117  O         -2.5140  -11.2430   53.4580 O.2   710  VAL710     -0.2867
    118  CB        -0.1380  -12.7340   53.3970 C.3   710  VAL710      0.0252
    119  CG1       -1.4780  -13.3940   53.0760 C.3   710  VAL710      0.0019
    120  CG2        1.0740  -13.3860   52.7110 C.3   710  VAL710      0.0019
@<TRIPOS>BOND
     1    34    32    1
     2    31    30    2
     3    30    29    1
     4    39    38    2
     5    38    37    1
     6    32    29    1
     7    32    33    1
     8    14    13    2
     9    29    28    1
    10    36    37    1
    11    48    46   ar
    12    48    49   ar
    13    13    12    1
    14    46    43   ar
    15    37    40    1
    16    28    22   am
    17    33    35    1
    18    64    63    1
    19    20    21    1
    20    40    41    1
    21    49    47   ar
    22    43    41   ar
    23    43    45   ar
    24    22    23    2
    25    22    21    1
    26    41    42   ar
    27    21    24    1
    28    12    11    1
    29    12    15    1
    30    47    45   ar
    31    45    44   ar
    32    63    65    1
    33    63    62    1
    34    15    16    1
    35    42    44   ar
    36    18    17    2
    37    58    59    1
    38    59    62    1
    39    59    60    1
    40    24    25    1
    41    24    26    1
    42    61    60    2
    43    16    17    1
    44    17    19   am
    45    27    25    1
    46    50    51    1
    47    51    52    1
    48    51    54    1
    49    52    53    2
    50    73    71    1
    51    72    70    1
    52    92    90    1
    53    70    71    1
    54    70    67    1
    55    91    89    1
    56    90    89    1
    57    54    55    1
    58    55    57    1
    59    55    56    1
    60    89    86    1
    61    68    67    1
    62    68    69    2
    63    67    66    1
    64    86    85    1
    65    86    87    1
    66    85    76   am
    67    87    88    2
    68    74    75    1
    69    76    75    1
    70    76    77    2
    71    78    75    1
    72    78    79    1
    73    10     8   ar
    74    10     9   ar
    75    97    98    1
    76    97    94    1
    77     8     6   ar
    78   100    98   ar
    79   100   102   ar
    80    98    99   ar
    81     9     7   ar
    82   102   101   ar
    83     6     7   ar
    84     6     5    1
    85    96    95    2
    86    80    79   ar
    87    80    82   ar
    88    79    81   ar
    89    99   101   ar
    90     4     3    2
    91    95    94    1
    92     5     2    1
    93    94    93    1
    94     2     3    1
    95     2     1    1
    96    82    84   ar
    97    81    83   ar
    98    84    83   ar
    99   112   113   ar
   100   112   110   ar
   101   113   111   ar
   102   110   108   ar
   103   111   109   ar
   104   108   109   ar
   105   108   107    1
   106   107   104    1
   107   120   118    1
   108   104   105    1
   109   104   103    1
   110   115   118    1
   111   115   116    1
   112   115   114    1
   113   119   118    1
   114   106   105    2
   115   117   116    2
