@<TRIPOS>MOLECULE
tmp/2wseF29.pdb
 134 132 0 0 0
SMALL
GASTEIGER

@<TRIPOS>ATOM
      1  N         -6.6430  -27.6490   64.1310 N.3    17  THR17      -0.1218
      2  CA        -7.0550  -26.9660   62.9200 C.3    17  THR17       0.1862
      3  C         -5.8870  -26.8360   61.9250 C.2    17  THR17       0.2287
      4  O         -6.1070  -26.7680   60.7160 O.2    17  THR17      -0.2866
      5  CB        -7.5280  -25.5830   63.2540 C.3    17  THR17       0.1770
      6  OG1       -6.5860  -24.9920   64.1610 O.3    17  THR17      -0.2211
      7  CG2       -8.8700  -25.6700   63.9130 C.3    17  THR17       0.0375
      8  N         -5.9510  -27.9570   58.7610 N.3    20  ILE20      -0.1231
      9  CA        -6.5410  -27.2420   57.6190 C.3    20  ILE20       0.1692
     10  C         -5.4940  -26.3190   56.9750 C.2    20  ILE20       0.2592
     11  O         -5.0070  -26.6120   55.8690 O.2    20  ILE20      -0.2718
     12  CB        -7.8890  -26.4820   57.9770 C.3    20  ILE20       0.0266
     13  CG1       -8.9600  -27.4590   58.4310 C.3    20  ILE20       0.0019
     14  CG2       -8.4620  -25.7700   56.8010 C.3    20  ILE20       0.0020
     15  CD1       -8.7480  -27.9930   59.8090 C.3    20  ILE20       0.0001
     16  N         -5.1460  -25.2290   57.6710 N.am   21  TRP21      -0.1976
     17  CA        -4.3390  -24.1360   57.0870 C.3    21  TRP21       0.1640
     18  C         -3.1670  -24.7340   56.3620 C.2    21  TRP21       0.2290
     19  O         -3.0580  -24.6720   55.1440 O.2    21  TRP21      -0.2864
     20  CB        -3.7860  -23.1930   58.1500 C.3    21  TRP21       0.0576
     21  CG        -4.7990  -22.5930   59.0290 C.ar   21  TRP21       0.0006
     22  CD1       -5.0480  -22.9130   60.3390 C.ar   21  TRP21       0.0946
     23  CD2       -5.6990  -21.5560   58.6910 C.ar   21  TRP21       0.0152
     24  NE1       -6.0560  -22.1230   60.8250 N.ar   21  TRP21      -0.2442
     25  CE2       -6.4730  -21.2740   59.8280 C.ar   21  TRP21       0.0810
     26  CE3       -5.9340  -20.8310   57.5330 C.ar   21  TRP21       0.0012
     27  CZ2       -7.4700  -20.2740   59.8370 C.ar   21  TRP21       0.0191
     28  CZ3       -6.9470  -19.8430   57.5340 C.ar   21  TRP21       0.0001
     29  CH2       -7.6940  -19.5810   58.6710 C.ar   21  TRP21       0.0015
     30  N         -7.2400  -19.3000   74.4460 N.3   674  ILE674     -0.1245
     31  CA        -8.1100  -20.2490   73.7170 C.3   674  ILE674      0.1561
     32  C         -8.2140  -21.5630   74.5010 C.2   674  ILE674      0.2260
     33  O         -9.1910  -22.3040   74.3620 O.2   674  ILE674     -0.2867
     34  CB        -7.6470  -20.4150   72.2250 C.3   674  ILE674      0.0252
     35  CG1       -7.9190  -19.0960   71.4700 C.3   674  ILE674      0.0019
     36  CG2       -8.3120  -21.6280   71.5180 C.3   674  ILE674      0.0019
     37  CD1       -7.7500  -19.1700   69.9420 C.3   674  ILE674      0.0001
     38  N        -10.8300  -20.3110   76.6360 N.3   677  LEU677     -0.1231
     39  CA       -12.0010  -20.0400   75.8200 C.3   677  LEU677      0.1693
     40  C        -12.5880  -21.3190   75.2200 C.2   677  LEU677      0.2591
     41  O        -13.7540  -21.3220   74.7590 O.2   677  LEU677     -0.2718
     42  CB       -11.6800  -18.9970   74.7640 C.3   677  LEU677      0.0284
     43  CG       -12.7750  -17.9290   74.6580 C.3   677  LEU677      0.0019
     44  CD1      -13.0690  -17.2940   76.0010 C.3   677  LEU677      0.0001
     45  CD2      -12.3650  -16.8800   73.6170 C.3   677  LEU677      0.0001
     46  N        -11.7750  -22.3950   75.2470 N.am  678  ALA678     -0.1980
     47  CA       -12.2550  -23.7910   75.0380 C.3   678  ALA678      0.1597
     48  C        -12.4070  -24.5470   76.3450 C.2   678  ALA678      0.2287
     49  O        -12.1430  -25.7500   76.3990 O.2   678  ALA678     -0.2864
     50  CB       -11.3210  -24.5590   74.1330 C.3   678  ALA678      0.0319
     51  N        -17.9390  -23.6640   75.8680 N.3   681  HIS681     -0.1241
     52  CA       -18.6580  -24.8060   75.2450 C.3   681  HIS681      0.1621
     53  C        -18.7740  -26.0870   76.0870 C.2   681  HIS681      0.2264
     54  O        -19.8630  -26.4770   76.5770 O.2   681  HIS681     -0.2867
     55  CB       -17.9900  -25.2040   73.9440 C.3   681  HIS681      0.0745
     56  CG       -17.1780  -24.1160   73.3430 C.ar  681  HIS681      0.0817
     57  ND1      -15.8210  -23.9740   73.5960 N.ar  681  HIS681     -0.2268
     58  CD2      -17.5200  -23.0980   72.5150 C.ar  681  HIS681      0.1154
     59  CE1      -15.3540  -22.9250   72.9340 C.ar  681  HIS681      0.1986
     60  NE2      -16.3660  -22.3720   72.2720 N.ar  681  HIS681     -0.2212
     61  N        -21.9010  -31.4190   71.1340 N.3   690  ILE690     -0.1231
     62  CA       -21.4580  -30.6220   69.9690 C.3   690  ILE690      0.1692
     63  C        -19.9340  -30.5530   69.8600 C.2   690  ILE690      0.2592
     64  O        -19.2450  -29.7120   70.4500 O.2   690  ILE690     -0.2718
     65  CB       -22.1240  -29.1910   69.9160 C.3   690  ILE690      0.0266
     66  CG1      -23.5800  -29.2760   69.4080 C.3   690  ILE690      0.0019
     67  CG2      -21.3040  -28.2160   69.0660 C.3   690  ILE690      0.0020
     68  CD1      -23.7700  -28.9020   67.9540 C.3   690  ILE690      0.0001
     69  N        -19.4400  -31.4750   69.0560 N.am  691  ARG691     -0.1966
     70  CA       -18.0360  -31.7010   68.8980 C.3   691  ARG691      0.1729
     71  C        -17.5230  -30.9300   67.6670 C.2   691  ARG691      0.2616
     72  O        -18.2020  -30.9270   66.6200 O.2   691  ARG691     -0.2715
     73  CB       -17.7980  -33.2360   68.7960 C.3   691  ARG691      0.0348
     74  CG       -18.6790  -33.9990   67.7450 C.3   691  ARG691      0.0492
     75  CD       -18.2920  -35.5020   67.5910 C.3   691  ARG691      0.2205
     76  NE       -16.8580  -35.7600   67.8320 N.pl3 691  ARG691     -0.0865
     77  CZ       -15.8480  -35.2140   67.1300 C.cat 691  ARG691      0.5346
     78  NH1      -14.5600  -35.4770   67.4290 N.pl3 691  ARG691      0.1354
     79  NH2      -16.1060  -34.3740   66.1310 N.pl3 691  ARG691      0.1354
     80  N        -16.3750  -30.2340   67.8370 N.am  692  TRP692     -0.1960
     81  CA       -15.4850  -29.9000   66.7310 C.3   692  TRP692      0.1771
     82  C        -14.8630  -31.2100   66.2040 C.2   692  TRP692      0.2620
     83  O        -14.8090  -32.2480   66.8970 O.2   692  TRP692     -0.2715
     84  CB       -14.2570  -29.0780   67.1300 C.3   692  TRP692      0.0590
     85  CG       -14.3450  -28.0550   68.1780 C.ar  692  TRP692      0.0006
     86  CD1      -14.8360  -26.7810   68.0480 C.ar  692  TRP692      0.0946
     87  CD2      -13.8150  -28.1460   69.5100 C.ar  692  TRP692      0.0152
     88  NE1      -14.6890  -26.0860   69.2290 N.ar  692  TRP692     -0.2442
     89  CE2      -14.0630  -26.9040   70.1390 C.ar  692  TRP692      0.0810
     90  CE3      -13.1950  -29.1570   70.2320 C.ar  692  TRP692      0.0012
     91  CZ2      -13.7160  -26.6630   71.4420 C.ar  692  TRP692      0.0191
     92  CZ3      -12.8430  -28.9030   71.4990 C.ar  692  TRP692      0.0001
     93  CH2      -13.1060  -27.6730   72.1030 C.ar  692  TRP692      0.0015
     94  N        -14.3280  -31.1270   64.9920 N.am  693  ARG693     -0.1963
     95  CA       -13.5210  -32.1810   64.4450 C.3   693  ARG693      0.1729
     96  C        -12.0810  -31.6700   64.2670 C.2   693  ARG693      0.2616
     97  O        -11.2060  -32.4000   63.8340 O.2   693  ARG693     -0.2715
     98  CB       -14.1400  -32.6480   63.1340 C.3   693  ARG693      0.0348
     99  CG       -15.5020  -33.4060   63.2660 C.3   693  ARG693      0.0492
    100  CD       -15.6430  -34.4320   62.1290 C.3   693  ARG693      0.2205
    101  NE       -16.6430  -35.4980   62.3430 N.pl3 693  ARG693     -0.0865
    102  CZ       -16.4220  -36.7080   62.9160 C.cat 693  ARG693      0.5346
    103  NH1      -17.4380  -37.5740   63.0080 N.pl3 693  ARG693      0.1354
    104  NH2      -15.2120  -37.0690   63.4070 N.pl3 693  ARG693      0.1354
    105  N        -11.8370  -30.4110   64.6160 N.am  694  ASP694     -0.1971
    106  CA       -10.4700  -29.8260   64.5910 C.3   694  ASP694      0.1709
    107  C        -10.1770  -28.9740   65.8550 C.2   694  ASP694      0.2293
    108  O        -10.9540  -28.0660   66.2400 O.2   694  ASP694     -0.2864
    109  CB       -10.2350  -29.0120   63.3130 C.3   694  ASP694      0.1436
    110  CG       -10.0980  -29.8910   62.0810 C.2   694  ASP694      0.3671
    111  OD1       -9.0360  -30.5580   61.9230 O.co2 694  ASP694     -0.2456
    112  OD2      -11.0390  -29.8980   61.2470 O.co2 694  ASP694     -0.2456
    113  N         -9.3270  -26.6180   68.6150 N.3   696  PRO696     -0.2102
    114  CA        -9.0780  -25.1740   68.6320 C.3   696  PRO696      0.1504
    115  C         -7.6180  -24.8120   68.9860 C.2   696  PRO696      0.2575
    116  O         -7.2030  -25.0890   70.1070 O.2   696  PRO696     -0.2718
    117  CB       -10.0300  -24.6550   69.7340 C.3   696  PRO696      0.0282
    118  CG       -10.7570  -25.8260   70.2590 C.3   696  PRO696      0.0208
    119  CD       -10.5460  -26.9890   69.3500 C.3   696  PRO696      0.0893
    120  N         -6.8500  -24.2120   68.0550 N.am  697  VAL697     -0.1980
    121  CA        -5.4740  -23.7270   68.3440 C.3   697  VAL697      0.1595
    122  C         -5.1520  -22.3470   67.8150 C.2   697  VAL697      0.2287
    123  O         -5.9420  -21.7630   67.0700 O.2   697  VAL697     -0.2864
    124  CB        -4.3640  -24.6660   67.8290 C.3   697  VAL697      0.0276
    125  CG1       -4.3710  -25.9820   68.6050 C.3   697  VAL697      0.0022
    126  CG2       -4.4750  -24.8770   66.3180 C.3   697  VAL697      0.0022
    127  N         -2.2560  -19.8070   65.7660 N.3   699  LEU699     -0.1245
    128  CA        -1.4850  -19.9510   64.5140 C.3   699  LEU699      0.1561
    129  C         -0.0140  -20.2310   64.6800 C.2   699  LEU699      0.2260
    130  O          0.5910  -19.8830   65.6670 O.2   699  LEU699     -0.2867
    131  CB        -1.6730  -18.7450   63.5880 C.3   699  LEU699      0.0270
    132  CG        -3.1430  -18.4390   63.2710 C.3   699  LEU699      0.0019
    133  CD1       -3.3240  -18.1350   61.7940 C.3   699  LEU699      0.0001
    134  CD2       -4.0440  -19.6110   63.7250 C.3   699  LEU699      0.0001
@<TRIPOS>BOND
     1    19    18    2
     2    11    10    2
     3    18    17    1
     4    14    12    1
     5    10     9    1
     6    10    16   am
     7    17    16    1
     8    17    20    1
     9    26    28   ar
    10    26    23   ar
    11    28    29   ar
    12     9    12    1
    13     9     8    1
    14    12    13    1
    15    20    21    1
    16    13    15    1
    17    29    27   ar
    18    23    21   ar
    19    23    25   ar
    20    21    22   ar
    21    25    27   ar
    22    25    24   ar
    23    22    24   ar
    24     4     3    2
    25   112   110   ar
    26   133   132    1
    27   111   110   ar
    28     3     2    1
    29   110   109    1
    30   100   101    1
    31   100    99    1
    32   101   102    2
    33   102   103    1
    34   102   104    1
    35     2     5    1
    36     2     1    1
    37    98    99    1
    38    98    95    1
    39     5     7    1
    40     5     6    1
    41   132   131    1
    42   132   134    1
    43   109   106    1
    44   131   128    1
    45    97    96    2
    46    96    95    1
    47    96   105   am
    48    95    94    1
    49   128   129    1
    50   128   127    1
    51   106   105    1
    52   106   107    1
    53   129   130    2
    54    94    82   am
    55   107   108    2
    56    79    77    1
    57    82    81    1
    58    82    83    2
    59   126   124    1
    60    72    71    2
    61    81    84    1
    62    81    80    1
    63   123   122    2
    64    84    85    1
    65    77    78    1
    66    77    76    2
    67    75    74    1
    68    75    76    1
    69    71    80   am
    70    71    70    1
    71    74    73    1
    72   122   121    1
    73   124   121    1
    74   124   125    1
    75    68    66    1
    76    86    85   ar
    77    86    88   ar
    78   120   121    1
    79   120   115   am
    80    85    87   ar
    81   113   114    1
    82   113   119    1
    83   114   115    1
    84   114   117    1
    85    73    70    1
    86    70    69    1
    87   115   116    2
    88    69    63   am
    89    67    65    1
    90    88    89   ar
    91   119   118    1
    92    66    65    1
    93    87    89   ar
    94    87    90   ar
    95   117   118    1
    96    63    62    1
    97    63    64    2
    98    65    62    1
    99    37    35    1
   100    62    61    1
   101    89    91   ar
   102    90    92   ar
   103    91    93   ar
   104    35    34    1
   105    92    93   ar
   106    36    34    1
   107    34    31    1
   108    60    58   ar
   109    60    59   ar
   110    58    56   ar
   111    59    57   ar
   112    56    57   ar
   113    56    55    1
   114    45    43    1
   115    31    30    1
   116    31    32    1
   117    55    52    1
   118    50    47    1
   119    33    32    2
   120    43    42    1
   121    43    44    1
   122    41    40    2
   123    42    39    1
   124    47    46    1
   125    47    48    1
   126    40    46   am
   127    40    39    1
   128    52    51    1
   129    52    53    1
   130    39    38    1
   131    53    54    2
   132    48    49    2
