@<TRIPOS>MOLECULE
tmp/2wseF39.pdb
 259 255 0 0 0
SMALL
GASTEIGER

@<TRIPOS>ATOM
      1  N          5.0620   -2.9250   41.4600 N.3   376  TYR376     -0.1241
      2  CA         4.5360   -4.0060   42.3520 C.3   376  TYR376      0.1605
      3  C          4.3010   -5.2090   41.4540 C.2   376  TYR376      0.2264
      4  O          3.8670   -5.0420   40.3000 O.2   376  TYR376     -0.2867
      5  CB         3.2270   -3.6130   43.0410 C.3   376  TYR376      0.0534
      6  CG         3.3960   -2.6070   44.1230 C.ar  376  TYR376     -0.0201
      7  CD1        3.5300   -2.9920   45.4370 C.ar  376  TYR376     -0.0009
      8  CD2        3.4210   -1.2630   43.8280 C.ar  376  TYR376     -0.0009
      9  CE1        3.6770   -2.0240   46.4490 C.ar  376  TYR376      0.0417
     10  CE2        3.5740   -0.2910   44.8110 C.ar  376  TYR376      0.0417
     11  CZ         3.7060   -0.6580   46.1190 C.ar  376  TYR376      0.1957
     12  OH         3.8920    0.3290   47.0730 O.3   376  TYR376     -0.2866
     13  N         21.6170   10.2650   53.1220 N.3   432  THR432     -0.1203
     14  CA        20.3120   10.7110   52.5910 C.3   432  THR432      0.1994
     15  C         19.5480   11.4650   53.6780 C.2   432  THR432      0.2617
     16  O         19.1010   12.5790   53.4400 O.2   432  THR432     -0.2717
     17  CB        19.4240    9.5560   52.0610 C.3   432  THR432      0.1784
     18  OG1       20.0860    8.8750   50.9800 O.3   432  THR432     -0.2211
     19  CG2       18.1100   10.0800   51.5690 C.3   432  THR432      0.0376
     20  N         19.4480   10.8620   54.8670 N.am  433  LEU433     -0.1979
     21  CA        18.7770   11.4600   56.0600 C.3   433  LEU433      0.1596
     22  C         19.4220   12.7150   56.7060 C.2   433  LEU433      0.2287
     23  O         18.7650   13.3940   57.4660 O.2   433  LEU433     -0.2864
     24  CB        18.5210   10.3810   57.1420 C.3   433  LEU433      0.0297
     25  CG        17.6250   10.5480   58.3760 C.3   433  LEU433      0.0022
     26  CD1       16.3940   11.2990   58.0460 C.3   433  LEU433      0.0001
     27  CD2       17.1850    9.2100   58.7910 C.3   433  LEU433      0.0001
     28  N         17.5920   16.1310   54.1330 N.3   436  TYR436     -0.1241
     29  CA        16.1420   15.8720   54.1550 C.3   436  TYR436      0.1605
     30  C         15.5360   16.2150   55.5030 C.2   436  TYR436      0.2264
     31  O         14.3450   16.6070   55.5990 O.2   436  TYR436     -0.2867
     32  CB        15.7940   14.4280   53.8120 C.3   436  TYR436      0.0534
     33  CG        15.2500   14.2410   52.4150 C.ar  436  TYR436     -0.0201
     34  CD1       14.5470   15.2760   51.7650 C.ar  436  TYR436     -0.0009
     35  CD2       15.4020   13.0090   51.7420 C.ar  436  TYR436     -0.0009
     36  CE1       14.0170   15.0930   50.4900 C.ar  436  TYR436      0.0417
     37  CE2       14.8780   12.8140   50.4470 C.ar  436  TYR436      0.0417
     38  CZ        14.1880   13.8670   49.8420 C.ar  436  TYR436      0.1957
     39  OH        13.6710   13.6950   48.5890 O.3   436  TYR436     -0.2866
     40  N         15.5450   11.3030   46.1200 N.3   518  VAL518     -0.1245
     41  CA        14.7060   10.1060   45.9460 C.3   518  VAL518      0.1561
     42  C         15.6000    9.0900   45.2760 C.2   518  VAL518      0.2260
     43  O         15.6760    7.9530   45.7160 O.2   518  VAL518     -0.2867
     44  CB        13.4590   10.3420   45.0540 C.3   518  VAL518      0.0252
     45  CG1       12.4210    9.2620   45.3170 C.3   518  VAL518      0.0019
     46  CG2       12.8690   11.7760   45.2370 C.3   518  VAL518      0.0019
     47  N         17.6170    7.4330   47.4580 N.3   521  ALA521     -0.1245
     48  CA        16.7700    6.7310   48.4310 C.3   521  ALA521      0.1562
     49  C         15.9510    5.5430   47.8170 C.2   521  ALA521      0.2260
     50  O         15.3440    4.7370   48.5510 O.2   521  ALA521     -0.2867
     51  CB        15.8780    7.7320   49.1390 C.3   521  ALA521      0.0290
     52  N         19.3390    3.4710   48.3530 N.3   524  LEU524     -0.1245
     53  CA        19.3820    2.8740   49.6880 C.3   524  LEU524      0.1561
     54  C         18.3410    1.7230   49.9260 C.2   524  LEU524      0.2260
     55  O         18.3260    1.0860   50.9980 O.2   524  LEU524     -0.2867
     56  CB        19.2780    3.9740   50.7560 C.3   524  LEU524      0.0270
     57  CG        18.7060    3.7560   52.1800 C.3   524  LEU524      0.0019
     58  CD1       17.1520    3.8500   52.1850 C.3   524  LEU524      0.0001
     59  CD2       19.1870    2.5120   52.9340 C.3   524  LEU524      0.0001
     60  N          9.0300   -0.8810   50.2130 N.3   584  ASN584     -0.1240
     61  CA         9.4190    0.4500   50.7150 C.3   584  ASN584      0.1653
     62  C         10.3080    1.1640   49.7260 C.2   584  ASN584      0.2266
     63  O         10.2780    2.3830   49.6400 O.2   584  ASN584     -0.2867
     64  CB        10.1300    0.3650   52.0840 C.3   584  ASN584      0.1155
     65  CG        10.6510    1.7240   52.5580 C.2   584  ASN584      0.2627
     66  OD1       11.8560    1.9060   52.8080 O.2   584  ASN584     -0.2716
     67  ND2        9.7370    2.6970   52.6340 N.am  584  ASN584     -0.0877
     68  N          8.0210    1.7550   46.6130 N.3   587  GLY587     -0.1210
     69  CA         7.0750    2.7620   47.0790 C.3   587  GLY587      0.1956
     70  C          7.7260    4.1180   46.9480 C.2   587  GLY587      0.2611
     71  O          7.1070    5.0740   46.5210 O.2   587  GLY587     -0.2717
     72  N          9.0060    4.1950   47.3080 N.am  588  TRP588     -0.1976
     73  CA         9.7160    5.4580   47.1680 C.3   588  TRP588      0.1640
     74  C          9.7370    5.6950   45.6930 C.2   588  TRP588      0.2290
     75  O          9.2520    6.7150   45.2280 O.2   588  TRP588     -0.2864
     76  CB        11.1110    5.4790   47.8700 C.3   588  TRP588      0.0576
     77  CG        10.9320    5.6340   49.3380 C.ar  588  TRP588      0.0006
     78  CD1        9.8070    6.1250   49.9740 C.ar  588  TRP588      0.0946
     79  CD2       11.8580    5.3030   50.3670 C.ar  588  TRP588      0.0152
     80  NE1        9.9650    6.0940   51.3390 N.ar  588  TRP588     -0.2442
     81  CE2       11.2240    5.6110   51.6150 C.ar  588  TRP588      0.0810
     82  CE3       13.1630    4.7750   50.3770 C.ar  588  TRP588      0.0012
     83  CZ2       11.8570    5.4060   52.8530 C.ar  588  TRP588      0.0191
     84  CZ3       13.7980    4.5620   51.6420 C.ar  588  TRP588      0.0001
     85  CH2       13.1300    4.8830   52.8420 C.ar  588  TRP588      0.0015
     86  N          5.6540    6.2090   44.3560 N.3   591  PHE591     -0.1241
     87  CA         5.5290    7.5200   45.0320 C.3   591  PHE591      0.1605
     88  C          6.0800    8.7220   44.2700 C.2   591  PHE591      0.2264
     89  O          5.3970    9.7350   44.0930 O.2   591  PHE591     -0.2867
     90  CB         6.3580    7.4670   46.3140 C.3   591  PHE591      0.0534
     91  CG         5.5360    7.4610   47.5550 C.ar  591  PHE591     -0.0203
     92  CD1        4.8920    6.2960   47.9780 C.ar  591  PHE591     -0.0042
     93  CD2        5.4150    8.6240   48.3090 C.ar  591  PHE591     -0.0042
     94  CE1        4.1280    6.2920   49.1140 C.ar  591  PHE591     -0.0003
     95  CE2        4.6530    8.6230   49.4530 C.ar  591  PHE591     -0.0003
     96  CZ         4.0020    7.4480   49.8630 C.ar  591  PHE591     -0.0000
     97  N         11.1450   17.1710   53.0860 N.3   615  LEU615     -0.1245
     98  CA        10.4980   15.9520   53.5300 C.3   615  LEU615      0.1561
     99  C          9.0300   16.2480   53.9120 C.2   615  LEU615      0.2260
    100  O          8.0940   15.7610   53.2950 O.2   615  LEU615     -0.2867
    101  CB        11.2880   15.4220   54.7380 C.3   615  LEU615      0.0270
    102  CG        11.5930   13.9280   54.9290 C.3   615  LEU615      0.0019
    103  CD1       10.6750   12.9980   54.1580 C.3   615  LEU615      0.0001
    104  CD2       13.0460   13.6610   54.6210 C.3   615  LEU615      0.0001
    105  N          6.5940   16.6530   51.2910 N.3   618  TRP618     -0.1227
    106  CA         6.2870   15.3490   50.7240 C.3   618  TRP618      0.1737
    107  C          5.0170   14.7840   51.3560 C.2   618  TRP618      0.2595
    108  O          4.2100   14.1640   50.6930 O.2   618  TRP618     -0.2718
    109  CB         7.4570   14.3730   50.8800 C.3   618  TRP618      0.0564
    110  CG         8.1260   14.0710   49.6080 C.ar  618  TRP618      0.0003
    111  CD1        9.3270   14.5230   49.2120 C.ar  618  TRP618      0.0946
    112  CD2        7.6160   13.2580   48.5550 C.ar  618  TRP618      0.0152
    113  NE1        9.6170   14.0540   47.9690 N.ar  618  TRP618     -0.2442
    114  CE2        8.5790   13.2590   47.5490 C.ar  618  TRP618      0.0810
    115  CE3        6.4330   12.5190   48.3730 C.ar  618  TRP618      0.0012
    116  CZ2        8.4050   12.5540   46.3470 C.ar  618  TRP618      0.0191
    117  CZ3        6.2570   11.8190   47.2030 C.ar  618  TRP618      0.0001
    118  CH2        7.2360   11.8460   46.1940 C.ar  618  TRP618      0.0015
    119  N          4.8370   15.0200   52.6380 N.am  619  LEU619     -0.1980
    120  CA         3.5700   14.7400   53.3020 C.3   619  LEU619      0.1596
    121  C          2.4810   15.8190   53.0770 C.2   619  LEU619      0.2287
    122  O          1.3200   15.4800   52.7910 O.2   619  LEU619     -0.2864
    123  CB         3.8240   14.5980   54.7800 C.3   619  LEU619      0.0297
    124  CG         2.5710   14.4090   55.5830 C.3   619  LEU619      0.0022
    125  CD1        2.5550   12.9510   55.9430 C.3   619  LEU619      0.0001
    126  CD2        2.6860   15.2990   56.7810 C.3   619  LEU619      0.0001
    127  N          0.4090   13.5960   49.2640 N.3   623  LEU623     -0.1231
    128  CA        -0.1390   13.0100   50.4870 C.3   623  LEU623      0.1693
    129  C         -1.3660   13.8380   50.9410 C.2   623  LEU623      0.2592
    130  O         -2.5220   13.3620   50.8000 O.2   623  LEU623     -0.2718
    131  CB         0.9190   12.8510   51.5950 C.3   623  LEU623      0.0284
    132  CG         1.6340   11.5190   51.9070 C.3   623  LEU623      0.0019
    133  CD1        0.6810   10.3490   52.1040 C.3   623  LEU623      0.0001
    134  CD2        2.6700   11.1330   50.8810 C.3   623  LEU623      0.0001
    135  N         -1.1020   15.0720   51.4420 N.am  624  TRP624     -0.1976
    136  CA        -2.1270   15.9750   52.0390 C.3   624  TRP624      0.1640
    137  C         -2.8520   16.8850   51.0470 C.2   624  TRP624      0.2290
    138  O         -4.0870   16.9890   51.0620 O.2   624  TRP624     -0.2864
    139  CB        -1.5420   16.8240   53.1620 C.3   624  TRP624      0.0576
    140  CG        -2.5530   17.7820   53.7270 C.ar  624  TRP624      0.0006
    141  CD1       -3.1590   17.7030   54.9500 C.ar  624  TRP624      0.0946
    142  CD2       -3.1110   18.9490   53.0850 C.ar  624  TRP624      0.0152
    143  NE1       -4.0620   18.7360   55.1150 N.ar  624  TRP624     -0.2442
    144  CE2       -4.0480   19.5270   53.9930 C.ar  624  TRP624      0.0810
    145  CE3       -2.8950   19.5790   51.8390 C.ar  624  TRP624      0.0012
    146  CZ2       -4.7620   20.7020   53.6980 C.ar  624  TRP624      0.0191
    147  CZ3       -3.6210   20.7320   51.5430 C.ar  624  TRP624      0.0001
    148  CH2       -4.5370   21.2840   52.4780 C.ar  624  TRP624      0.0015
    149  N         -5.6970   14.4760   47.8660 N.3   627  SER627     -0.1217
    150  CA        -6.4730   13.3150   48.3260 C.3   627  SER627      0.1889
    151  C         -7.8600   13.9100   48.3170 C.2   627  SER627      0.2288
    152  O         -8.8570   13.2510   48.0620 O.2   627  SER627     -0.2866
    153  CB        -6.1120   12.9020   49.7610 C.3   627  SER627      0.2089
    154  OG        -4.7610   12.4280   49.8780 O.3   627  SER627     -0.2183
    155  N        -11.9560   11.8150   49.6020 N.3   631  ILE631     -0.1245
    156  CA       -12.4710   11.6030   50.9560 C.3   631  ILE631      0.1561
    157  C        -13.7160   12.4030   51.2470 C.2   631  ILE631      0.2260
    158  O        -14.6300   11.8950   51.8580 O.2   631  ILE631     -0.2867
    159  CB       -11.4030   11.7830   52.0580 C.3   631  ILE631      0.0252
    160  CG1      -10.9420   13.2110   52.1610 C.3   631  ILE631      0.0019
    161  CG2      -10.2160   10.9320   51.8090 C.3   631  ILE631      0.0019
    162  CD1      -11.6960   13.9380   53.1810 C.3   631  ILE631      0.0001
    163  N         -9.8600    2.7910   50.3210 N.3   649  PHE649     -0.1241
    164  CA        -8.7190    3.4910   50.8810 C.3   649  PHE649      0.1605
    165  C         -8.7190    3.3350   52.4090 C.2   649  PHE649      0.2264
    166  O         -7.6470    3.4210   53.0420 O.2   649  PHE649     -0.2867
    167  CB        -8.7890    4.9640   50.4150 C.3   649  PHE649      0.0534
    168  CG        -7.7020    5.8320   50.9250 C.ar  649  PHE649     -0.0203
    169  CD1       -6.3900    5.6520   50.5180 C.ar  649  PHE649     -0.0042
    170  CD2       -7.9930    6.8350   51.7810 C.ar  649  PHE649     -0.0042
    171  CE1       -5.3590    6.4720   50.9970 C.ar  649  PHE649     -0.0003
    172  CE2       -6.9960    7.6350   52.2430 C.ar  649  PHE649     -0.0003
    173  CZ        -5.6610    7.4570   51.8510 C.ar  649  PHE649     -0.0000
    174  N         -8.1900    0.0260   52.8940 N.3   652  GLY652     -0.1210
    175  CA        -6.7260    0.1010   52.7900 C.3   652  GLY652      0.1956
    176  C         -6.0300    0.2510   54.1270 C.2   652  GLY652      0.2611
    177  O         -5.1400   -0.5500   54.4560 O.2   652  GLY652     -0.2717
    178  N         -6.4480    1.2580   54.9010 N.am  653  HIS653     -0.1975
    179  CA        -5.9020    1.4910   56.2420 C.3   653  HIS653      0.1656
    180  C         -6.2490    0.4030   57.3050 C.2   653  HIS653      0.2291
    181  O         -5.5480    0.3120   58.3130 O.2   653  HIS653     -0.2864
    182  CB        -6.2850    2.8980   56.7630 C.3   653  HIS653      0.0771
    183  CG        -5.5150    4.0390   56.1370 C.ar  653  HIS653      0.0820
    184  ND1       -5.0880    5.1380   56.8590 N.ar  653  HIS653     -0.2267
    185  CD2       -5.1180    4.2630   54.8600 C.ar  653  HIS653      0.1154
    186  CE1       -4.4750    5.9940   56.0560 C.ar  653  HIS653      0.1986
    187  NE2       -4.4660    5.4830   54.8430 N.ar  653  HIS653     -0.2212
    188  N         -4.2780   -3.2390   56.5140 N.3   656  TRP656     -0.1227
    189  CA        -2.9130   -2.8790   56.8950 C.3   656  TRP656      0.1737
    190  C         -2.7440   -3.1170   58.3720 C.2   656  TRP656      0.2595
    191  O         -2.3310   -4.2190   58.7790 O.2   656  TRP656     -0.2718
    192  CB        -2.6600   -1.4030   56.6330 C.3   656  TRP656      0.0564
    193  CG        -1.1950   -1.0510   56.6330 C.ar  656  TRP656      0.0003
    194  CD1       -0.2840   -1.3390   55.6610 C.ar  656  TRP656      0.0946
    195  CD2       -0.4700   -0.3270   57.6430 C.ar  656  TRP656      0.0152
    196  NE1        0.9600   -0.8310   55.9930 N.ar  656  TRP656     -0.2442
    197  CE2        0.8690   -0.1970   57.2030 C.ar  656  TRP656      0.0810
    198  CE3       -0.8290    0.2560   58.8600 C.ar  656  TRP656      0.0012
    199  CZ2        1.8470    0.4820   57.9330 C.ar  656  TRP656      0.0191
    200  CZ3        0.1500    0.9370   59.5890 C.ar  656  TRP656      0.0001
    201  CH2        1.4680    1.0330   59.1270 C.ar  656  TRP656      0.0015
    202  N         -3.0900   -2.0700   59.1490 N.am  657  ALA657     -0.1980
    203  CA        -3.1050   -2.0380   60.6340 C.3   657  ALA657      0.1597
    204  C         -3.3200   -3.4030   61.2400 C.2   657  ALA657      0.2287
    205  O         -2.5060   -3.8520   62.0420 O.2   657  ALA657     -0.2864
    206  CB        -4.1910   -1.0580   61.1700 C.3   657  ALA657      0.0319
    207  N         -0.4600   -7.1730   55.6200 N.3   712  PHE712     -0.1241
    208  CA         0.2480   -5.9130   55.7020 C.3   712  PHE712      0.1605
    209  C          0.2050   -5.3920   54.3150 C.2   712  PHE712      0.2264
    210  O         -0.0140   -4.1990   54.1150 O.2   712  PHE712     -0.2867
    211  CB         1.7040   -6.1620   56.1190 C.3   712  PHE712      0.0534
    212  CG         2.5660   -4.9170   56.1960 C.ar  712  PHE712     -0.0203
    213  CD1        2.4970   -4.0650   57.2890 C.ar  712  PHE712     -0.0042
    214  CD2        3.5000   -4.6220   55.1990 C.ar  712  PHE712     -0.0042
    215  CE1        3.3090   -2.9360   57.3640 C.ar  712  PHE712     -0.0003
    216  CE2        4.3140   -3.4900   55.2850 C.ar  712  PHE712     -0.0003
    217  CZ         4.2180   -2.6550   56.3580 C.ar  712  PHE712     -0.0000
    218  N         -1.7830   -2.1550   52.3790 N.3   716  TYR716     -0.1241
    219  CA        -0.7700   -1.2830   51.7860 C.3   716  TYR716      0.1605
    220  C         -0.9360   -1.1340   50.2620 C.2   716  TYR716      0.2264
    221  O         -1.0160    0.0040   49.7420 O.2   716  TYR716     -0.2867
    222  CB         0.6340   -1.8480   52.1310 C.3   716  TYR716      0.0534
    223  CG         1.8700   -1.0900   51.6330 C.ar  716  TYR716     -0.0201
    224  CD1        2.1830   -1.0170   50.2820 C.ar  716  TYR716     -0.0009
    225  CD2        2.7540   -0.5270   52.5230 C.ar  716  TYR716     -0.0009
    226  CE1        3.3220   -0.3670   49.8520 C.ar  716  TYR716      0.0417
    227  CE2        3.8810    0.1280   52.1110 C.ar  716  TYR716      0.0417
    228  CZ         4.1660    0.2100   50.7820 C.ar  716  TYR716      0.1957
    229  OH         5.3110    0.8770   50.3850 O.3   716  TYR716     -0.2866
    230  N         -4.0930    0.2980   49.1640 N.3   719  THR719     -0.1203
    231  CA        -4.3260    1.7110   49.5370 C.3   719  THR719      0.1994
    232  C         -3.8490    2.7160   48.4890 C.2   719  THR719      0.2617
    233  O         -4.6310    3.6010   48.1090 O.2   719  THR719     -0.2717
    234  CB        -3.8450    2.0470   50.9510 C.3   719  THR719      0.1784
    235  OG1       -4.4010    1.0770   51.8390 O.3   719  THR719     -0.2211
    236  CG2       -4.3740    3.3590   51.3990 C.3   719  THR719      0.0376
    237  N         -2.5910    2.5750   48.0210 N.am  720  TYR720     -0.1975
    238  CA        -2.0840    3.2680   46.8100 C.3   720  TYR720      0.1639
    239  C         -2.9170    2.9570   45.5790 C.2   720  TYR720      0.2290
    240  O         -3.2160    3.8490   44.7940 O.2   720  TYR720     -0.2864
    241  CB        -0.6400    2.8820   46.5210 C.3   720  TYR720      0.0560
    242  CG         0.2020    4.0360   46.0960 C.ar  720  TYR720     -0.0198
    243  CD1        0.4250    5.1210   46.9490 C.ar  720  TYR720     -0.0009
    244  CD2        0.7970    4.0480   44.8630 C.ar  720  TYR720     -0.0009
    245  CE1        1.2310    6.2050   46.5630 C.ar  720  TYR720      0.0417
    246  CE2        1.5910    5.1260   44.4630 C.ar  720  TYR720      0.0417
    247  CZ         1.8120    6.1960   45.3200 C.ar  720  TYR720      0.1957
    248  OH         2.6270    7.2290   44.9060 O.3   720  TYR720     -0.2866
    249  N         -5.4950    4.9880   46.2640 N.3   723  PHE723     -0.1241
    250  CA        -5.0580    6.3650   46.4440 C.3   723  PHE723      0.1605
    251  C         -4.8420    7.0310   45.0900 C.2   723  PHE723      0.2264
    252  O         -5.5970    7.9670   44.7410 O.2   723  PHE723     -0.2867
    253  CB        -3.8490    6.5260   47.3640 C.3   723  PHE723      0.0534
    254  CG        -3.2690    7.9230   47.3570 C.ar  723  PHE723     -0.0203
    255  CD1       -1.8870    8.1300   47.1140 C.ar  723  PHE723     -0.0042
    256  CD2       -4.1100    9.0430   47.5770 C.ar  723  PHE723     -0.0042
    257  CE1       -1.3330    9.4180   47.0960 C.ar  723  PHE723     -0.0003
    258  CE2       -3.5860   10.3270   47.5700 C.ar  723  PHE723     -0.0003
    259  CZ        -2.1750   10.5130   47.3190 C.ar  723  PHE723     -0.0000
@<TRIPOS>BOND
     1     4     3    2
     2     3     2    1
     3     1     2    1
     4     2     5    1
     5     5     6    1
     6     8     6   ar
     7     8    10   ar
     8    89    88    2
     9     6     7   ar
    10    88    87    1
    11    86    87    1
    12   246   244   ar
    13   246   247   ar
    14   252   251    2
    15   240   239    2
    16    10    11   ar
    17   244   242   ar
    18   248   247    1
    19    87    90    1
    20    44    46    1
    21    44    45    1
    22    44    41    1
    23   251   250    1
    24    75    74    2
    25    42    43    2
    26    42    41    1
    27   247   245   ar
    28     7     9   ar
    29   239   238    1
    30    74    73    1
    31    41    40    1
    32   242   241    1
    33   242   243   ar
    34    11     9   ar
    35    11    12    1
    36   118   116   ar
    37   118   117   ar
    38   249   250    1
    39    90    91    1
    40   116   114   ar
    41   250   253    1
    42    71    70    2
    43   241   238    1
    44   245   243   ar
    45    68    69    1
    46   238   237    1
    47    70    69    1
    48    70    72   am
    49   257   255   ar
    50   257   259   ar
    51   255   254   ar
    52    73    72    1
    53    73    76    1
    54   117   115   ar
    55   259   258   ar
    56   254   253    1
    57   254   256   ar
    58    47    48    1
    59   114   113   ar
    60   114   112   ar
    61    91    92   ar
    62    91    93   ar
    63   258   256   ar
    64    49    48    1
    65    49    50    2
    66   149   150    1
    67    76    77    1
    68   113   111   ar
    69    92    94   ar
    70   237   232   am
    71   152   151    2
    72   233   232    2
    73    93    95   ar
    74   151   150    1
    75   150   153    1
    76    52    53    1
    77   115   112   ar
    78    48    51    1
    79   232   231    1
    80   112   110   ar
    81    39    38    1
    82    94    96   ar
    83   230   231    1
    84   111   110   ar
    85   127   128    1
    86    77    78   ar
    87    77    79   ar
    88    95    96   ar
    89   231   234    1
    90   155   156    1
    91   110   109    1
    92    63    62    2
    93    53    54    1
    94    53    56    1
    95    62    61    1
    96   221   220    2
    97   153   154    1
    98    38    37   ar
    99    38    36   ar
   100   226   224   ar
   101   226   228   ar
   102    54    55    2
   103    78    80   ar
   104    60    61    1
   105   220   219    1
   106   224   223   ar
   107   163   164    1
   108    79    82   ar
   109    79    81   ar
   110    82    84   ar
   111   229   228    1
   112   167   164    1
   113   167   168    1
   114    37    35   ar
   115   128   129    1
   116   128   131    1
   117    36    34   ar
   118   169   168   ar
   119   169   171   ar
   120   108   107    2
   121    61    64    1
   122   106   109    1
   123   106   105    1
   124   106   107    1
   125    56    57    1
   126   228   227   ar
   127   130   129    2
   128   164   165    1
   129   134   132    1
   130   168   170   ar
   131   129   135   am
   132   234   236    1
   133   234   235    1
   134   156   157    1
   135   156   159    1
   136    18    17    1
   137   171   173   ar
   138   137   138    2
   139   137   136    1
   140   157   158    2
   141    80    81   ar
   142   107   119   am
   143   135   136    1
   144   147   145   ar
   145   147   148   ar
   146    19    17    1
   147   131   132    1
   148    81    83   ar
   149   223   222    1
   150   223   225   ar
   151    84    85   ar
   152    35    33   ar
   153    34    33   ar
   154   170   172   ar
   155   219   222    1
   156   219   218    1
   157   161   159    1
   158   145   142   ar
   159   173   172   ar
   160   132   133    1
   161   136   139    1
   162   159   160    1
   163    17    14    1
   164    64    65    1
   165   227   225   ar
   166   160   162    1
   167    57    58    1
   168    57    59    1
   169   165   166    2
   170    33    32    1
   171   148   146   ar
   172    65    67   am
   173    65    66    2
   174    14    13    1
   175    14    15    1
   176   119   120    1
   177   175   174    1
   178   175   176    1
   179   122   121    2
   180    85    83   ar
   181   121   120    1
   182   142   140   ar
   183   142   144   ar
   184    97    98    1
   185   139   140    1
   186   100    99    2
   187   120   123    1
   188    16    15    2
   189    98    99    1
   190    98   101    1
   191    15    20   am
   192   146   144   ar
   193   140   141   ar
   194    32    29    1
   195   144   143   ar
   196   210   209    2
   197   176   177    2
   198   176   178   am
   199    28    29    1
   200    29    30    1
   201   103   102    1
   202   209   208    1
   203   104   102    1
   204   101   102    1
   205   123   124    1
   206   187   185   ar
   207   187   186   ar
   208   185   183   ar
   209    20    21    1
   210   178   179    1
   211   141   143   ar
   212   214   216   ar
   213   214   212   ar
   214   216   217   ar
   215    30    31    2
   216   124   125    1
   217   124   126    1
   218   207   208    1
   219   194   196   ar
   220   194   193   ar
   221   208   211    1
   222   196   197   ar
   223   186   184   ar
   224    21    22    1
   225    21    24    1
   226   211   212    1
   227   183   182    1
   228   183   184   ar
   229   212   213   ar
   230   179   182    1
   231   179   180    1
   232   217   215   ar
   233   188   189    1
   234   193   192    1
   235   193   195   ar
   236   192   189    1
   237    22    23    2
   238   189   190    1
   239    24    25    1
   240   197   195   ar
   241   197   199   ar
   242   213   215   ar
   243   180   181    2
   244   195   198   ar
   245   199   201   ar
   246    26    25    1
   247   190   191    2
   248   190   202   am
   249    25    27    1
   250   198   200   ar
   251   201   200   ar
   252   202   203    1
   253   203   206    1
   254   203   204    1
   255   204   205    2
