@<TRIPOS>MOLECULE
tmp/2wseF30.pdb
 128 124 0 0 0
SMALL
GASTEIGER

@<TRIPOS>ATOM
      1  N         -5.1460  -25.2290   57.6710 N.3    21  TRP21      -0.1241
      2  CA        -4.3390  -24.1360   57.0870 C.3    21  TRP21       0.1605
      3  C         -3.1670  -24.7340   56.3620 C.2    21  TRP21       0.2264
      4  O         -3.0580  -24.6720   55.1440 O.2    21  TRP21      -0.2867
      5  CB        -3.7860  -23.1930   58.1500 C.3    21  TRP21       0.0550
      6  CG        -4.7990  -22.5930   59.0290 C.ar   21  TRP21       0.0003
      7  CD1       -5.0480  -22.9130   60.3390 C.ar   21  TRP21       0.0946
      8  CD2       -5.6990  -21.5560   58.6910 C.ar   21  TRP21       0.0152
      9  NE1       -6.0560  -22.1230   60.8250 N.ar   21  TRP21      -0.2442
     10  CE2       -6.4730  -21.2740   59.8280 C.ar   21  TRP21       0.0810
     11  CE3       -5.9340  -20.8310   57.5330 C.ar   21  TRP21       0.0012
     12  CZ2       -7.4700  -20.2740   59.8370 C.ar   21  TRP21       0.0191
     13  CZ3       -6.9470  -19.8430   57.5340 C.ar   21  TRP21       0.0001
     14  CH2       -7.6940  -19.5810   58.6710 C.ar   21  TRP21       0.0015
     15  N        -10.6370    0.6230   53.7950 N.3   651  PHE651     -0.1241
     16  CA       -10.3750   -0.7880   53.6980 C.3   651  PHE651      0.1605
     17  C         -8.8180   -0.9180   53.6160 C.2   651  PHE651      0.2264
     18  O         -8.2140   -1.8320   54.2200 O.2   651  PHE651     -0.2867
     19  CB       -11.1080   -1.4210   52.4940 C.3   651  PHE651      0.0534
     20  CG       -10.6280   -2.7960   52.1720 C.ar  651  PHE651     -0.0203
     21  CD1       -9.5880   -2.9780   51.2570 C.ar  651  PHE651     -0.0042
     22  CD2      -11.1780   -3.9060   52.8270 C.ar  651  PHE651     -0.0042
     23  CE1       -9.1190   -4.2160   50.9770 C.ar  651  PHE651     -0.0003
     24  CE2      -10.7250   -5.1760   52.5520 C.ar  651  PHE651     -0.0003
     25  CZ        -9.6840   -5.3310   51.6250 C.ar  651  PHE651     -0.0000
     26  N         -7.2960   -0.4200   57.0980 N.3   654  LEU654     -0.1231
     27  CA        -7.5960   -1.5040   58.0620 C.3   654  LEU654      0.1693
     28  C         -6.8400   -2.7970   57.8200 C.2   654  LEU654      0.2591
     29  O         -6.0980   -3.2330   58.6660 O.2   654  LEU654     -0.2718
     30  CB        -9.1000   -1.8130   58.1500 C.3   654  LEU654      0.0284
     31  CG        -9.5980   -2.5360   59.4360 C.3   654  LEU654      0.0019
     32  CD1      -11.0320   -2.0890   59.7690 C.3   654  LEU654      0.0001
     33  CD2       -9.5500   -4.0600   59.3140 C.3   654  LEU654      0.0001
     34  N         -7.0780   -3.4450   56.6910 N.am  655  VAL655     -0.1980
     35  CA        -6.2990   -4.6240   56.2910 C.3   655  VAL655      0.1595
     36  C         -4.8020   -4.4600   56.7130 C.2   655  VAL655      0.2287
     37  O         -4.1590   -5.4080   57.2040 O.2   655  VAL655     -0.2864
     38  CB        -6.4300   -4.8570   54.7390 C.3   655  VAL655      0.0276
     39  CG1       -5.8930   -6.2370   54.2930 C.3   655  VAL655      0.0022
     40  CG2       -7.8680   -4.7090   54.3060 C.3   655  VAL655      0.0022
     41  N         -4.4100   -4.0580   60.8320 N.3   658  THR658     -0.1218
     42  CA        -4.7460   -5.3860   61.2900 C.3   658  THR658      0.1862
     43  C         -3.6780   -6.4320   60.8670 C.2   658  THR658      0.2287
     44  O         -3.7430   -7.6040   61.2430 O.2   658  THR658     -0.2866
     45  CB        -6.1740   -5.7620   60.8550 C.3   658  THR658      0.1770
     46  OG1       -6.7690   -6.5750   61.8580 O.3   658  THR658     -0.2211
     47  CG2       -6.1840   -6.5240   59.5520 C.3   658  THR658      0.0375
     48  N         -1.2680   -7.3430   64.6570 N.3   661  MET661     -0.1230
     49  CA        -1.5770   -8.4870   65.5270 C.3   661  MET661      0.1702
     50  C         -0.5430   -9.5480   65.1790 C.2   661  MET661      0.2592
     51  O          0.5870   -9.5880   65.7160 O.2   661  MET661     -0.2718
     52  CB        -2.9870   -9.0230   65.2000 C.3   661  MET661      0.0401
     53  CG        -3.7790   -9.7260   66.3090 C.3   661  MET661      0.0596
     54  SD        -5.4170   -8.9260   66.4180 S.3   661  MET661     -0.1393
     55  CE        -6.3260  -10.0340   67.4710 C.3   661  MET661      0.0692
     56  N         -0.9210  -10.4000   64.2370 N.am  662  PHE662     -0.1976
     57  CA         0.0760  -11.0980   63.4660 C.3   662  PHE662      0.1639
     58  C          1.1570  -10.0330   63.3430 C.2   662  PHE662      0.2290
     59  O          0.9150   -8.9880   62.7490 O.2   662  PHE662     -0.2864
     60  CB        -0.5610  -11.4670   62.1240 C.3   662  PHE662      0.0560
     61  CG        -1.9650  -12.0330   62.2610 C.ar  662  PHE662     -0.0200
     62  CD1       -2.1720  -13.3170   62.8040 C.ar  662  PHE662     -0.0042
     63  CD2       -3.0740  -11.2810   61.9040 C.ar  662  PHE662     -0.0042
     64  CE1       -3.4580  -13.8570   62.9630 C.ar  662  PHE662     -0.0003
     65  CE2       -4.3770  -11.8150   62.0650 C.ar  662  PHE662     -0.0003
     66  CZ        -4.5580  -13.1220   62.6030 C.ar  662  PHE662     -0.0000
     67  N         -2.0990  -16.1840   72.3150 N.3   670  TRP670     -0.1241
     68  CA        -3.3690  -16.4390   71.6700 C.3   670  TRP670      0.1605
     69  C         -3.9180  -17.8070   72.0530 C.2   670  TRP670      0.2264
     70  O         -5.0500  -17.9490   72.4980 O.2   670  TRP670     -0.2867
     71  CB        -3.2010  -16.2220   70.1530 C.3   670  TRP670      0.0550
     72  CG        -3.1460  -14.7520   69.8920 C.ar  670  TRP670      0.0003
     73  CD1       -2.0450  -13.9940   69.5520 C.ar  670  TRP670      0.0946
     74  CD2       -4.2400  -13.8400   70.0560 C.ar  670  TRP670      0.0152
     75  NE1       -2.4060  -12.6670   69.4800 N.ar  670  TRP670     -0.2442
     76  CE2       -3.7530  -12.5520   69.7850 C.ar  670  TRP670      0.0810
     77  CE3       -5.5860  -13.9890   70.4200 C.ar  670  TRP670      0.0012
     78  CZ2       -4.5720  -11.4270   69.8560 C.ar  670  TRP670      0.0191
     79  CZ3       -6.3880  -12.8850   70.4720 C.ar  670  TRP670      0.0001
     80  CH2       -5.8870  -11.6230   70.1930 C.ar  670  TRP670      0.0015
     81  N         -2.2560  -19.8070   65.7660 N.3   699  LEU699     -0.1245
     82  CA        -1.4850  -19.9510   64.5140 C.3   699  LEU699      0.1561
     83  C         -0.0140  -20.2310   64.6800 C.2   699  LEU699      0.2260
     84  O          0.5910  -19.8830   65.6670 O.2   699  LEU699     -0.2867
     85  CB        -1.6730  -18.7450   63.5880 C.3   699  LEU699      0.0270
     86  CG        -3.1430  -18.4390   63.2710 C.3   699  LEU699      0.0019
     87  CD1       -3.3240  -18.1350   61.7940 C.3   699  LEU699      0.0001
     88  CD2       -4.0440  -19.6110   63.7250 C.3   699  LEU699      0.0001
     89  N          3.5840  -19.2530   60.1960 N.3   703  GLN703     -0.1245
     90  CA         2.2970  -18.8190   59.6830 C.3   703  GLN703      0.1566
     91  C          1.9400  -17.3380   59.9570 C.2   703  GLN703      0.2260
     92  O          1.5110  -16.6390   59.0660 O.2   703  GLN703     -0.2867
     93  CB         1.1940  -19.7820   60.1630 C.3   703  GLN703      0.0367
     94  CG        -0.2460  -19.3210   59.9010 C.3   703  GLN703      0.0905
     95  CD        -1.2910  -20.3920   60.1960 C.2   703  GLN703      0.2608
     96  OE1       -1.2320  -21.0590   61.2120 O.2   703  GLN703     -0.2717
     97  NE2       -2.2750  -20.5330   59.3160 N.am  703  GLN703     -0.0878
     98  N          0.8680  -14.3290   57.4380 N.3   707  VAL707     -0.1245
     99  CA        -0.4760  -13.6600   57.5250 C.3   707  VAL707      0.1561
    100  C         -0.5010  -12.1340   57.9220 C.2   707  VAL707      0.2260
    101  O         -1.2550  -11.3380   57.3380 O.2   707  VAL707     -0.2867
    102  CB        -1.4930  -14.4830   58.3900 C.3   707  VAL707      0.0252
    103  CG1       -2.9110  -14.1380   58.0160 C.3   707  VAL707      0.0019
    104  CG2       -1.2650  -15.9990   58.2560 C.3   707  VAL707      0.0019
    105  N          0.9480  -10.5720   53.6980 N.3   710  VAL710     -0.1231
    106  CA        -0.1790  -11.2580   53.0580 C.3   710  VAL710      0.1692
    107  C         -1.4500  -10.6710   53.6240 C.2   710  VAL710      0.2592
    108  O         -2.5140  -11.2430   53.4580 O.2   710  VAL710     -0.2718
    109  CB        -0.1380  -12.7340   53.3970 C.3   710  VAL710      0.0266
    110  CG1       -1.4780  -13.3940   53.0760 C.3   710  VAL710      0.0020
    111  CG2        1.0740  -13.3860   52.7110 C.3   710  VAL710      0.0020
    112  N         -1.2650   -9.5240   54.3020 N.am  711  HIS711     -0.1976
    113  CA        -2.2500   -8.7400   55.1000 C.3   711  HIS711      0.1656
    114  C         -1.7380   -7.2890   55.2100 C.2   711  HIS711      0.2291
    115  O         -2.4720   -6.3140   54.9610 O.2   711  HIS711     -0.2864
    116  CB        -2.3550   -9.2860   56.5200 C.3   711  HIS711      0.0771
    117  CG        -3.7640   -9.5650   56.9600 C.ar  711  HIS711      0.0820
    118  ND1       -4.7850   -8.6450   56.8390 N.ar  711  HIS711     -0.2267
    119  CD2       -4.3160  -10.6690   57.5190 C.ar  711  HIS711      0.1154
    120  CE1       -5.9110   -9.1740   57.2950 C.ar  711  HIS711      0.1986
    121  NE2       -5.6550  -10.4040   57.7100 N.ar  711  HIS711     -0.2212
    122  N         -1.7350   -6.3080   51.0610 N.3   714  VAL714     -0.1245
    123  CA        -2.9850   -5.8460   50.3970 C.3   714  VAL714      0.1561
    124  C         -3.4020   -4.5000   50.9420 C.2   714  VAL714      0.2260
    125  O         -3.2600   -3.5160   50.2400 O.2   714  VAL714     -0.2867
    126  CB        -4.1370   -6.8840   50.3590 C.3   714  VAL714      0.0252
    127  CG1       -4.0560   -7.7960   51.5350 C.3   714  VAL714      0.0019
    128  CG2       -5.4860   -6.2040   50.2770 C.3   714  VAL714      0.0019
@<TRIPOS>BOND
     1   125   124    2
     2   128   126    1
     3   126   123    1
     4   126   127    1
     5   123   124    1
     6   123   122    1
     7    23    21   ar
     8    23    25   ar
     9    21    20   ar
    10    25    24   ar
    11    20    19    1
    12    20    22   ar
    13    19    16    1
    14    24    22   ar
    15   111   109    1
    16   106   109    1
    17   106   107    1
    18   106   105    1
    19   110   109    1
    20   108   107    2
    21    17    16    1
    22    17    18    2
    23   107   112   am
    24    16    15    1
    25    39    38    1
    26   112   113    1
    27    40    38    1
    28    38    35    1
    29   115   114    2
    30   113   114    1
    31   113   116    1
    32     4     3    2
    33    35    34    1
    34    35    36    1
    35     3     2    1
    36   116   117    1
    37    34    28   am
    38    36    37    2
    39   118   117   ar
    40   118   120   ar
    41   117   119   ar
    42     2     1    1
    43     2     5    1
    44    26    27    1
    45   120   121   ar
    46   101   100    2
    47    98    99    1
    48   119   121   ar
    49    99   100    1
    50    99   102    1
    51    11    13   ar
    52    11     8   ar
    53    13    14   ar
    54    28    27    1
    55    28    29    2
    56   103   102    1
    57    27    30    1
    58    30    31    1
    59     5     6    1
    60   104   102    1
    61    14    12   ar
    62     8     6   ar
    63     8    10   ar
    64     6     7   ar
    65    92    91    2
    66    33    31    1
    67    97    95   am
    68    31    32    1
    69    47    45    1
    70    90    91    1
    71    90    93    1
    72    90    89    1
    73    10    12   ar
    74    10     9   ar
    75    94    93    1
    76    94    95    1
    77    95    96    2
    78     7     9   ar
    79    41    42    1
    80    45    42    1
    81    45    46    1
    82    43    44    2
    83    43    42    1
    84    87    86    1
    85    63    65   ar
    86    63    61   ar
    87    65    66   ar
    88    60    61    1
    89    60    57    1
    90    61    62   ar
    91    66    64   ar
    92    59    58    2
    93    62    64   ar
    94    86    85    1
    95    86    88    1
    96    58    57    1
    97    57    56    1
    98    85    82    1
    99    56    50   am
   100    82    83    1
   101    82    81    1
   102    48    49    1
   103    83    84    2
   104    50    49    1
   105    50    51    2
   106    52    49    1
   107    52    53    1
   108    53    54    1
   109    54    55    1
   110    75    73   ar
   111    75    76   ar
   112    73    72   ar
   113    76    78   ar
   114    76    74   ar
   115    78    80   ar
   116    72    74   ar
   117    72    71    1
   118    74    77   ar
   119    71    68    1
   120    80    79   ar
   121    77    79   ar
   122    68    69    1
   123    68    67    1
   124    69    70    2
