@<TRIPOS>MOLECULE
tmp/2wseF10.pdb
 108 104 0 0 0
SMALL
GASTEIGER

@<TRIPOS>ATOM
      1  N         17.7600  -24.4040   22.9510 N.3   175  ASN175     -0.1225
      2  CA        18.3460  -24.4590   21.6230 C.3   175  ASN175      0.1785
      3  C         17.1330  -24.4360   20.7520 C.2   175  ASN175      0.2597
      4  O         17.2170  -24.0260   19.5960 O.2   175  ASN175     -0.2718
      5  CB        19.1240  -25.7660   21.3930 C.3   175  ASN175      0.1169
      6  CG        20.0620  -25.7140   20.1980 C.2   175  ASN175      0.2627
      7  OD1       20.8780  -24.7890   20.0560 O.2   175  ASN175     -0.2716
      8  ND2       19.9840  -26.7390   19.3590 N.am  175  ASN175     -0.0877
      9  N         15.9900  -24.8300   21.3380 N.am  176  HIS176     -0.1975
     10  CA        14.7000  -24.8100   20.6440 C.3   176  HIS176      0.1656
     11  C         13.9610  -23.4780   20.8100 C.2   176  HIS176      0.2291
     12  O         13.7550  -22.7230   19.8450 O.2   176  HIS176     -0.2864
     13  CB        13.7880  -25.9690   21.0870 C.3   176  HIS176      0.0771
     14  CG        13.1710  -26.6930   19.9430 C.ar  176  HIS176      0.0820
     15  ND1       12.4600  -26.0330   18.9590 N.ar  176  HIS176     -0.2267
     16  CD2       13.2030  -28.0030   19.5820 C.ar  176  HIS176      0.1154
     17  CE1       12.0540  -26.9090   18.0600 C.ar  176  HIS176      0.1986
     18  NE2       12.4870  -28.1140   18.4160 N.ar  176  HIS176     -0.2212
     19  N         14.6020  -19.7470   19.6060 N.3   179  SER179     -0.1202
     20  CA        14.4160  -19.7360   18.1750 C.3   179  SER179      0.2020
     21  C         12.9510  -20.0590   18.0080 C.2   179  SER179      0.2619
     22  O         12.1210  -19.1510   17.9360 O.2   179  SER179     -0.2717
     23  CB        15.2710  -20.7930   17.4800 C.3   179  SER179      0.2103
     24  OG        15.7690  -20.2630   16.2630 O.3   179  SER179     -0.2182
     25  N         12.6330  -21.3500   18.0050 N.am  180  GLY180     -0.1956
     26  CA        11.2560  -21.8150   17.8640 C.3   180  GLY180      0.1869
     27  C         10.2920  -20.8300   18.4900 C.2   180  GLY180      0.2309
     28  O          9.4870  -20.2030   17.7860 O.2   180  GLY180     -0.2863
     29  N         10.3330  -16.9410   16.1890 N.3   184  VAL184     -0.1245
     30  CA         9.0850  -17.0980   15.4420 C.3   184  VAL184      0.1561
     31  C          7.8740  -16.4790   16.1850 C.2   184  VAL184      0.2260
     32  O          6.8470  -16.1740   15.5580 O.2   184  VAL184     -0.2867
     33  CB         8.8370  -18.6050   15.0900 C.3   184  VAL184      0.0252
     34  CG1        7.3590  -18.8960   14.7240 C.3   184  VAL184      0.0019
     35  CG2        9.7970  -19.0430   13.9860 C.3   184  VAL184      0.0019
     36  N         16.6840  -16.3720   16.1370 N.3   284  LEU284     -0.1245
     37  CA        16.7460  -17.4720   15.1660 C.3   284  LEU284      0.1561
     38  C         18.1990  -17.8190   14.8200 C.2   284  LEU284      0.2260
     39  O         18.5030  -18.9910   14.5420 O.2   284  LEU284     -0.2867
     40  CB        15.9990  -17.0660   13.8810 C.3   284  LEU284      0.0270
     41  CG        14.6440  -17.6940   13.4600 C.3   284  LEU284      0.0019
     42  CD1       14.9210  -19.0570   12.8290 C.3   284  LEU284      0.0001
     43  CD2       13.5780  -17.8190   14.5790 C.3   284  LEU284      0.0001
     44  N         19.6150  -22.4660   17.3290 N.3   288  LEU288     -0.1231
     45  CA        20.7480  -23.0530   16.5890 C.3   288  LEU288      0.1693
     46  C         21.9800  -22.3540   17.1690 C.2   288  LEU288      0.2592
     47  O         22.4360  -21.3290   16.6400 O.2   288  LEU288     -0.2718
     48  CB        20.6780  -22.8060   15.0740 C.3   288  LEU288      0.0284
     49  CG        19.5180  -23.1760   14.1170 C.3   288  LEU288      0.0019
     50  CD1       18.5150  -22.0440   13.8420 C.3   288  LEU288      0.0001
     51  CD2       20.1610  -23.5280   12.8560 C.3   288  LEU288      0.0001
     52  N         22.4260  -22.8640   18.3280 N.am  289  MET289     -0.1965
     53  CA        23.6870  -22.4720   19.0460 C.3   289  MET289      0.1736
     54  C         24.2320  -23.6710   19.8280 C.2   289  MET289      0.2616
     55  O         25.4290  -23.7260   20.2010 O.2   289  MET289     -0.2715
     56  CB        23.5390  -21.2650   20.0110 C.3   289  MET289      0.0427
     57  CG        24.9170  -20.8710   20.6150 C.3   289  MET289      0.0599
     58  SD        25.0310  -19.9640   22.1850 S.3   289  MET289     -0.1393
     59  CE        26.8080  -19.6960   22.3210 C.3   289  MET289      0.0692
     60  N         23.3360  -24.6170   20.1100 N.am  290  TYR290     -0.1960
     61  CA        23.7450  -25.7650   20.8920 C.3   290  TYR290      0.1771
     62  C         23.3320  -27.0220   20.1830 C.2   290  TYR290      0.2619
     63  O         22.4540  -27.0060   19.3140 O.2   290  TYR290     -0.2715
     64  CB        23.1860  -25.7170   22.3400 C.3   290  TYR290      0.0574
     65  CG        23.1370  -24.3140   22.9240 C.ar  290  TYR290     -0.0198
     66  CD1       24.2910  -23.6880   23.3890 C.ar  290  TYR290     -0.0009
     67  CD2       21.9350  -23.6000   22.9510 C.ar  290  TYR290     -0.0009
     68  CE1       24.2420  -22.4020   23.8900 C.ar  290  TYR290      0.0417
     69  CE2       21.8790  -22.2990   23.4590 C.ar  290  TYR290      0.0417
     70  CZ        23.0350  -21.6990   23.9340 C.ar  290  TYR290      0.1957
     71  OH        22.9820  -20.4010   24.4290 O.3   290  TYR290     -0.2866
     72  N         24.0120  -28.1060   20.5580 N.am  291  ARG291     -0.1963
     73  CA        23.6320  -29.4380   20.1540 C.3   291  ARG291      0.1729
     74  C         22.1370  -29.5890   19.9060 C.2   291  ARG291      0.2616
     75  O         21.3090  -28.7100   20.2080 O.2   291  ARG291     -0.2715
     76  CB        24.0610  -30.4940   21.1890 C.3   291  ARG291      0.0348
     77  CG        25.3890  -31.2080   20.8870 C.3   291  ARG291      0.0492
     78  CD        25.5150  -31.6890   19.4270 C.3   291  ARG291      0.2205
     79  NE        25.3190  -30.5880   18.4750 N.pl3 291  ARG291     -0.0865
     80  CZ        24.4480  -30.5980   17.4620 C.cat 291  ARG291      0.5346
     81  NH1       23.6880  -31.6700   17.2200 N.pl3 291  ARG291      0.1354
     82  NH2       24.3450  -29.5170   16.6960 N.pl3 291  ARG291      0.1354
     83  N         21.8310  -30.7250   19.2910 N.am  292  THR292     -0.1951
     84  CA        20.5360  -31.3500   19.3220 C.3   292  THR292      0.1897
     85  C         20.6820  -32.4270   18.3070 C.2   292  THR292      0.2313
     86  O         19.8600  -32.5410   17.4220 O.2   292  THR292     -0.2863
     87  CB        19.3460  -30.4220   19.0050 C.3   292  THR292      0.1794
     88  OG1       19.5340  -29.1480   19.6510 O.3   292  THR292     -0.2208
     89  CG2       18.0670  -31.0360   19.5350 C.3   292  THR292      0.0378
     90  N         22.1020  -33.9550   15.5720 N.3   294  PHE294     -0.1241
     91  CA        22.7280  -33.8280   14.2530 C.3   294  PHE294      0.1605
     92  C         24.2930  -33.6980   14.2190 C.2   294  PHE294      0.2264
     93  O         24.9610  -34.2630   13.3300 O.2   294  PHE294     -0.2867
     94  CB        22.0190  -32.6760   13.5110 C.3   294  PHE294      0.0534
     95  CG        20.4830  -32.7510   13.5800 C.ar  294  PHE294     -0.0203
     96  CD1       19.6980  -32.4280   12.4880 C.ar  294  PHE294     -0.0042
     97  CD2       19.8290  -33.1700   14.7370 C.ar  294  PHE294     -0.0042
     98  CE1       18.2790  -32.5210   12.5650 C.ar  294  PHE294     -0.0003
     99  CE2       18.4370  -33.2460   14.8190 C.ar  294  PHE294     -0.0003
    100  CZ        17.6600  -32.9270   13.7410 C.ar  294  PHE294     -0.0000
    101  N         26.3720  -30.4660   15.1970 N.3   296  ILE296     -0.1245
    102  CA        27.0240  -29.1780   15.0070 C.3   296  ILE296      0.1561
    103  C         27.1170  -28.5190   16.3490 C.2   296  ILE296      0.2260
    104  O         26.9760  -29.1790   17.3820 O.2   296  ILE296     -0.2867
    105  CB        26.2400  -28.2270   14.0810 C.3   296  ILE296      0.0252
    106  CG1       24.7800  -28.7110   13.8920 C.3   296  ILE296      0.0019
    107  CG2       27.0050  -28.0850   12.7520 C.3   296  ILE296      0.0019
    108  CD1       23.7770  -27.6240   13.7520 C.3   296  ILE296      0.0001
@<TRIPOS>BOND
     1    96    98   ar
     2    96    95   ar
     3    98   100   ar
     4   107   105    1
     5    42    41    1
     6    51    49    1
     7    93    92    2
     8    41    40    1
     9    41    43    1
    10    94    95    1
    11    94    91    1
    12    95    97   ar
    13   100    99   ar
    14   108   106    1
    15    50    49    1
    16    40    37    1
    17   106   105    1
    18    35    33    1
    19   105   102    1
    20    49    48    1
    21    92    91    1
    22    91    90    1
    23    39    38    2
    24    34    33    1
    25    97    99   ar
    26    38    37    1
    27   102   101    1
    28   102   103    1
    29    48    45    1
    30    33    30    1
    31    37    36    1
    32    30    31    1
    33    30    29    1
    34    32    31    2
    35    24    23    1
    36   103   104    2
    37    45    46    1
    38    45    44    1
    39    47    46    2
    40    82    80    1
    41    46    52   am
    42    81    80    1
    43    86    85    2
    44    80    79    2
    45    23    20    1
    46    28    27    2
    47    26    25    1
    48    26    27    1
    49    22    21    2
    50    25    21   am
    51    21    20    1
    52    17    18   ar
    53    17    15   ar
    54    20    19    1
    55    85    84    1
    56    52    53    1
    57    18    16   ar
    58    79    78    1
    59    15    14   ar
    60    87    84    1
    61    87    89    1
    62    87    88    1
    63    53    54    1
    64    53    56    1
    65    83    84    1
    66    83    74   am
    67    63    62    2
    68     8     6   am
    69    78    77    1
    70    16    14   ar
    71     4     3    2
    72    54    60   am
    73    54    55    2
    74    12    11    2
    75    74    73    1
    76    74    75    2
    77    14    13    1
    78    56    57    1
    79     7     6    2
    80    60    61    1
    81    73    72    1
    82    73    76    1
    83    62    72   am
    84    62    61    1
    85     6     5    1
    86    57    58    1
    87    10    11    1
    88    10    13    1
    89    10     9    1
    90     3     9   am
    91     3     2    1
    92    77    76    1
    93    61    64    1
    94     5     2    1
    95     2     1    1
    96    58    59    1
    97    64    65    1
    98    65    67   ar
    99    65    66   ar
   100    67    69   ar
   101    66    68   ar
   102    69    70   ar
   103    68    70   ar
   104    70    71    1
