@<TRIPOS>MOLECULE
tmp/2wseF42.pdb
 136 136 0 0 0
SMALL
GASTEIGER

@<TRIPOS>ATOM
      1  N         -5.3100  -20.8410   32.8260 N.3    55  ILE55      -0.1245
      2  CA        -6.0750  -19.8940   33.6350 C.3    55  ILE55       0.1561
      3  C         -5.8170  -18.4820   33.1620 C.2    55  ILE55       0.2260
      4  O         -6.5190  -17.5640   33.5450 O.2    55  ILE55      -0.2867
      5  CB        -5.6640  -19.9920   35.1380 C.3    55  ILE55       0.0252
      6  CG1       -5.6590  -21.4770   35.6620 C.3    55  ILE55       0.0019
      7  CG2       -6.4820  -19.0170   35.9970 C.3    55  ILE55       0.0019
      8  CD1       -6.9760  -22.3370   35.5040 C.3    55  ILE55       0.0001
      9  N         -8.7490  -17.7260   30.4720 N.3    58  LEU58      -0.1231
     10  CA       -10.0800  -17.4690   31.0700 C.3    58  LEU58       0.1693
     11  C        -10.1190  -16.1090   31.7380 C.2    58  LEU58       0.2592
     12  O        -11.1560  -15.6270   32.1980 O.2    58  LEU58      -0.2718
     13  CB       -10.4090  -18.5210   32.1170 C.3    58  LEU58       0.0284
     14  CG       -11.2900  -19.7160   31.7370 C.3    58  LEU58       0.0019
     15  CD1      -11.6980  -20.3940   33.0030 C.3    58  LEU58       0.0001
     16  CD2      -12.5430  -19.3600   30.8620 C.3    58  LEU58       0.0001
     17  N         -8.9430  -15.5090   31.8270 N.am   59  TRP59      -0.1976
     18  CA        -8.7860  -14.1530   32.3060 C.3    59  TRP59       0.1640
     19  C         -9.0020  -13.2640   31.0980 C.2    59  TRP59       0.2290
     20  O        -10.0220  -12.5620   31.0210 O.2    59  TRP59      -0.2864
     21  CB        -7.3660  -14.0300   32.8420 C.3    59  TRP59       0.0576
     22  CG        -6.9880  -12.7620   33.4630 C.ar   59  TRP59       0.0006
     23  CD1       -7.5980  -12.1460   34.5000 C.ar   59  TRP59       0.0946
     24  CD2       -5.8120  -11.9930   33.1580 C.ar   59  TRP59       0.0152
     25  NE1       -6.8980  -11.0160   34.8430 N.ar   59  TRP59      -0.2442
     26  CE2       -5.7990  -10.8990   34.0250 C.ar   59  TRP59       0.0810
     27  CE3       -4.7780  -12.1180   32.2110 C.ar   59  TRP59       0.0012
     28  CZ2       -4.8120   -9.9240   33.9680 C.ar   59  TRP59       0.0191
     29  CZ3       -3.7900  -11.1550   32.1670 C.ar   59  TRP59       0.0001
     30  CH2       -3.8140  -10.0750   33.0360 C.ar   59  TRP59       0.0015
     31  N         -9.9410  -13.8790   28.0180 N.3    61  SER61      -0.1202
     32  CA       -11.2520  -14.0560   27.3730 C.3    61  SER61       0.2020
     33  C        -12.2690  -13.0210   27.8610 C.2    61  SER61       0.2619
     34  O        -12.8140  -12.2190   27.0890 O.2    61  SER61      -0.2717
     35  CB       -11.8140  -15.4120   27.7170 C.3    61  SER61       0.2103
     36  OG       -12.2910  -15.3440   29.0470 O.3    61  SER61      -0.2182
     37  N        -12.5050  -13.0670   29.1730 N.am   62  GLY62      -0.1942
     38  CA       -13.4770  -12.2070   29.8620 C.3    62  GLY62       0.2014
     39  C        -13.0930  -10.7330   29.8310 C.2    62  GLY62       0.2638
     40  O        -13.9580   -9.8240   29.9250 O.2    62  GLY62      -0.2714
     41  N        -11.7830  -10.4980   29.6960 N.am   63  ASN63      -0.1972
     42  CA       -11.2950   -9.1540   29.5360 C.3    63  ASN63       0.1688
     43  C        -11.8640   -8.6520   28.2240 C.2    63  ASN63       0.2292
     44  O        -12.4440   -7.5600   28.1360 O.2    63  ASN63      -0.2864
     45  CB        -9.7550   -9.1370   29.6160 C.3    63  ASN63       0.1181
     46  CG        -9.2240   -9.6940   30.9650 C.2    63  ASN63       0.2629
     47  OD1       -9.9970   -9.8670   31.9460 O.2    63  ASN63      -0.2716
     48  ND2       -7.9040   -9.9850   31.0120 N.am   63  ASN63      -0.0877
     49  N        -14.5160   -9.8310   26.9230 N.3    65  PHE65      -0.1227
     50  CA       -15.9380  -10.1600   26.9500 C.3    65  PHE65       0.1736
     51  C        -16.8190   -9.2960   27.8550 C.2    65  PHE65       0.2595
     52  O        -18.0450   -9.3830   27.8070 O.2    65  PHE65      -0.2718
     53  CB       -16.1310  -11.6290   27.2870 C.3    65  PHE65       0.0547
     54  CG       -17.5760  -12.0510   27.3410 C.ar   65  PHE65      -0.0202
     55  CD1      -18.2950  -12.2550   26.1960 C.ar   65  PHE65      -0.0042
     56  CD2      -18.2030  -12.2540   28.5590 C.ar   65  PHE65      -0.0042
     57  CE1      -19.5880  -12.6310   26.2640 C.ar   65  PHE65      -0.0003
     58  CE2      -19.5230  -12.6380   28.6280 C.ar   65  PHE65      -0.0003
     59  CZ       -20.2150  -12.8290   27.4870 C.ar   65  PHE65      -0.0000
     60  N        -16.2120   -8.4710   28.6930 N.am   66  HIS66      -0.1975
     61  CA       -16.9940   -7.3720   29.2570 C.3    66  HIS66       0.1656
     62  C        -16.6780   -6.0730   28.5290 C.2    66  HIS66       0.2291
     63  O        -16.2410   -5.0670   29.0970 O.2    66  HIS66      -0.2864
     64  CB       -16.9060   -7.3010   30.7810 C.3    66  HIS66       0.0771
     65  CG       -18.2360   -7.5970   31.4470 C.ar   66  HIS66       0.0820
     66  ND1      -18.5900   -8.8580   31.9090 N.ar   66  HIS66      -0.2267
     67  CD2      -19.3250   -6.7970   31.6580 C.ar   66  HIS66       0.1154
     68  CE1      -19.8350   -8.8150   32.3830 C.ar   66  HIS66       0.1986
     69  NE2      -20.3030   -7.5780   32.2410 N.ar   66  HIS66      -0.2212
     70  N        -20.6310   -5.5010   23.8610 N.3    69  TRP69      -0.1241
     71  CA       -22.0920   -5.3140   23.8780 C.3    69  TRP69       0.1605
     72  C        -22.5130   -4.0780   24.7490 C.2    69  TRP69       0.2264
     73  O        -23.7170   -3.7110   24.8250 O.2    69  TRP69      -0.2867
     74  CB       -22.7730   -6.6350   24.3290 C.3    69  TRP69       0.0550
     75  CG       -22.3040   -7.1670   25.7020 C.ar   69  TRP69       0.0003
     76  CD1      -21.1380   -6.8600   26.3450 C.ar   69  TRP69       0.0946
     77  CD2      -22.9950   -8.1120   26.5370 C.ar   69  TRP69       0.0152
     78  NE1      -21.0720   -7.5210   27.5330 N.ar   69  TRP69      -0.2442
     79  CE2      -22.1950   -8.3070   27.6760 C.ar   69  TRP69       0.0810
     80  CE3      -24.2110   -8.8140   26.4310 C.ar   69  TRP69       0.0012
     81  CZ2      -22.5770   -9.1600   28.7220 C.ar   69  TRP69       0.0191
     82  CZ3      -24.5930   -9.6650   27.4670 C.ar   69  TRP69       0.0001
     83  CH2      -23.7800   -9.8230   28.6030 C.ar   69  TRP69       0.0015
     84  N        -16.6870   -2.9970   33.0010 N.3    88  HIS88      -0.1226
     85  CA       -17.8340   -3.8840   33.1730 C.3    88  HIS88       0.1752
     86  C        -18.8910   -3.2050   34.0200 C.2    88  HIS88       0.2595
     87  O        -18.6420   -2.1540   34.6240 O.2    88  HIS88      -0.2718
     88  CB       -17.4110   -5.2240   33.8220 C.3    88  HIS88       0.0759
     89  CG       -16.9460   -5.0990   35.2440 C.ar   88  HIS88       0.0818
     90  ND1      -15.9930   -4.1800   35.6490 N.ar   88  HIS88      -0.2268
     91  CD2      -17.2780   -5.8130   36.3470 C.ar   88  HIS88       0.1154
     92  CE1      -15.7730   -4.3170   36.9410 C.ar   88  HIS88       0.1986
     93  NE2      -16.5370   -5.3040   37.3880 N.ar   88  HIS88      -0.2212
     94  N        -20.0730   -3.8380   34.0680 N.am   89  ALA89      -0.1980
     95  CA       -21.2410   -3.2750   34.7470 C.3    89  ALA89       0.1597
     96  C        -21.2860   -3.6550   36.2220 C.2    89  ALA89       0.2287
     97  O        -21.4330   -4.8220   36.6040 O.2    89  ALA89      -0.2864
     98  CB       -22.5440   -3.6520   34.0170 C.3    89  ALA89       0.0319
     99  N        -22.9620   -4.1530   39.5940 N.3    91  TRP91      -0.1241
    100  CA       -24.2950   -4.6760   39.9400 C.3    91  TRP91       0.1605
    101  C        -24.3200   -5.1510   41.4230 C.2    91  TRP91       0.2264
    102  O        -24.2110   -6.3640   41.6800 O.2    91  TRP91      -0.2867
    103  CB       -24.6390   -5.8470   38.9800 C.3    91  TRP91       0.0550
    104  CG       -25.8380   -6.5890   39.4140 C.ar   91  TRP91       0.0003
    105  CD1      -25.8800   -7.6360   40.2940 C.ar   91  TRP91       0.0946
    106  CD2      -27.2120   -6.3080   39.0610 C.ar   91  TRP91       0.0152
    107  NE1      -27.1970   -8.0270   40.5110 N.ar   91  TRP91      -0.2442
    108  CE2      -28.0290   -7.2300   39.7580 C.ar   91  TRP91       0.0810
    109  CE3      -27.8300   -5.3690   38.2290 C.ar   91  TRP91       0.0012
    110  CZ2      -29.4240   -7.2340   39.6390 C.ar   91  TRP91       0.0191
    111  CZ3      -29.2040   -5.3850   38.1140 C.ar   91  TRP91       0.0001
    112  CH2      -29.9850   -6.3150   38.8010 C.ar   91  TRP91       0.0015
    113  N        -13.2050  -14.0090   23.6280 N.3   138  ALA138     -0.1245
    114  CA       -13.2860  -15.3210   24.2700 C.3   138  ALA138      0.1562
    115  C        -13.2010  -16.3180   23.1400 C.2   138  ALA138      0.2260
    116  O        -12.1550  -16.9270   22.9280 O.2   138  ALA138     -0.2867
    117  CB       -14.6050  -15.4930   25.0630 C.3   138  ALA138      0.0290
    118  N        -10.4600  -18.7010   24.1170 N.3   142  LEU142     -0.1245
    119  CA       -11.0240  -19.7300   24.9800 C.3   142  LEU142      0.1561
    120  C        -11.0450  -21.0910   24.2650 C.2   142  LEU142      0.2260
    121  O        -10.7460  -22.1340   24.8800 O.2   142  LEU142     -0.2867
    122  CB       -12.4060  -19.2820   25.5170 C.3   142  LEU142      0.0270
    123  CG       -13.2850  -20.4090   26.0790 C.3   142  LEU142      0.0019
    124  CD1      -13.8720  -20.0240   27.4270 C.3   142  LEU142      0.0001
    125  CD2      -14.3810  -20.8150   25.0970 C.3   142  LEU142      0.0001
    126  N         -8.7690  -23.8680   26.4900 N.3   146  PHE146     -0.1241
    127  CA        -9.1780  -25.2350   26.8550 C.3   146  PHE146      0.1605
    128  C         -8.1160  -26.2690   26.4120 C.2   146  PHE146      0.2264
    129  O         -7.8520  -27.2550   27.1160 O.2   146  PHE146     -0.2867
    130  CB       -10.5670  -25.5750   26.2570 C.3   146  PHE146      0.0534
    131  CG       -11.8080  -25.1470   26.9840 C.ar  146  PHE146     -0.0203
    132  CD1      -11.6830  -24.3700   28.0500 C.ar  146  PHE146     -0.0042
    133  CD2      -13.0600  -25.4580   26.5240 C.ar  146  PHE146     -0.0042
    134  CE1      -12.8220  -23.9200   28.7750 C.ar  146  PHE146     -0.0003
    135  CE2      -14.1980  -24.9690   27.2160 C.ar  146  PHE146     -0.0003
    136  CZ       -14.0600  -24.2500   28.3320 C.ar  146  PHE146     -0.0000
@<TRIPOS>BOND
     1   116   115    2
     2   115   114    1
     3   113   114    1
     4    70    71    1
     5    71    74    1
     6    71    72    1
     7   118   119    1
     8   120   121    2
     9   120   119    1
    10   114   117    1
    11    74    75    1
    12    72    73    2
    13   119   122    1
    14   125   123    1
    15   122   123    1
    16    75    76   ar
    17    75    77   ar
    18   123   124    1
    19    55    57   ar
    20    55    54   ar
    21   130   127    1
    22   130   131    1
    23    57    59   ar
    24    76    78   ar
    25   128   127    1
    26   128   129    2
    27    80    77   ar
    28    80    82   ar
    29   126   127    1
    30   133   131   ar
    31   133   135   ar
    32    77    79   ar
    33    49    50    1
    34    50    53    1
    35    50    51    1
    36   131   132   ar
    37    34    33    2
    38   135   136   ar
    39    53    54    1
    40    54    56   ar
    41    32    35    1
    42    32    33    1
    43    32    31    1
    44    82    83   ar
    45    59    58   ar
    46    78    79   ar
    47    79    81   ar
    48    35    36    1
    49    52    51    2
    50    51    60   am
    51    33    37   am
    52   132   134   ar
    53    44    43    2
    54    43    42    1
    55   136   134   ar
    56    62    63    2
    57    62    61    1
    58    56    58   ar
    59    83    81   ar
    60    60    61    1
    61    37    38    1
    62    61    64    1
    63    42    45    1
    64    42    41    1
    65    45    46    1
    66    41    39   am
    67    39    38    1
    68    39    40    2
    69     9    10    1
    70    64    65    1
    71    16    14    1
    72    46    48   am
    73    46    47    2
    74    20    19    2
    75    10    11    1
    76    10    13    1
    77    19    18    1
    78    65    67   ar
    79    65    66   ar
    80    67    69   ar
    81    14    13    1
    82    14    15    1
    83    11    17   am
    84    11    12    2
    85    17    18    1
    86    66    68   ar
    87    29    27   ar
    88    29    30   ar
    89    27    24   ar
    90    69    68   ar
    91    18    21    1
    92     1     2    1
    93    21    22    1
    94    84    85    1
    95    30    28   ar
    96    24    22   ar
    97    24    26   ar
    98     3     4    2
    99     3     2    1
   100    85    88    1
   101    85    86    1
   102    22    23   ar
   103     2     5    1
   104    88    89    1
   105    28    26   ar
   106    98    95    1
   107    86    94   am
   108    86    87    2
   109    26    25   ar
   110    94    95    1
   111    23    25   ar
   112    95    96    1
   113     5     6    1
   114     5     7    1
   115    89    90   ar
   116    89    91   ar
   117     8     6    1
   118    90    92   ar
   119    96    97    2
   120    91    93   ar
   121    92    93   ar
   122   111   109   ar
   123   111   112   ar
   124   109   106   ar
   125   112   110   ar
   126   103   104    1
   127   103   100    1
   128   106   104   ar
   129   106   108   ar
   130   104   105   ar
   131    99   100    1
   132   110   108   ar
   133   108   107   ar
   134   100   101    1
   135   105   107   ar
   136   101   102    2
