@<TRIPOS>MOLECULE
tmp/2wseF33.pdb
 101 94 0 0 0
SMALL
GASTEIGER

@<TRIPOS>ATOM
      1  N         10.3330  -16.9410   16.1890 N.3   184  VAL184     -0.1245
      2  CA         9.0850  -17.0980   15.4420 C.3   184  VAL184      0.1561
      3  C          7.8740  -16.4790   16.1850 C.2   184  VAL184      0.2260
      4  O          6.8470  -16.1740   15.5580 O.2   184  VAL184     -0.2867
      5  CB         8.8370  -18.6050   15.0900 C.3   184  VAL184      0.0252
      6  CG1        7.3590  -18.8960   14.7240 C.3   184  VAL184      0.0019
      7  CG2        9.7970  -19.0430   13.9860 C.3   184  VAL184      0.0019
      8  N          8.8310  -12.6130   14.8790 N.3   187  LEU187     -0.1245
      9  CA         8.3940  -12.8690   13.5080 C.3   187  LEU187      0.1561
     10  C          6.8460  -12.8560   13.4770 C.2   187  LEU187      0.2260
     11  O          6.2560  -11.7900   13.3990 O.2   187  LEU187     -0.2867
     12  CB         9.0050  -14.1650   12.9340 C.3   187  LEU187      0.0270
     13  CG         8.2260  -15.0060   11.9030 C.3   187  LEU187      0.0019
     14  CD1        7.6970  -14.1630   10.7530 C.3   187  LEU187      0.0001
     15  CD2        9.1120  -16.1510   11.3670 C.3   187  LEU187      0.0001
     16  N          0.5200   -7.0940    8.1000 N.3   195  HIS195     -0.1241
     17  CA        -0.5770   -7.3970    7.1740 C.3   195  HIS195      0.1621
     18  C         -1.9500   -6.8600    7.6330 C.2   195  HIS195      0.2264
     19  O         -2.7800   -6.4140    6.8400 O.2   195  HIS195     -0.2867
     20  CB        -0.7040   -8.9080    6.9510 C.3   195  HIS195      0.0745
     21  CG         0.2740   -9.4630    5.9480 C.ar  195  HIS195      0.0817
     22  ND1        0.5390   -8.8390    4.7450 N.ar  195  HIS195     -0.2268
     23  CD2        1.0350  -10.5990    5.9680 C.ar  195  HIS195      0.1154
     24  CE1        1.4400   -9.5540    4.0800 C.ar  195  HIS195      0.1986
     25  NE2        1.7550  -10.6250    4.7990 N.ar  195  HIS195     -0.2212
     26  N         11.7830   -7.0400   -2.4520 N.3   224  LEU224     -0.1231
     27  CA        11.8280   -7.5680   -1.0910 C.3   224  LEU224      0.1693
     28  C         12.7550   -8.7750   -0.9050 C.2   224  LEU224      0.2591
     29  O         13.7430   -8.6980   -0.1550 O.2   224  LEU224     -0.2718
     30  CB        10.3960   -7.9070   -0.6070 C.3   224  LEU224      0.0284
     31  CG        10.0720   -8.2910    0.8510 C.3   224  LEU224      0.0019
     32  CD1       10.0660   -9.8210    1.0890 C.3   224  LEU224      0.0001
     33  CD2       11.0200   -7.5810    1.8300 C.3   224  LEU224      0.0001
     34  N         12.3760   -9.9010   -1.5300 N.am  225  LEU225     -0.1980
     35  CA        13.2730  -11.0550   -1.7040 C.3   225  LEU225      0.1596
     36  C         14.4040  -10.5500   -2.6070 C.2   225  LEU225      0.2287
     37  O         15.5920  -10.8640   -2.4020 O.2   225  LEU225     -0.2864
     38  CB        12.5270  -12.2410   -2.3340 C.3   225  LEU225      0.0297
     39  CG        12.0120  -13.3070   -1.3420 C.3   225  LEU225      0.0022
     40  CD1       10.4650  -13.4500   -1.3670 C.3   225  LEU225      0.0001
     41  CD2       12.7140  -14.6720   -1.5530 C.3   225  LEU225      0.0001
     42  N         10.3650   -7.6800   13.7100 N.3   277  LEU277     -0.1245
     43  CA        11.1400   -8.2970   12.6610 C.3   277  LEU277      0.1561
     44  C         12.6110   -8.2510   13.1450 C.2   277  LEU277      0.2260
     45  O         13.1040   -9.2250   13.7290 O.2   277  LEU277     -0.2867
     46  CB        10.9350   -7.4990   11.3810 C.3   277  LEU277      0.0270
     47  CG        11.0330   -8.1300    9.9980 C.3   277  LEU277      0.0019
     48  CD1       12.2580   -9.0040    9.9050 C.3   277  LEU277      0.0001
     49  CD2        9.7650   -8.9160    9.6370 C.3   277  LEU277      0.0001
     50  N         13.9110  -10.6490   15.4290 N.3   280  ALA280     -0.1231
     51  CA        13.6150  -12.0130   14.9310 C.3   280  ALA280      0.1694
     52  C         14.6430  -12.7430   13.9730 C.2   280  ALA280      0.2592
     53  O         14.4590  -13.9260   13.6580 O.2   280  ALA280     -0.2718
     54  CB        12.1650  -12.0720   14.3660 C.3   280  ALA280      0.0304
     55  N         15.7090  -12.0770   13.5160 N.am  281  PHE281     -0.1976
     56  CA        16.8380  -12.8480   12.9740 C.3   281  PHE281      0.1639
     57  C         17.7280  -13.3570   14.1160 C.2   281  PHE281      0.2290
     58  O         17.9190  -14.5730   14.2920 O.2   281  PHE281     -0.2864
     59  CB        17.6520  -12.0470   11.9510 C.3   281  PHE281      0.0560
     60  CG        16.8230  -11.5650   10.8040 C.ar  281  PHE281     -0.0200
     61  CD1       15.7810  -12.3630   10.2910 C.ar  281  PHE281     -0.0042
     62  CD2       17.0510  -10.3160   10.2360 C.ar  281  PHE281     -0.0042
     63  CE1       14.9850  -11.9160    9.2280 C.ar  281  PHE281     -0.0003
     64  CE2       16.2640   -9.8640    9.1740 C.ar  281  PHE281     -0.0003
     65  CZ        15.2350  -10.6640    8.6740 C.ar  281  PHE281     -0.0000
     66  N         16.6840  -16.3720   16.1370 N.3   284  LEU284     -0.1231
     67  CA        16.7460  -17.4720   15.1660 C.3   284  LEU284      0.1693
     68  C         18.1990  -17.8190   14.8200 C.2   284  LEU284      0.2591
     69  O         18.5030  -18.9910   14.5420 O.2   284  LEU284     -0.2718
     70  CB        15.9990  -17.0660   13.8810 C.3   284  LEU284      0.0284
     71  CG        14.6440  -17.6940   13.4600 C.3   284  LEU284      0.0019
     72  CD1       14.9210  -19.0570   12.8290 C.3   284  LEU284      0.0001
     73  CD2       13.5780  -17.8190   14.5790 C.3   284  LEU284      0.0001
     74  N         19.0700  -16.7920   14.8150 N.am  285  ILE285     -0.1980
     75  CA        20.5140  -16.9550   14.5760 C.3   285  ILE285      0.1595
     76  C         21.1300  -17.4620   15.8370 C.2   285  ILE285      0.2287
     77  O         22.0720  -18.2380   15.8170 O.2   285  ILE285     -0.2864
     78  CB        21.2270  -15.6430   14.1590 C.3   285  ILE285      0.0276
     79  CG1       20.4960  -14.9670   12.9970 C.3   285  ILE285      0.0022
     80  CG2       22.6620  -15.9240   13.6920 C.3   285  ILE285      0.0022
     81  CD1       21.0460  -13.5900   12.5870 C.3   285  ILE285      0.0001
     82  N         19.6150  -22.4660   17.3290 N.3   288  LEU288     -0.1245
     83  CA        20.7480  -23.0530   16.5890 C.3   288  LEU288      0.1561
     84  C         21.9800  -22.3540   17.1690 C.2   288  LEU288      0.2260
     85  O         22.4360  -21.3290   16.6400 O.2   288  LEU288     -0.2867
     86  CB        20.6780  -22.8060   15.0740 C.3   288  LEU288      0.0270
     87  CG        19.5180  -23.1760   14.1170 C.3   288  LEU288      0.0019
     88  CD1       18.5150  -22.0440   13.8420 C.3   288  LEU288      0.0001
     89  CD2       20.1610  -23.5280   12.8560 C.3   288  LEU288      0.0001
     90  N         26.3720  -30.4660   15.1970 N.3   296  ILE296     -0.1231
     91  CA        27.0240  -29.1780   15.0070 C.3   296  ILE296      0.1692
     92  C         27.1170  -28.5190   16.3490 C.2   296  ILE296      0.2592
     93  O         26.9760  -29.1790   17.3820 O.2   296  ILE296     -0.2718
     94  CB        26.2400  -28.2270   14.0810 C.3   296  ILE296      0.0266
     95  CG1       24.7800  -28.7110   13.8920 C.3   296  ILE296      0.0019
     96  CG2       27.0050  -28.0850   12.7520 C.3   296  ILE296      0.0020
     97  CD1       23.7770  -27.6240   13.7520 C.3   296  ILE296      0.0001
     98  N         27.3650  -27.2120   16.3410 N.am  297  GLY297     -0.1957
     99  CA        27.3280  -26.4250   17.5650 C.3   297  GLY297      0.1869
    100  C         27.9740  -27.0020   18.8190 C.2   297  GLY297      0.2309
    101  O         29.0890  -27.5590   18.7700 O.2   297  GLY297     -0.2863
@<TRIPOS>BOND
     1    36    37    2
     2    36    35    1
     3    26    27    1
     4    38    35    1
     5    38    39    1
     6    35    34    1
     7    41    39    1
     8    34    28   am
     9    40    39    1
    10    27    28    1
    11    27    30    1
    12    28    29    2
    13    30    31    1
    14    31    32    1
    15    31    33    1
    16    24    22   ar
    17    24    25   ar
    18    22    21   ar
    19    25    23   ar
    20    21    23   ar
    21    21    20    1
    22    19    18    2
    23    20    17    1
    24    17    18    1
    25    17    16    1
    26    65    64   ar
    27    65    63   ar
    28    64    62   ar
    29    63    61   ar
    30    49    47    1
    31    48    47    1
    32    47    46    1
    33    62    60   ar
    34    61    60   ar
    35    14    13    1
    36    60    59    1
    37    15    13    1
    38    46    43    1
    39    13    12    1
    40    59    56    1
    41    81    79    1
    42    43    44    1
    43    43    42    1
    44    96    94    1
    45    72    71    1
    46    89    87    1
    47    12     9    1
    48    56    55    1
    49    56    57    1
    50    79    78    1
    51    44    45    2
    52    11    10    2
    53    71    70    1
    54    71    73    1
    55    10     9    1
    56     9     8    1
    57    55    52   am
    58    53    52    2
    59    80    78    1
    60    97    95    1
    61    88    87    1
    62    70    67    1
    63    95    94    1
    64    52    51    1
    65     7     5    1
    66    94    91    1
    67    57    58    2
    68    87    86    1
    69    78    75    1
    70    54    51    1
    71    69    68    2
    72    75    74    1
    73    75    76    1
    74     6     5    1
    75    74    68   am
    76    68    67    1
    77    51    50    1
    78    91    90    1
    79    91    92    1
    80    86    83    1
    81     5     2    1
    82    67    66    1
    83     2     3    1
    84     2     1    1
    85     4     3    2
    86    77    76    2
    87    98    92   am
    88    98    99    1
    89    92    93    2
    90    83    84    1
    91    83    82    1
    92    85    84    2
    93    99   100    1
    94   101   100    2
