@<TRIPOS>MOLECULE
tmp/2wseF34.pdb
 97 93 0 0 0
SMALL
GASTEIGER

@<TRIPOS>ATOM
      1  N         -0.8730  -21.3470   31.7240 N.3    53  LEU53      -0.1245
      2  CA        -1.3330  -20.8680   30.4310 C.3    53  LEU53       0.1561
      3  C         -2.8530  -20.9160   30.4140 C.2    53  LEU53       0.2260
      4  O         -3.4910  -20.0080   29.8800 O.2    53  LEU53      -0.2867
      5  CB        -0.7930  -21.7250   29.2920 C.3    53  LEU53       0.0270
      6  CG         0.6410  -21.5340   28.8160 C.3    53  LEU53       0.0019
      7  CD1        1.5770  -21.8690   29.9350 C.3    53  LEU53       0.0001
      8  CD2        0.8370  -22.4830   27.6530 C.3    53  LEU53       0.0001
      9  N         -4.7880  -18.3020   32.3360 N.3    56  ILE56      -0.1231
     10  CA        -4.4390  -16.9590   31.8010 C.3    56  ILE56       0.1692
     11  C         -5.3390  -16.5760   30.6310 C.2    56  ILE56       0.2592
     12  O         -5.4640  -15.3840   30.3120 O.2    56  ILE56      -0.2718
     13  CB        -2.9050  -16.8110   31.4640 C.3    56  ILE56       0.0266
     14  CG1       -2.2040  -16.0480   32.5710 C.3    56  ILE56       0.0019
     15  CG2       -2.6850  -15.9700   30.2470 C.3    56  ILE56       0.0020
     16  CD1       -0.7850  -16.3960   32.7050 C.3    56  ILE56       0.0001
     17  N         -5.9730  -17.5860   30.0290 N.am   57  PHE57      -0.1976
     18  CA        -6.8730  -17.3630   28.9050 C.3    57  PHE57       0.1639
     19  C         -8.3700  -17.2290   29.2880 C.2    57  PHE57       0.2290
     20  O         -9.1470  -16.6300   28.5390 O.2    57  PHE57      -0.2864
     21  CB        -6.6320  -18.3720   27.7700 C.3    57  PHE57       0.0560
     22  CG        -5.2110  -18.3180   27.1570 C.ar   57  PHE57      -0.0200
     23  CD1       -4.3060  -17.3200   27.4930 C.ar   57  PHE57      -0.0042
     24  CD2       -4.8110  -19.2710   26.2240 C.ar   57  PHE57      -0.0042
     25  CE1       -3.0370  -17.2840   26.9340 C.ar   57  PHE57      -0.0003
     26  CE2       -3.5400  -19.2300   25.6610 C.ar   57  PHE57      -0.0003
     27  CZ        -2.6520  -18.2290   26.0140 C.ar   57  PHE57      -0.0000
     28  N         -8.9430  -15.5090   31.8270 N.3    59  TRP59      -0.1241
     29  CA        -8.7860  -14.1530   32.3060 C.3    59  TRP59       0.1605
     30  C         -9.0020  -13.2640   31.0980 C.2    59  TRP59       0.2264
     31  O        -10.0220  -12.5620   31.0210 O.2    59  TRP59      -0.2867
     32  CB        -7.3660  -14.0300   32.8420 C.3    59  TRP59       0.0550
     33  CG        -6.9880  -12.7620   33.4630 C.ar   59  TRP59       0.0003
     34  CD1       -7.5980  -12.1460   34.5000 C.ar   59  TRP59       0.0946
     35  CD2       -5.8120  -11.9930   33.1580 C.ar   59  TRP59       0.0152
     36  NE1       -6.8980  -11.0160   34.8430 N.ar   59  TRP59      -0.2442
     37  CE2       -5.7990  -10.8990   34.0250 C.ar   59  TRP59       0.0810
     38  CE3       -4.7780  -12.1180   32.2110 C.ar   59  TRP59       0.0012
     39  CZ2       -4.8120   -9.9240   33.9680 C.ar   59  TRP59       0.0191
     40  CZ3       -3.7900  -11.1550   32.1670 C.ar   59  TRP59       0.0001
     41  CH2       -3.8140  -10.0750   33.0360 C.ar   59  TRP59       0.0015
     42  N         -8.9870  -21.6620   22.7560 N.3   144  LEU144     -0.1245
     43  CA        -7.5790  -21.8370   23.0050 C.3   144  LEU144      0.1561
     44  C         -7.4440  -22.3150   24.4380 C.2   144  LEU144      0.2260
     45  O         -7.0040  -23.4410   24.6790 O.2   144  LEU144     -0.2867
     46  CB        -6.8550  -20.5080   22.7850 C.3   144  LEU144      0.0270
     47  CG        -5.5800  -20.4710   21.9510 C.3   144  LEU144      0.0019
     48  CD1       -4.3770  -20.8070   22.8110 C.3   144  LEU144      0.0001
     49  CD2       -5.7260  -21.4370   20.8090 C.3   144  LEU144      0.0001
     50  N         12.6330  -21.3500   18.0050 N.3   180  GLY180     -0.1210
     51  CA        11.2560  -21.8150   17.8640 C.3   180  GLY180      0.1956
     52  C         10.2920  -20.8300   18.4900 C.2   180  GLY180      0.2611
     53  O          9.4870  -20.2030   17.7860 O.2   180  GLY180     -0.2717
     54  N         10.4030  -20.6820   19.8170 N.am  181  LEU181     -0.1979
     55  CA         9.5410  -19.7840   20.6290 C.3   181  LEU181      0.1596
     56  C          9.7280  -18.3120   20.2600 C.2   181  LEU181      0.2287
     57  O          9.2990  -17.8870   19.1810 O.2   181  LEU181     -0.2864
     58  CB         9.8000  -20.0140   22.1210 C.3   181  LEU181      0.0297
     59  CG         9.0620  -19.2200   23.2080 C.3   181  LEU181      0.0022
     60  CD1        7.5570  -19.3150   23.1150 C.3   181  LEU181      0.0001
     61  CD2        9.4900  -19.6910   24.5810 C.3   181  LEU181      0.0001
     62  N         10.3330  -16.9410   16.1890 N.3   184  VAL184     -0.1231
     63  CA         9.0850  -17.0980   15.4420 C.3   184  VAL184      0.1692
     64  C          7.8740  -16.4790   16.1850 C.2   184  VAL184      0.2592
     65  O          6.8470  -16.1740   15.5580 O.2   184  VAL184     -0.2718
     66  CB         8.8370  -18.6050   15.0900 C.3   184  VAL184      0.0266
     67  CG1        7.3590  -18.8960   14.7240 C.3   184  VAL184      0.0020
     68  CG2        9.7970  -19.0430   13.9860 C.3   184  VAL184      0.0020
     69  N          7.9910  -16.2890   17.5020 N.am  185  SER185     -0.1952
     70  CA         6.8940  -15.7290   18.3000 C.3   185  SER185      0.1924
     71  C          6.8430  -14.2460   18.0500 C.2   185  SER185      0.2314
     72  O          5.7690  -13.6620   17.8270 O.2   185  SER185     -0.2863
     73  CB         7.1190  -15.9870   19.7710 C.3   185  SER185      0.2116
     74  OG         5.9270  -15.7300   20.5190 O.3   185  SER185     -0.2180
     75  N          8.8310  -12.6130   14.8790 N.3   187  LEU187     -0.1231
     76  CA         8.3940  -12.8690   13.5080 C.3   187  LEU187      0.1693
     77  C          6.8460  -12.8560   13.4770 C.2   187  LEU187      0.2591
     78  O          6.2560  -11.7900   13.3990 O.2   187  LEU187     -0.2718
     79  CB         9.0050  -14.1650   12.9340 C.3   187  LEU187      0.0284
     80  CG         8.2260  -15.0060   11.9030 C.3   187  LEU187      0.0019
     81  CD1        7.6970  -14.1630   10.7530 C.3   187  LEU187      0.0001
     82  CD2        9.1120  -16.1510   11.3670 C.3   187  LEU187      0.0001
     83  N          6.1960  -14.0200   13.6120 N.am  188  ALA188     -0.1980
     84  CA         4.7130  -14.1430   13.5370 C.3   188  ALA188      0.1597
     85  C          3.9110  -12.9290   14.0190 C.2   188  ALA188      0.2287
     86  O          2.8620  -12.5940   13.4650 O.2   188  ALA188     -0.2864
     87  CB         4.2330  -15.3930   14.2450 C.3   188  ALA188      0.0319
     88  N          3.6720   -3.4860   38.0220 N.3   374  HIS374     -0.1241
     89  CA         4.7170   -3.7810   37.0560 C.3   374  HIS374      0.1621
     90  C          5.8640   -3.0950   37.6750 C.2   374  HIS374      0.2264
     91  O          6.9720   -3.0840   37.1290 O.2   374  HIS374     -0.2867
     92  CB         4.4940   -3.0430   35.7470 C.3   374  HIS374      0.0745
     93  CG         3.7880   -3.8400   34.7050 C.ar  374  HIS374      0.0817
     94  ND1        3.8400   -5.2190   34.6590 N.ar  374  HIS374     -0.2268
     95  CD2        3.0190   -3.4510   33.6650 C.ar  374  HIS374      0.1154
     96  CE1        3.1170   -5.6460   33.6440 C.ar  374  HIS374      0.1986
     97  NE2        2.6160   -4.5970   33.0180 N.ar  374  HIS374     -0.2212
@<TRIPOS>BOND
     1    81    80    1
     2    82    80    1
     3    80    79    1
     4    79    76    1
     5    78    77    2
     6    86    85    2
     7    77    76    1
     8    77    83   am
     9    76    75    1
    10    84    83    1
    11    84    85    1
    12    84    87    1
    13    68    66    1
    14    67    66    1
    15    66    63    1
    16    63    64    1
    17    63    62    1
    18    65    64    2
    19    64    69   am
    20    69    70    1
    21    53    52    2
    22    72    71    2
    23    51    50    1
    24    51    52    1
    25    71    70    1
    26    70    73    1
    27    52    54   am
    28    57    56    2
    29    73    74    1
    30    54    55    1
    31    56    55    1
    32    55    58    1
    33    49    47    1
    34    47    46    1
    35    47    48    1
    36    58    59    1
    37    42    43    1
    38    46    43    1
    39    43    44    1
    40    60    59    1
    41    59    61    1
    42    44    45    2
    43    26    27   ar
    44    26    24   ar
    45    27    25   ar
    46    24    22   ar
    47    25    23   ar
    48    22    23   ar
    49    22    21    1
    50     8     6    1
    51    21    18    1
    52    20    19    2
    53     6     5    1
    54     6     7    1
    55    18    19    1
    56    18    17    1
    57     5     2    1
    58     4     3    2
    59    17    11   am
    60    15    13    1
    61    12    11    2
    62     3     2    1
    63     2     1    1
    64    11    10    1
    65    31    30    2
    66    30    29    1
    67    13    10    1
    68    13    14    1
    69    10     9    1
    70    28    29    1
    71    40    38   ar
    72    40    41   ar
    73    38    35   ar
    74    29    32    1
    75    14    16    1
    76    32    33    1
    77    97    96   ar
    78    97    95   ar
    79    41    39   ar
    80    35    33   ar
    81    35    37   ar
    82    33    34   ar
    83    96    94   ar
    84    95    93   ar
    85    39    37   ar
    86    37    36   ar
    87    34    36   ar
    88    94    93   ar
    89    93    92    1
    90    92    89    1
    91    89    90    1
    92    89    88    1
    93    91    90    2
