@<TRIPOS>MOLECULE
tmp/2wseD02.pdb
 124 120 0 0 0
SMALL
GASTEIGER

@<TRIPOS>ATOM
      1  N         66.2750   13.6710   53.7760 N.3    16  LEU16      -0.1245
      2  CA        67.4180   14.2880   53.1240 C.3    16  LEU16       0.1561
      3  C         67.0050   14.9690   51.8000 C.2    16  LEU16       0.2260
      4  O         67.4330   16.1050   51.5560 O.2    16  LEU16      -0.2867
      5  CB        68.6710   13.3660   53.0730 C.3    16  LEU16       0.0270
      6  CG        68.9900   12.4970   51.8430 C.3    16  LEU16       0.0019
      7  CD1       70.0390   13.1370   50.8630 C.3    16  LEU16       0.0001
      8  CD2       69.4310   11.0890   52.3210 C.3    16  LEU16       0.0001
      9  N         67.5090   18.7310   51.3900 N.3    20  ARG20      -0.1245
     10  CA        68.3890   19.2980   50.3500 C.3    20  ARG20       0.1563
     11  C         67.6500   19.9980   49.1710 C.2    20  ARG20       0.2260
     12  O         68.2640   20.8420   48.4920 O.2    20  ARG20      -0.2867
     13  CB        69.4280   18.2510   49.8680 C.3    20  ARG20       0.0307
     14  CG        70.8940   18.7990   49.7500 C.3    20  ARG20       0.0489
     15  CD        71.7920   18.4840   50.9810 C.3    20  ARG20       0.2205
     16  NE        71.8750   17.0410   51.2950 N.pl3  20  ARG20      -0.0865
     17  CZ        72.8880   16.4380   51.9410 C.cat  20  ARG20       0.5346
     18  NH1       72.8340   15.1180   52.1600 N.pl3  20  ARG20       0.1354
     19  NH2       73.9630   17.1320   52.3540 N.pl3  20  ARG20       0.1354
     20  N         66.5100   23.3520   51.0070 N.3    23  MET23      -0.1230
     21  CA        67.7350   24.1200   50.8370 C.3    23  MET23       0.1702
     22  C         67.7560   24.8260   49.4480 C.2    23  MET23       0.2592
     23  O         67.6760   26.0700   49.3920 O.2    23  MET23      -0.2718
     24  CB        68.9670   23.2370   51.1260 C.3    23  MET23       0.0401
     25  CG        69.5310   23.4610   52.5280 C.3    23  MET23       0.0596
     26  SD        69.9340   22.0020   53.5250 S.3    23  MET23      -0.1393
     27  CE        71.4900   22.5460   54.2150 C.3    23  MET23       0.0692
     28  N         67.7920   24.0600   48.3510 N.am   24  LEU24      -0.1980
     29  CA        67.7260   24.6830   47.0280 C.3    24  LEU24       0.1596
     30  C         66.5320   25.6760   46.9130 C.2    24  LEU24       0.2287
     31  O         66.7550   26.8690   46.6870 O.2    24  LEU24      -0.2864
     32  CB        67.7330   23.6480   45.8810 C.3    24  LEU24       0.0297
     33  CG        69.0910   22.9860   45.5270 C.3    24  LEU24       0.0022
     34  CD1       69.3510   21.7940   46.4370 C.3    24  LEU24       0.0001
     35  CD2       69.2530   22.5380   44.0550 C.3    24  LEU24       0.0001
     36  N         78.7330    6.8050   44.2830 N.3    87  ASN87      -0.1240
     37  CA        79.0700    7.6170   45.4620 C.3    87  ASN87       0.1653
     38  C         78.5230    6.8530   46.6610 C.2    87  ASN87       0.2266
     39  O         79.2680    6.3950   47.5410 O.2    87  ASN87      -0.2867
     40  CB        78.3690    8.9930   45.3960 C.3    87  ASN87       0.1155
     41  CG        79.2730   10.1130   44.8660 C.2    87  ASN87       0.2627
     42  OD1       80.2890    9.9010   44.1700 O.2    87  ASN87      -0.2716
     43  ND2       78.8860   11.3420   45.1930 N.am   87  ASN87      -0.0877
     44  N         76.2880    8.2890   48.7510 N.3    89  ASP89      -0.1225
     45  CA        76.1240    9.2270   49.8980 C.3    89  ASP89       0.1790
     46  C         74.7250    9.7580   50.2940 C.2    89  ASP89       0.2439
     47  O         74.6330   10.6320   51.1730 O.2    89  ASP89      -0.2733
     48  CB        77.0320   10.4630   49.8030 C.3    89  ASP89       0.1423
     49  CG        78.2220   10.2540   48.9400 C.2    89  ASP89       0.3668
     50  OD1       78.3740    9.1280   48.4170 O.co2  89  ASP89      -0.2456
     51  OD2       78.9990   11.2350   48.7890 O.co2  89  ASP89      -0.2456
     52  N         73.6470    9.3320   49.6140 N.am   90  PRO90      -0.2729
     53  CA        72.3340    9.4850   50.2790 C.3    90  PRO90       0.1401
     54  C         71.7980    8.2730   51.0920 C.2    90  PRO90       0.2269
     55  O         71.4000    8.4600   52.2330 O.2    90  PRO90      -0.2865
     56  CB        71.3950    9.8080   49.1160 C.3    90  PRO90       0.0296
     57  CG        72.0520    9.1860   47.9070 C.3    90  PRO90       0.0237
     58  CD        73.5010    8.8830   48.2150 C.3    90  PRO90       0.0939
     59  N         74.4670    7.3660   52.9880 N.3    93  LYS93      -0.1231
     60  CA        75.6800    8.1570   52.8030 C.3    93  LYS93       0.1693
     61  C         76.6840    7.4240   51.9290 C.2    93  LYS93       0.2591
     62  O         76.4830    6.2610   51.5780 O.2    93  LYS93      -0.2718
     63  CB        76.3160    8.4880   54.1430 C.3    93  LYS93       0.0285
     64  CG        75.7790    9.7600   54.7780 C.3    93  LYS93       0.0035
     65  CD        74.9590    9.4500   56.0090 C.3    93  LYS93       0.0189
     66  CE        74.0130   10.5900   56.3440 C.3    93  LYS93       0.0888
     67  NZ        73.8900   10.7950   57.8000 N.3    93  LYS93      -0.2179
     68  N         77.7680    8.1120   51.5760 N.am   94  GLN94      -0.1979
     69  CA        79.0190    7.4290   51.1220 C.3    94  GLN94       0.1601
     70  C         79.9510    6.9500   52.2630 C.2    94  GLN94       0.2287
     71  O         79.4520    6.4750   53.2640 O.2    94  GLN94      -0.2864
     72  CB        79.7770    8.3230   50.1220 C.3    94  GLN94       0.0394
     73  CG        81.0150    7.7280   49.4220 C.3    94  GLN94       0.0908
     74  CD        82.0710    8.8010   49.1210 C.2    94  GLN94       0.2608
     75  OE1       81.8220    9.7560   48.3550 O.2    94  GLN94      -0.2717
     76  NE2       83.2620    8.6560   49.7420 N.am   94  GLN94      -0.0878
     77  N         79.1630    9.3070   57.2270 N.3   114  PHE114     -0.1227
     78  CA        79.5600    9.4320   55.7720 C.3   114  PHE114      0.1736
     79  C         80.2020   10.6310   55.0720 C.2   114  PHE114      0.2595
     80  O         79.6710   11.1290   54.0760 O.2   114  PHE114     -0.2718
     81  CB        78.5060    8.8310   54.8550 C.3   114  PHE114      0.0547
     82  CG        78.2950    7.4020   55.1140 C.ar  114  PHE114     -0.0202
     83  CD1       79.4040    6.5760   55.3260 C.ar  114  PHE114     -0.0042
     84  CD2       77.0200    6.8710   55.2340 C.ar  114  PHE114     -0.0042
     85  CE1       79.2530    5.2450   55.5990 C.ar  114  PHE114     -0.0003
     86  CE2       76.8640    5.5440   55.5010 C.ar  114  PHE114     -0.0003
     87  CZ        77.9910    4.7310   55.6770 C.ar  114  PHE114     -0.0000
     88  N         81.3520   11.0340   55.5480 N.am  115  ALA115     -0.1966
     89  CA        82.3270   11.6430   54.7290 C.3   115  ALA115      0.1713
     90  C         83.5400   10.8280   55.0520 C.2   115  ALA115      0.2458
     91  O         83.7940   10.5980   56.1980 O.2   115  ALA115     -0.2730
     92  CB        82.5440   13.0630   55.1360 C.3   115  ALA115      0.0333
     93  N         84.3190   10.4100   54.0680 N.am  116  PRO116     -0.2716
     94  CA        85.7400   10.2230   54.2910 C.3   116  PRO116      0.1536
     95  C         86.0890   11.6590   54.5420 C.2   116  PRO116      0.2599
     96  O         85.2520   12.3420   55.1080 O.2   116  PRO116     -0.2715
     97  CB        86.2430    9.7550   52.9560 C.3   116  PRO116      0.0310
     98  CG        85.1360    8.9660   52.4480 C.3   116  PRO116      0.0237
     99  CD        83.8910    9.7170   52.8550 C.3   116  PRO116      0.0939
    100  N         87.2290   12.1910   54.1650 N.am  117  THR117     -0.1951
    101  CA        87.3660   13.5300   54.6670 C.3   117  THR117      0.1897
    102  C         86.1430   14.3340   54.3540 C.2   117  THR117      0.2313
    103  O         85.8900   14.6990   53.2380 O.2   117  THR117     -0.2863
    104  CB        88.5900   14.2740   54.2730 C.3   117  THR117      0.1794
    105  OG1       89.4260   14.4000   55.4210 O.3   117  THR117     -0.2208
    106  CG2       88.1950   15.6520   53.8620 C.3   117  THR117      0.0378
    107  N         77.2960   14.3870   57.0040 N.3   121  LYS121     -0.1245
    108  CA        75.8890   14.5480   56.8270 C.3   121  LYS121      0.1562
    109  C         75.2420   14.8750   58.1390 C.2   121  LYS121      0.2260
    110  O         74.4030   14.1390   58.6150 O.2   121  LYS121     -0.2867
    111  CB        75.3530   13.1920   56.4020 C.3   121  LYS121      0.0285
    112  CG        75.3280   12.2000   57.5290 C.3   121  LYS121      0.0209
    113  CD        75.3450   10.7670   57.0760 C.3   121  LYS121      0.0917
    114  CE        76.7560   10.2040   57.0690 C.3   121  LYS121      0.1266
    115  NZ        77.0570    9.1890   58.1040 N.3   121  LYS121     -0.1299
    116  N         75.2840   19.2840   57.9900 N.3   124  GLU124     -0.1245
    117  CA        74.2190   19.2680   57.0060 C.3   124  GLU124      0.1567
    118  C         72.9590   18.5590   57.4900 C.2   124  GLU124      0.2260
    119  O         71.9600   18.5450   56.7830 O.2   124  GLU124     -0.2867
    120  CB        74.7150   18.8660   55.6130 C.3   124  GLU124      0.0388
    121  CG        75.8030   19.8610   55.1540 C.3   124  GLU124      0.1160
    122  CD        75.8460   20.0940   53.6730 C.2   124  GLU124      0.3649
    123  OE1       76.3850   19.2370   52.9090 O.co2 124  GLU124     -0.2457
    124  OE2       75.3790   21.1770   53.2830 O.co2 124  GLU124     -0.2457
@<TRIPOS>BOND
     1    35    33    1
     2    42    41    2
     3    36    37    1
     4    41    43   am
     5    41    40    1
     6    40    37    1
     7    37    38    1
     8    33    32    1
     9    33    34    1
    10    32    29    1
    11    38    39    2
    12    31    30    2
    13    30    29    1
    14    29    28    1
    15    57    58    1
    16    57    56    1
    17    58    52    1
    18    28    22   am
    19    75    74    2
    20    50    49   ar
    21    12    11    2
    22    44    45    1
    23    51    49   ar
    24    49    48    1
    25    56    53    1
    26    74    73    1
    27    74    76   am
    28    11    10    1
    29    23    22    2
    30    73    72    1
    31    22    21    1
    32    52    53    1
    33    52    46   am
    34    14    13    1
    35    14    15    1
    36    48    45    1
    37    13    10    1
    38    45    46    1
    39    72    69    1
    40    53    54    1
    41    46    47    2
    42    10     9    1
    43    21    20    1
    44    21    24    1
    45     7     6    1
    46    15    16    1
    47    54    55    2
    48    69    68    1
    49    69    70    1
    50    24    25    1
    51    16    17    2
    52     4     3    2
    53    68    61   am
    54    62    61    2
    55     3     2    1
    56     6     8    1
    57     6     5    1
    58    61    60    1
    59    17    18    1
    60    17    19    1
    61    70    71    2
    62    98    99    1
    63    98    97    1
    64    25    26    1
    65    60    59    1
    66    60    63    1
    67    99    93    1
    68   123   122   ar
    69    97    94    1
    70     5     2    1
    71     2     1    1
    72   103   102    2
    73   124   122   ar
    74    26    27    1
    75   122   121    1
    76   106   104    1
    77    93    94    1
    78    93    90   am
    79    80    79    2
    80    63    64    1
    81   100    95   am
    82   100   101    1
    83   104   101    1
    84   104   105    1
    85    94    95    1
    86   102   101    1
    87    95    96    2
    88    89    90    1
    89    89    92    1
    90    89    88    1
    91    64    65    1
    92    81    82    1
    93    81    78    1
    94    90    91    2
    95    79    88   am
    96    79    78    1
    97    82    84   ar
    98    82    83   ar
    99   121   120    1
   100    84    86   ar
   101    83    85   ar
   102    86    87   ar
   103    85    87   ar
   104   120   117    1
   105    78    77    1
   106    65    66    1
   107    66   113    1
   108    66    67    1
   109   111   108    1
   110   111   112    1
   111   119   118    2
   112   108   107    1
   113   108   109    1
   114   117   118    1
   115   117   116    1
   116   114   113    1
   117   114   115    1
   118   113   112    1
   119   113    67    1
   120   109   110    2
