@<TRIPOS>MOLECULE
tmp/2wseF19.pdb
 237 228 0 0 0
SMALL
GASTEIGER

@<TRIPOS>ATOM
      1  N         -3.7430  -26.1970   53.2200 N.3    24  ILE24      -0.1231
      2  CA        -3.8920  -25.1950   52.1570 C.3    24  ILE24       0.1692
      3  C         -2.7190  -24.2410   52.1560 C.2    24  ILE24       0.2591
      4  O         -2.8820  -23.0440   52.4510 O.2    24  ILE24      -0.2718
      5  CB        -5.2780  -24.4740   52.1910 C.3    24  ILE24       0.0266
      6  CG1       -5.8490  -24.3920   53.6030 C.3    24  ILE24       0.0019
      7  CG2       -6.2700  -25.2700   51.3930 C.3    24  ILE24       0.0020
      8  CD1       -5.7490  -23.0370   54.2260 C.3    24  ILE24       0.0001
      9  N         -1.5400  -24.8140   51.8420 N.am   25  ALA25      -0.1980
     10  CA        -0.2170  -24.1360   51.7510 C.3    25  ALA25       0.1597
     11  C          0.9240  -25.1260   51.9950 C.2    25  ALA25       0.2287
     12  O          1.9370  -24.7860   52.5800 O.2    25  ALA25      -0.2864
     13  CB        -0.1040  -22.8990   52.6990 C.3    25  ALA25       0.0319
     14  N          0.3340  -27.8370   49.5790 N.3    27  ALA27      -0.1231
     15  CA        -0.0880  -28.2170   48.2570 C.3    27  ALA27       0.1694
     16  C          1.0360  -28.0200   47.2590 C.2    27  ALA27       0.2592
     17  O          1.5140  -28.9860   46.7050 O.2    27  ALA27      -0.2718
     18  CB        -1.3070  -27.4180   47.8500 C.3    27  ALA27       0.0304
     19  N          1.4970  -26.7920   47.0520 N.am   28  HIS28      -0.1962
     20  CA         2.3740  -26.5630   45.9020 C.3    28  HIS28       0.1787
     21  C          3.8810  -26.9370   46.1040 C.2    28  HIS28       0.2620
     22  O          4.7180  -26.8330   45.1820 O.2    28  HIS28      -0.2715
     23  CB         2.1480  -25.1430   45.3200 C.3    28  HIS28       0.0785
     24  CG         0.7080  -24.8610   44.9730 C.ar   28  HIS28       0.0821
     25  ND1        0.0780  -23.6710   45.2900 N.ar   28  HIS28      -0.2267
     26  CD2       -0.2320  -25.6330   44.3570 C.ar   28  HIS28       0.1154
     27  CE1       -1.1820  -23.7150   44.8690 C.ar   28  HIS28       0.1986
     28  NE2       -1.3970  -24.8910   44.2950 N.ar   28  HIS28      -0.2212
     29  N          4.2040  -27.4040   47.3140 N.am   29  ASP29      -0.1957
     30  CA         5.5810  -27.8400   47.6410 C.3    29  ASP29       0.1840
     31  C          5.9610  -29.2730   47.2010 C.2    29  ASP29       0.2622
     32  O          6.5190  -30.0350   47.9950 O.2    29  ASP29      -0.2715
     33  CB         5.8590  -27.6440   49.1390 C.3    29  ASP29       0.1450
     34  CG         7.3300  -27.9160   49.5200 C.2    29  ASP29       0.3671
     35  OD1        7.5640  -28.4000   50.6440 O.co2  29  ASP29      -0.2456
     36  OD2        8.2570  -27.6690   48.7130 O.co2  29  ASP29      -0.2456
     37  N          5.7010  -29.6260   45.9430 N.am   30  PHE30      -0.1960
     38  CA         5.9420  -31.0120   45.4780 C.3    30  PHE30       0.1771
     39  C          7.2850  -31.5880   46.0010 C.2    30  PHE30       0.2619
     40  O          7.2760  -32.5210   46.8080 O.2    30  PHE30      -0.2715
     41  CB         5.8220  -31.1680   43.9480 C.3    30  PHE30       0.0574
     42  CG         4.5530  -30.5720   43.3600 C.ar   30  PHE30      -0.0200
     43  CD1        4.6220  -29.4150   42.5840 C.ar   30  PHE30      -0.0042
     44  CD2        3.3010  -31.1650   43.5750 C.ar   30  PHE30      -0.0042
     45  CE1        3.4680  -28.8520   42.0420 C.ar   30  PHE30      -0.0003
     46  CE2        2.1250  -30.6060   43.0280 C.ar   30  PHE30      -0.0003
     47  CZ         2.2120  -29.4450   42.2650 C.ar   30  PHE30      -0.0000
     48  N          8.4340  -31.0110   45.5960 N.am   31  GLU31      -0.1977
     49  CA         9.7280  -31.6560   45.9220 C.3    31  GLU31       0.1602
     50  C          9.6400  -31.9580   47.3670 C.2    31  GLU31       0.2287
     51  O          9.3460  -31.0840   48.1850 O.2    31  GLU31      -0.2864
     52  CB        11.0140  -30.8730   45.4870 C.3    31  GLU31       0.0415
     53  CG        11.6880  -29.9190   46.4560 C.3    31  GLU31       0.1163
     54  CD        11.1240  -28.5190   46.3610 C.2    31  GLU31       0.3649
     55  OE1       11.8740  -27.5530   46.6740 O.co2  31  GLU31      -0.2457
     56  OE2        9.9250  -28.3880   45.9670 O.co2  31  GLU31      -0.2457
     57  N         15.9140  -25.0570   41.2900 N.3   330  HIS330     -0.1241
     58  CA        15.6120  -23.8850   42.1110 C.3   330  HIS330      0.1621
     59  C         16.5030  -22.7500   41.6590 C.2   330  HIS330      0.2264
     60  O         16.0570  -21.6200   41.4680 O.2   330  HIS330     -0.2867
     61  CB        15.8550  -24.1820   43.5790 C.3   330  HIS330      0.0745
     62  CG        14.6160  -24.5890   44.3210 C.ar  330  HIS330      0.0817
     63  ND1       13.9850  -23.7650   45.2410 N.ar  330  HIS330     -0.2268
     64  CD2       13.8830  -25.7370   44.2830 C.ar  330  HIS330      0.1154
     65  CE1       12.9170  -24.3910   45.7330 C.ar  330  HIS330      0.1986
     66  NE2       12.8330  -25.5900   45.1730 N.ar  330  HIS330     -0.2212
     67  N         14.2780  -22.0010   38.9070 N.3   333  LEU333     -0.1245
     68  CA        13.2340  -21.0200   39.2780 C.3   333  LEU333      0.1561
     69  C         13.7370  -19.8440   40.1370 C.2   333  LEU333      0.2260
     70  O         13.2330  -19.6140   41.2240 O.2   333  LEU333     -0.2867
     71  CB        12.0380  -21.7230   39.9330 C.3   333  LEU333      0.0270
     72  CG        11.1900  -20.9550   40.9300 C.3   333  LEU333      0.0019
     73  CD1       10.4390  -19.8490   40.2800 C.3   333  LEU333      0.0001
     74  CD2       10.2330  -21.9190   41.5240 C.3   333  LEU333      0.0001
     75  N         13.1560  -16.2140   37.7940 N.3   337  LEU337     -0.1245
     76  CA        12.7270  -15.0170   38.5790 C.3   337  LEU337      0.1561
     77  C         13.9420  -14.0800   38.6770 C.2   337  LEU337      0.2260
     78  O         15.0570  -14.5390   38.9470 O.2   337  LEU337     -0.2867
     79  CB        12.2460  -15.4250   39.9910 C.3   337  LEU337      0.0270
     80  CG        10.9300  -16.1400   40.4220 C.3   337  LEU337      0.0019
     81  CD1       11.2230  -17.0050   41.5850 C.3   337  LEU337      0.0001
     82  CD2        9.8290  -15.1860   40.8130 C.3   337  LEU337      0.0001
     83  N         13.2620  -11.7570   34.6010 N.3   340  LEU340     -0.1245
     84  CA        11.8610  -11.3410   34.6250 C.3   340  LEU340      0.1561
     85  C         11.7670  -10.1670   35.5810 C.2   340  LEU340      0.2260
     86  O         11.2490   -9.1340   35.2460 O.2   340  LEU340     -0.2867
     87  CB        10.9280  -12.5130   35.0240 C.3   340  LEU340      0.0270
     88  CG         9.6030  -12.7380   34.2430 C.3   340  LEU340      0.0019
     89  CD1        9.8010  -12.9110   32.7340 C.3   340  LEU340      0.0001
     90  CD2        8.8330  -13.9280   34.7730 C.3   340  LEU340      0.0001
     91  N          7.9400   -7.3150   43.7950 N.3   380  PHE380     -0.1227
     92  CA         7.3700   -8.5850   44.3130 C.3   380  PHE380      0.1736
     93  C          8.1000   -9.8410   43.8190 C.2   380  PHE380      0.2595
     94  O          8.0830  -10.8610   44.5010 O.2   380  PHE380     -0.2718
     95  CB         5.8580   -8.7130   44.0310 C.3   380  PHE380      0.0547
     96  CG         4.9630   -8.1890   45.1270 C.ar  380  PHE380     -0.0202
     97  CD1        4.4600   -6.8830   45.0850 C.ar  380  PHE380     -0.0042
     98  CD2        4.6030   -9.0080   46.2040 C.ar  380  PHE380     -0.0042
     99  CE1        3.6190   -6.4070   46.1170 C.ar  380  PHE380     -0.0003
    100  CE2        3.7730   -8.5430   47.2270 C.ar  380  PHE380     -0.0003
    101  CZ         3.2740   -7.2550   47.1780 C.ar  380  PHE380     -0.0000
    102  N          8.7370   -9.7590   42.6490 N.am  381  ILE381     -0.1980
    103  CA         9.5070  -10.8830   42.1060 C.3   381  ILE381      0.1595
    104  C         10.8710  -10.9320   42.8450 C.2   381  ILE381      0.2287
    105  O         10.8880  -11.1960   44.0310 O.2   381  ILE381     -0.2864
    106  CB         9.5230  -10.8440   40.5330 C.3   381  ILE381      0.0276
    107  CG1        8.5610  -11.9010   39.9650 C.3   381  ILE381      0.0022
    108  CG2       10.8850  -11.1450   39.9510 C.3   381  ILE381      0.0022
    109  CD1        7.1440  -11.4350   39.7370 C.3   381  ILE381      0.0001
    110  N         12.5250  -10.4830   45.0310 N.3   383  THR383     -0.1203
    111  CA        12.4320  -11.1440   46.3160 C.3   383  THR383      0.1994
    112  C         12.3370  -12.6730   46.1550 C.2   383  THR383      0.2618
    113  O         13.1690  -13.4230   46.6820 O.2   383  THR383     -0.2717
    114  CB        11.1750  -10.6420   47.0730 C.3   383  THR383      0.1784
    115  OG1       10.3620   -9.8610   46.1760 O.3   383  THR383     -0.2211
    116  CG2       11.5490   -9.7780   48.2960 C.3   383  THR383      0.0376
    117  N         11.3290  -13.1280   45.4090 N.am  384  GLY384     -0.1956
    118  CA        11.1160  -14.5700   45.1740 C.3   384  GLY384      0.1869
    119  C         12.2560  -15.1840   44.3870 C.2   384  GLY384      0.2309
    120  O         12.5370  -16.3640   44.4640 O.2   384  GLY384     -0.2863
    121  N         14.8070  -15.6440   46.7720 N.3   387  ALA387     -0.1231
    122  CA        14.2410  -16.5890   47.7510 C.3   387  ALA387      0.1694
    123  C         14.2100  -18.0920   47.2930 C.2   387  ALA387      0.2592
    124  O         14.0970  -19.0120   48.1330 O.2   387  ALA387     -0.2718
    125  CB        12.8380  -16.1010   48.2450 C.3   387  ALA387      0.0304
    126  N         14.3370  -18.3340   45.9910 N.am  388  HIS388     -0.1976
    127  CA        14.5120  -19.6910   45.5100 C.3   388  HIS388      0.1656
    128  C         15.9840  -20.0160   45.2350 C.2   388  HIS388      0.2291
    129  O         16.3590  -21.1790   45.0020 O.2   388  HIS388     -0.2864
    130  CB        13.6550  -19.9140   44.3130 C.3   388  HIS388      0.0771
    131  CG        12.1970  -19.8680   44.6230 C.ar  388  HIS388      0.0820
    132  ND1       11.5890  -18.7360   45.1280 N.ar  388  HIS388     -0.2267
    133  CD2       11.2180  -20.8060   44.5170 C.ar  388  HIS388      0.1154
    134  CE1       10.2960  -18.9770   45.3100 C.ar  388  HIS388      0.1986
    135  NE2       10.0440  -20.2230   44.9400 N.ar  388  HIS388     -0.2212
    136  N         17.0470  -21.5200   48.5660 N.3   391  ILE391     -0.1245
    137  CA        16.4700  -22.8440   48.7910 C.3   391  ILE391      0.1561
    138  C         17.3620  -23.8690   48.0940 C.2   391  ILE391      0.2260
    139  O         17.4680  -25.0230   48.5300 O.2   391  ILE391     -0.2867
    140  CB        15.0380  -22.9240   48.2160 C.3   391  ILE391      0.0252
    141  CG1       14.0730  -22.0830   49.0850 C.3   391  ILE391      0.0019
    142  CG2       14.5970  -24.3700   48.1070 C.3   391  ILE391      0.0019
    143  CD1       12.5710  -22.2770   48.8270 C.3   391  ILE391      0.0001
    144  N         17.8010  -27.4670   50.1360 N.3   395  ARG395     -0.1245
    145  CA        17.2310  -28.7570   49.7160 C.3   395  ARG395      0.1563
    146  C         18.2230  -29.3290   48.7270 C.2   395  ARG395      0.2260
    147  O         18.8420  -30.3450   49.0550 O.2   395  ARG395     -0.2867
    148  CB        15.7770  -28.6800   49.1890 C.3   395  ARG395      0.0307
    149  CG        15.0000  -27.4670   49.7070 C.3   395  ARG395      0.0489
    150  CD        13.7550  -27.7660   50.5370 C.3   395  ARG395      0.2205
    151  NE        12.5780  -27.1700   49.9320 N.pl3 395  ARG395     -0.0865
    152  CZ        11.3720  -27.7250   49.9450 C.cat 395  ARG395      0.5346
    153  NH1       10.3520  -27.1260   49.3510 N.pl3 395  ARG395      0.1354
    154  NH2       11.1770  -28.8870   50.5380 N.pl3 395  ARG395      0.1354
    155  N         14.8120  -23.9350   54.6880 N.3   554  TYR554     -0.1227
    156  CA        13.9720  -22.7470   54.5620 C.3   554  TYR554      0.1736
    157  C         13.1810  -22.2890   55.7900 C.2   554  TYR554      0.2596
    158  O         13.7380  -21.5710   56.6360 O.2   554  TYR554     -0.2718
    159  CB        13.0920  -22.7740   53.3100 C.3   554  TYR554      0.0548
    160  CG        13.0770  -21.4030   52.7030 C.ar  554  TYR554     -0.0200
    161  CD1       14.1600  -20.9510   51.9590 C.ar  554  TYR554     -0.0009
    162  CD2       12.0290  -20.5250   52.9340 C.ar  554  TYR554     -0.0009
    163  CE1       14.1910  -19.6700   51.4190 C.ar  554  TYR554      0.0417
    164  CE2       12.0590  -19.2320   52.3970 C.ar  554  TYR554      0.0417
    165  CZ        13.1480  -18.8090   51.6450 C.ar  554  TYR554      0.1957
    166  OH        13.1880  -17.5290   51.1260 O.3   554  TYR554     -0.2866
    167  N         11.9020  -22.6810   55.8730 N.am  555  SER555     -0.1952
    168  CA        11.0190  -22.1590   56.8980 C.3   555  SER555      0.1924
    169  C         11.0150  -23.0840   58.0760 C.2   555  SER555      0.2314
    170  O         10.1330  -23.9240   58.2210 O.2   555  SER555     -0.2863
    171  CB         9.5780  -21.9820   56.3910 C.3   555  SER555      0.2116
    172  OG         9.4270  -20.8510   55.5580 O.3   555  SER555     -0.2180
    173  N         13.8440  -18.0680   55.3380 N.3   572  TRP572     -0.1241
    174  CA        12.4940  -17.6310   54.9830 C.3   572  TRP572      0.1605
    175  C         12.1510  -16.3470   55.6800 C.2   572  TRP572      0.2264
    176  O         11.4440  -15.5100   55.1200 O.2   572  TRP572     -0.2867
    177  CB        11.4310  -18.6280   55.3990 C.3   572  TRP572      0.0550
    178  CG        10.0080  -18.1990   55.0780 C.ar  572  TRP572      0.0003
    179  CD1        9.3880  -18.3190   53.8910 C.ar  572  TRP572      0.0946
    180  CD2        9.0290  -17.6130   55.9650 C.ar  572  TRP572      0.0152
    181  NE1        8.0900  -17.8450   53.9640 N.ar  572  TRP572     -0.2442
    182  CE2        7.8440  -17.4080   55.2270 C.ar  572  TRP572      0.0810
    183  CE3        9.0410  -17.2430   57.3090 C.ar  572  TRP572      0.0012
    184  CZ2        6.6920  -16.8620   55.7780 C.ar  572  TRP572      0.0191
    185  CZ3        7.8940  -16.6920   57.8540 C.ar  572  TRP572      0.0001
    186  CH2        6.7390  -16.5020   57.0890 C.ar  572  TRP572      0.0015
    187  N         13.7690  -13.5440   54.0660 N.3   575  PHE575     -0.1241
    188  CA        12.7800  -13.3490   53.0260 C.3   575  PHE575      0.1605
    189  C         11.5640  -12.6680   53.6620 C.2   575  PHE575      0.2264
    190  O         11.1370  -11.5950   53.2040 O.2   575  PHE575     -0.2867
    191  CB        12.3430  -14.6820   52.4350 C.3   575  PHE575      0.0534
    192  CG        11.0540  -14.5950   51.7040 C.ar  575  PHE575     -0.0203
    193  CD1        9.8370  -14.7950   52.3570 C.ar  575  PHE575     -0.0042
    194  CD2       11.0390  -14.2810   50.3510 C.ar  575  PHE575     -0.0042
    195  CE1        8.6280  -14.6930   51.6650 C.ar  575  PHE575     -0.0003
    196  CE2        9.8420  -14.1870   49.6510 C.ar  575  PHE575     -0.0003
    197  CZ         8.6370  -14.3930   50.3070 C.ar  575  PHE575     -0.0000
    198  N         10.6870   -8.6420   52.5380 N.3   579  VAL579     -0.1245
    199  CA         9.5170   -8.1560   51.7910 C.3   579  VAL579      0.1561
    200  C          8.9390   -6.7940   52.2290 C.2   579  VAL579      0.2260
    201  O          8.0870   -6.2230   51.5310 O.2   579  VAL579     -0.2867
    202  CB         8.3970   -9.1570   51.8440 C.3   579  VAL579      0.0252
    203  CG1        7.5840   -8.8660   53.0660 C.3   579  VAL579      0.0019
    204  CG2        7.5290   -9.0780   50.5670 C.3   579  VAL579      0.0019
    205  N          3.9520  -14.6220   58.1230 N.3   706  LEU706     -0.1245
    206  CA         3.2560  -14.5630   56.8510 C.3   706  LEU706      0.1561
    207  C          2.0090  -13.7100   57.0870 C.2   706  LEU706      0.2260
    208  O          2.1080  -12.5030   57.0140 O.2   706  LEU706     -0.2867
    209  CB         2.9180  -15.9940   56.3580 C.3   706  LEU706      0.0270
    210  CG         1.8240  -16.2720   55.3150 C.3   706  LEU706      0.0019
    211  CD1        2.2680  -15.8860   53.9440 C.3   706  LEU706      0.0001
    212  CD2        1.4110  -17.7030   55.3120 C.3   706  LEU706      0.0001
    213  N          0.9480  -10.5720   53.6980 N.3   710  VAL710     -0.1245
    214  CA        -0.1790  -11.2580   53.0580 C.3   710  VAL710      0.1561
    215  C         -1.4500  -10.6710   53.6240 C.2   710  VAL710      0.2260
    216  O         -2.5140  -11.2430   53.4580 O.2   710  VAL710     -0.2867
    217  CB        -0.1380  -12.7340   53.3970 C.3   710  VAL710      0.0252
    218  CG1       -1.4780  -13.3940   53.0760 C.3   710  VAL710      0.0019
    219  CG2        1.0740  -13.3860   52.7110 C.3   710  VAL710      0.0019
    220  N         -1.7350   -6.3080   51.0610 N.3   714  VAL714     -0.1245
    221  CA        -2.9850   -5.8460   50.3970 C.3   714  VAL714      0.1561
    222  C         -3.4020   -4.5000   50.9420 C.2   714  VAL714      0.2260
    223  O         -3.2600   -3.5160   50.2400 O.2   714  VAL714     -0.2867
    224  CB        -4.1370   -6.8840   50.3590 C.3   714  VAL714      0.0252
    225  CG1       -4.0560   -7.7960   51.5350 C.3   714  VAL714      0.0019
    226  CG2       -5.4860   -6.2040   50.2770 C.3   714  VAL714      0.0019
    227  N         -3.3920   -2.0690   48.4340 N.3   718  PHE718     -0.1241
    228  CA        -4.7790   -1.7880   48.0860 C.3   718  PHE718      0.1605
    229  C         -5.0540   -0.3580   48.5040 C.2   718  PHE718      0.2264
    230  O         -6.1460    0.1550   48.2240 O.2   718  PHE718     -0.2867
    231  CB        -5.7660   -2.7410   48.8050 C.3   718  PHE718      0.0534
    232  CG        -6.4800   -3.7330   47.9060 C.ar  718  PHE718     -0.0203
    233  CD1       -7.7250   -3.4510   47.3920 C.ar  718  PHE718     -0.0042
    234  CD2       -5.9320   -4.9790   47.6250 C.ar  718  PHE718     -0.0042
    235  CE1       -8.4060   -4.3840   46.5810 C.ar  718  PHE718     -0.0003
    236  CE2       -6.6160   -5.9090   46.8070 C.ar  718  PHE718     -0.0003
    237  CZ        -7.8490   -5.6000   46.2980 C.ar  718  PHE718     -0.0000
@<TRIPOS>BOND
     1    89    88    1
     2    88    90    1
     3    88    87    1
     4    83    84    1
     5    84    87    1
     6    84    85    1
     7    86    85    2
     8    75    76    1
     9    76    77    1
    10    76    79    1
    11    77    78    2
    12    67    68    1
    13    68    71    1
    14    68    69    1
    15   109   107    1
    16    71    72    1
    17   108   106    1
    18   107   106    1
    19    79    80    1
    20    69    70    2
    21    73    72    1
    22    80    82    1
    23    80    81    1
    24   106   103    1
    25    72    74    1
    26    57    58    1
    27    60    59    2
    28    59    58    1
    29    45    47   ar
    30    45    43   ar
    31   103   102    1
    32   103   104    1
    33    58    61    1
    34    47    46   ar
    35    43    42   ar
    36   102    93   am
    37   104   105    2
    38    46    44   ar
    39    42    44   ar
    40    42    41    1
    41    61    62    1
    42    91    92    1
    43    93    92    1
    44    93    94    2
    45    41    38    1
    46    95    92    1
    47    95    96    1
    48    64    62   ar
    49    64    66   ar
    50    28    26   ar
    51    28    27   ar
    52   130   131    1
    53   130   127    1
    54    62    63   ar
    55    26    24   ar
    56   119   120    2
    57   119   118    1
    58   133   131   ar
    59   133   135   ar
    60   131   132   ar
    61    27    25   ar
    62   135   134   ar
    63    24    25   ar
    64    24    23    1
    65   129   128    2
    66   110   111    1
    67    97    96   ar
    68    97    99   ar
    69    96    98   ar
    70   132   134   ar
    71    66    65   ar
    72   118   117    1
    73    22    21    2
    74   128   127    1
    75    63    65   ar
    76    23    20    1
    77   117   112   am
    78    38    37    1
    79    38    39    1
    80    52    49    1
    81    52    53    1
    82   127   126    1
    83    48    49    1
    84    48    39   am
    85    20    21    1
    86    20    19    1
    87    49    50    1
    88    37    31   am
    89    56    54   ar
    90   126   123   am
    91    39    40    2
    92    21    29   am
    93    99   101   ar
    94   112   111    1
    95   112   113    2
    96   115   114    1
    97    98   100   ar
    98   237   235   ar
    99   237   236   ar
   100   111   114    1
   101    54    53    1
   102    54    55   ar
   103   235   233   ar
   104    17    16    2
   105   121   122    1
   106   236   234   ar
   107    19    16   am
   108   114   116    1
   109   101   100   ar
   110    31    30    1
   111    31    32    2
   112    16    15    1
   113   123   122    1
   114   123   124    2
   115    29    30    1
   116    50    51    2
   117   233   232   ar
   118   234   232   ar
   119    30    33    1
   120   122   125    1
   121    18    15    1
   122   232   231    1
   123   228   227    1
   124   228   229    1
   125   228   231    1
   126   138   139    2
   127   138   137    1
   128   142   140    1
   129   140   137    1
   130   140   141    1
   131   230   229    2
   132    15    14    1
   133   136   137    1
   134    36    34   ar
   135   146   147    2
   136   146   145    1
   137   143   141    1
   138    33    34    1
   139   148   149    1
   140   148   145    1
   141   153   152    1
   142    34    35   ar
   143   196   197   ar
   144   196   194   ar
   145   149   150    1
   146   145   144    1
   147   151   152    2
   148   151   150    1
   149   152   154    1
   150   223   222    2
   151   226   224    1
   152   197   195   ar
   153   194   192   ar
   154   224   221    1
   155   224   225    1
   156   221   222    1
   157   221   220    1
   158   204   202    1
   159   166   165    1
   160     7     5    1
   161   163   165   ar
   162   163   161   ar
   163   201   200    2
   164   165   164   ar
   165   195   193   ar
   166   192   193   ar
   167   192   191    1
   168    10     9    1
   169    10    11    1
   170    10    13    1
   171   199   202    1
   172   199   200    1
   173   199   198    1
   174     9     3   am
   175   202   203    1
   176   161   160   ar
   177    11    12    2
   178     3     2    1
   179     3     4    2
   180     2     5    1
   181     2     1    1
   182     5     6    1
   183   164   162   ar
   184   191   188    1
   185   160   162   ar
   186   160   159    1
   187   219   217    1
   188   188   189    1
   189   188   187    1
   190   214   217    1
   191   214   215    1
   192   214   213    1
   193   218   217    1
   194   190   189    2
   195   159   156    1
   196   216   215    2
   197     6     8    1
   198   179   181   ar
   199   179   178   ar
   200   211   210    1
   201   181   182   ar
   202   156   155    1
   203   156   157    1
   204   174   173    1
   205   174   177    1
   206   174   175    1
   207   178   177    1
   208   178   180   ar
   209   176   175    2
   210   182   184   ar
   211   182   180   ar
   212   212   210    1
   213   210   209    1
   214   172   171    1
   215   184   186   ar
   216   157   167   am
   217   157   158    2
   218   167   168    1
   219   180   183   ar
   220   209   206    1
   221   171   168    1
   222   206   207    1
   223   206   205    1
   224   168   169    1
   225   208   207    2
   226   186   185   ar
   227   183   185   ar
   228   169   170    2
