@<TRIPOS>MOLECULE
tmp/2wseF36.pdb
 129 123 0 0 0
SMALL
GASTEIGER

@<TRIPOS>ATOM
      1  N         15.9140  -25.0570   41.2900 N.3   330  HIS330     -0.1226
      2  CA        15.6120  -23.8850   42.1110 C.3   330  HIS330      0.1752
      3  C         16.5030  -22.7500   41.6590 C.2   330  HIS330      0.2596
      4  O         16.0570  -21.6200   41.4680 O.2   330  HIS330     -0.2718
      5  CB        15.8550  -24.1820   43.5790 C.3   330  HIS330      0.0759
      6  CG        14.6160  -24.5890   44.3210 C.ar  330  HIS330      0.0818
      7  ND1       13.9850  -23.7650   45.2410 N.ar  330  HIS330     -0.2268
      8  CD2       13.8830  -25.7370   44.2830 C.ar  330  HIS330      0.1154
      9  CE1       12.9170  -24.3910   45.7330 C.ar  330  HIS330      0.1986
     10  NE2       12.8330  -25.5900   45.1730 N.ar  330  HIS330     -0.2212
     11  N         17.7880  -23.0680   41.5100 N.am  331  PHE331     -0.1976
     12  CA        18.6710  -22.2670   40.7090 C.3   331  PHE331      0.1639
     13  C         17.7960  -21.9120   39.5080 C.2   331  PHE331      0.2290
     14  O         17.6180  -20.7170   39.1910 O.2   331  PHE331     -0.2864
     15  CB        19.8700  -23.1060   40.2710 C.3   331  PHE331      0.0560
     16  CG        21.1820  -22.4350   40.4700 C.ar  331  PHE331     -0.0200
     17  CD1       22.2880  -23.1560   40.8730 C.ar  331  PHE331     -0.0042
     18  CD2       21.3160  -21.0770   40.2660 C.ar  331  PHE331     -0.0042
     19  CE1       23.5140  -22.5410   41.0530 C.ar  331  PHE331     -0.0003
     20  CE2       22.5430  -20.4420   40.4400 C.ar  331  PHE331     -0.0003
     21  CZ        23.6410  -21.1720   40.8390 C.ar  331  PHE331     -0.0000
     22  N         14.7060  -19.0830   39.6190 N.3   334  GLY334     -0.1210
     23  CA        15.1790  -17.8900   40.3080 C.3   334  GLY334      0.1956
     24  C         16.3490  -17.2620   39.5790 C.2   334  GLY334      0.2611
     25  O         16.9410  -16.2560   40.0110 O.2   334  GLY334     -0.2717
     26  N         16.7220  -17.9040   38.4910 N.am  335  LEU335     -0.1979
     27  CA        17.4400  -17.2270   37.4260 C.3   335  LEU335      0.1596
     28  C         16.3320  -16.9110   36.4340 C.2   335  LEU335      0.2287
     29  O         16.4090  -15.9240   35.6970 O.2   335  LEU335     -0.2864
     30  CB        18.5190  -18.1460   36.8470 C.3   335  LEU335      0.0297
     31  CG        19.8790  -17.9200   37.4960 C.3   335  LEU335      0.0022
     32  CD1       20.6950  -19.1720   37.4450 C.3   335  LEU335      0.0001
     33  CD2       20.5410  -16.8300   36.7120 C.3   335  LEU335      0.0001
     34  N         13.7370  -12.7800   38.4600 N.3   338  ALA338     -0.1231
     35  CA        14.8540  -11.8850   38.0480 C.3   338  ALA338      0.1694
     36  C         15.1710  -12.2500   36.6080 C.2   338  ALA338      0.2592
     37  O         14.8550  -13.3530   36.1570 O.2   338  ALA338     -0.2718
     38  CB        16.0970  -12.0450   38.9150 C.3   338  ALA338      0.0304
     39  N         15.8090  -11.3430   35.8710 N.am  339  SER339     -0.1952
     40  CA        15.6500  -11.3530   34.4260 C.3   339  SER339      0.1924
     41  C         14.2170  -10.8860   34.2760 C.2   339  SER339      0.2314
     42  O         13.9710   -9.7320   33.9590 O.2   339  SER339     -0.2863
     43  CB        15.8430  -12.7520   33.8290 C.3   339  SER339      0.2116
     44  OG        16.8990  -13.4480   34.4780 O.3   339  SER339     -0.2180
     45  N         14.2340   -8.0520   36.8750 N.3   342  VAL342     -0.1245
     46  CA        14.9270   -6.8990   36.3340 C.3   342  VAL342      0.1561
     47  C         14.1740   -6.3340   35.1070 C.2   342  VAL342      0.2260
     48  O         14.0410   -5.1010   35.0190 O.2   342  VAL342     -0.2867
     49  CB        16.4180   -7.2310   36.0640 C.3   342  VAL342      0.0252
     50  CG1       16.9850   -6.4410   34.9060 C.3   342  VAL342      0.0019
     51  CG2       17.2250   -6.9920   37.2970 C.3   342  VAL342      0.0019
     52  N         11.9960  -10.7060   42.1610 N.3   382  MET382     -0.1245
     53  CA        13.2170  -10.1870   42.7800 C.3   382  MET382      0.1570
     54  C         13.4680  -10.7520   44.1350 C.2   382  MET382      0.2261
     55  O         14.5150  -11.3400   44.3730 O.2   382  MET382     -0.2867
     56  CB        13.1030   -8.6620   42.9380 C.3   382  MET382      0.0387
     57  CG        14.3230   -7.9260   42.4920 C.3   382  MET382      0.0595
     58  SD        14.8360   -8.5780   40.9010 S.3   382  MET382     -0.1393
     59  CE        16.6520   -8.6920   41.1110 C.3   382  MET382      0.0692
     60  N         12.9070  -14.3410   43.6230 N.3   385  ALA385     -0.1231
     61  CA        14.0750  -14.7230   42.8870 C.3   385  ALA385      0.1694
     62  C         15.1750  -15.0750   43.8690 C.2   385  ALA385      0.2592
     63  O         15.8420  -16.1140   43.7810 O.2   385  ALA385     -0.2718
     64  CB        14.5040  -13.5250   42.0170 C.3   385  ALA385      0.0304
     65  N         15.3320  -14.1530   44.8080 N.am  386  PHE386     -0.1976
     66  CA        16.4030  -14.1500   45.7750 C.3   386  PHE386      0.1639
     67  C         16.0800  -15.1990   46.7860 C.2   386  PHE386      0.2290
     68  O         16.9640  -15.5910   47.5460 O.2   386  PHE386     -0.2864
     69  CB        16.4310  -12.8040   46.4740 C.3   386  PHE386      0.0560
     70  CG        17.5760  -11.9360   46.0860 C.ar  386  PHE386     -0.0200
     71  CD1       18.8850  -12.4120   46.1680 C.ar  386  PHE386     -0.0042
     72  CD2       17.3530  -10.6060   45.6870 C.ar  386  PHE386     -0.0042
     73  CE1       19.9480  -11.5900   45.8370 C.ar  386  PHE386     -0.0003
     74  CE2       18.3990   -9.7650   45.3800 C.ar  386  PHE386     -0.0003
     75  CZ        19.6980  -10.2630   45.4500 C.ar  386  PHE386     -0.0000
     76  N         16.8110  -18.9620   45.2980 N.3   389  GLY389     -0.1225
     77  CA        18.2620  -19.0930   45.3530 C.3   389  GLY389      0.1811
     78  C         18.8530  -18.9650   46.7360 C.2   389  GLY389      0.2280
     79  O         20.0450  -18.7140   46.8590 O.2   389  GLY389     -0.2866
     80  N         17.9960  -23.4180   47.0050 N.3   392  PHE392     -0.1227
     81  CA        18.9730  -24.2250   46.2740 C.3   392  PHE392      0.1736
     82  C         20.0600  -24.6540   47.2130 C.2   392  PHE392      0.2595
     83  O         20.3930  -25.8260   47.2760 O.2   392  PHE392     -0.2718
     84  CB        19.5510  -23.4650   45.0730 C.3   392  PHE392      0.0547
     85  CG        21.0510  -23.5180   44.9620 C.ar  392  PHE392     -0.0202
     86  CD1       21.8030  -22.3510   45.0870 C.ar  392  PHE392     -0.0042
     87  CD2       21.7180  -24.7180   44.7420 C.ar  392  PHE392     -0.0042
     88  CE1       23.1760  -22.3900   44.9930 C.ar  392  PHE392     -0.0003
     89  CE2       23.1080  -24.7490   44.6670 C.ar  392  PHE392     -0.0003
     90  CZ        23.8280  -23.5900   44.7950 C.ar  392  PHE392     -0.0000
     91  N         20.5780  -23.6810   47.9610 N.am  393  PHE393     -0.1976
     92  CA        21.5890  -23.8990   48.9840 C.3   393  PHE393      0.1639
     93  C         21.2050  -24.9060   50.0910 C.2   393  PHE393      0.2290
     94  O         22.0850  -25.5320   50.6810 O.2   393  PHE393     -0.2864
     95  CB        22.0020  -22.5520   49.5750 C.3   393  PHE393      0.0560
     96  CG        23.0010  -21.8100   48.7470 C.ar  393  PHE393     -0.0200
     97  CD1       22.9420  -20.4170   48.6480 C.ar  393  PHE393     -0.0042
     98  CD2       24.0140  -22.4930   48.0650 C.ar  393  PHE393     -0.0042
     99  CE1       23.8980  -19.6980   47.8710 C.ar  393  PHE393     -0.0003
    100  CE2       24.9790  -21.7990   47.2880 C.ar  393  PHE393     -0.0003
    101  CZ        24.9170  -20.3980   47.1840 C.ar  393  PHE393     -0.0000
    102  N         30.8070  -21.1730   42.4860 N.3   407  LEU407     -0.1245
    103  CA        29.5710  -21.0020   43.2720 C.3   407  LEU407      0.1561
    104  C         29.9120  -21.0560   44.7630 C.2   407  LEU407      0.2260
    105  O         29.3820  -20.2900   45.5900 O.2   407  LEU407     -0.2867
    106  CB        28.5500  -22.0990   42.9130 C.3   407  LEU407      0.0270
    107  CG        27.1000  -22.1070   43.4410 C.3   407  LEU407      0.0019
    108  CD1       26.5760  -20.7110   43.5620 C.3   407  LEU407      0.0001
    109  CD2       26.2260  -22.8900   42.4880 C.3   407  LEU407      0.0001
    110  N         20.6000  -11.2270   49.9420 N.3   534  VAL534     -0.1245
    111  CA        21.9970  -11.7620   49.9090 C.3   534  VAL534      0.1561
    112  C         22.3500  -12.5590   51.1800 C.2   534  VAL534      0.2260
    113  O         22.6770  -13.7520   51.1120 O.2   534  VAL534     -0.2867
    114  CB        23.0990  -10.6750   49.6560 C.3   534  VAL534      0.0252
    115  CG1       23.2550   -9.8070   50.8050 C.3   534  VAL534      0.0019
    116  CG2       24.4410  -11.3190   49.5300 C.3   534  VAL534      0.0019
    117  N         19.8040  -15.5450   51.8980 N.3   537  ALA537     -0.1231
    118  CA        20.4110  -16.5970   51.1110 C.3   537  ALA537      0.1694
    119  C         21.7820  -17.0540   51.6610 C.2   537  ALA537      0.2591
    120  O         21.9430  -18.2110   52.1080 O.2   537  ALA537     -0.2718
    121  CB        20.5650  -16.1120   49.7010 C.3   537  ALA537      0.0304
    122  N         22.7640  -16.1380   51.6410 N.am  538  LEU538     -0.1980
    123  CA        24.1620  -16.5240   51.8420 C.3   538  LEU538      0.1596
    124  C         24.4540  -17.3260   53.1290 C.2   538  LEU538      0.2287
    125  O         25.6230  -17.5760   53.4840 O.2   538  LEU538     -0.2864
    126  CB        25.1460  -15.3370   51.6150 C.3   538  LEU538      0.0297
    127  CG        25.9760  -15.3000   50.3060 C.3   538  LEU538      0.0022
    128  CD1       26.4210  -16.6810   49.7560 C.3   538  LEU538      0.0001
    129  CD2       25.2110  -14.5760   49.2590 C.3   538  LEU538      0.0001
@<TRIPOS>BOND
     1    43    40    1
     2    43    44    1
     3    42    41    2
     4    41    40    1
     5    40    39    1
     6    50    49    1
     7    48    47    2
     8    47    46    1
     9    29    28    2
    10    39    36   am
    11    49    46    1
    12    49    51    1
    13    37    36    2
    14    46    45    1
    15    28    27    1
    16    36    35    1
    17    33    31    1
    18    30    27    1
    19    30    31    1
    20    27    26    1
    21    32    31    1
    22    35    34    1
    23    35    38    1
    24    26    24   am
    25    14    13    2
    26    13    12    1
    27    24    25    2
    28    24    23    1
    29    22    23    1
    30    18    20   ar
    31    18    16   ar
    32    15    16    1
    33    15    12    1
    34    20    21   ar
    35    16    17   ar
    36    12    11    1
    37    21    19   ar
    38    17    19   ar
    39    58    59    1
    40    58    57    1
    41     1     2    1
    42     4     3    2
    43    11     3   am
    44     3     2    1
    45    64    61    1
    46     2     5    1
    47    52    53    1
    48   102   103    1
    49   109   107    1
    50    57    56    1
    51    53    56    1
    52    53    54    1
    53    61    60    1
    54    61    62    1
    55   106   103    1
    56   106   107    1
    57   103   104    1
    58   107   108    1
    59     5     6    1
    60    63    62    2
    61    62    65   am
    62    54    55    2
    63     8     6   ar
    64     8    10   ar
    65     6     7   ar
    66    89    87   ar
    67    89    90   ar
    68    87    85   ar
    69   104   105    2
    70    90    88   ar
    71    65    66    1
    72    85    84    1
    73    85    86   ar
    74    88    86   ar
    75    84    81    1
    76    10     9   ar
    77     7     9   ar
    78    76    77    1
    79    77    78    1
    80    74    75   ar
    81    74    72   ar
    82    75    73   ar
    83    72    70   ar
    84    66    69    1
    85    66    67    1
    86    73    71   ar
    87    70    71   ar
    88    70    69    1
    89    81    80    1
    90    81    82    1
    91    78    79    2
    92    67    68    2
    93   101   100   ar
    94   101    99   ar
    95    82    83    2
    96    82    91   am
    97   100    98   ar
    98    99    97   ar
    99    91    92    1
   100    98    96   ar
   101    97    96   ar
   102    96    95    1
   103    92    95    1
   104    92    93    1
   105   129   127    1
   106   116   114    1
   107   114   111    1
   108   114   115    1
   109   121   118    1
   110   128   127    1
   111   111   110    1
   112   111   112    1
   113    93    94    2
   114   127   126    1
   115   118   119    1
   116   118   117    1
   117   113   112    2
   118   126   123    1
   119   122   119   am
   120   122   123    1
   121   119   120    2
   122   123   124    1
   123   124   125    2
