@<TRIPOS>MOLECULE
tmp/2wseF05.pdb
 164 158 0 0 0
SMALL
GASTEIGER

@<TRIPOS>ATOM
      1  N         10.3330  -16.9410   16.1890 N.3   184  VAL184     -0.1245
      2  CA         9.0850  -17.0980   15.4420 C.3   184  VAL184      0.1561
      3  C          7.8740  -16.4790   16.1850 C.2   184  VAL184      0.2260
      4  O          6.8470  -16.1740   15.5580 O.2   184  VAL184     -0.2867
      5  CB         8.8370  -18.6050   15.0900 C.3   184  VAL184      0.0252
      6  CG1        7.3590  -18.8960   14.7240 C.3   184  VAL184      0.0019
      7  CG2        9.7970  -19.0430   13.9860 C.3   184  VAL184      0.0019
      8  N          8.8310  -12.6130   14.8790 N.3   187  LEU187     -0.1231
      9  CA         8.3940  -12.8690   13.5080 C.3   187  LEU187      0.1693
     10  C          6.8460  -12.8560   13.4770 C.2   187  LEU187      0.2591
     11  O          6.2560  -11.7900   13.3990 O.2   187  LEU187     -0.2718
     12  CB         9.0050  -14.1650   12.9340 C.3   187  LEU187      0.0284
     13  CG         8.2260  -15.0060   11.9030 C.3   187  LEU187      0.0019
     14  CD1        7.6970  -14.1630   10.7530 C.3   187  LEU187      0.0001
     15  CD2        9.1120  -16.1510   11.3670 C.3   187  LEU187      0.0001
     16  N          6.1960  -14.0200   13.6120 N.am  188  ALA188     -0.1980
     17  CA         4.7130  -14.1430   13.5370 C.3   188  ALA188      0.1597
     18  C          3.9110  -12.9290   14.0190 C.2   188  ALA188      0.2287
     19  O          2.8620  -12.5940   13.4650 O.2   188  ALA188     -0.2864
     20  CB         4.2330  -15.3930   14.2450 C.3   188  ALA188      0.0319
     21  N          5.5320   -9.8590   14.0870 N.3   190  ALA190     -0.1231
     22  CA         5.9620   -8.9940   12.9910 C.3   190  ALA190      0.1694
     23  C          4.9840   -9.2120   11.8620 C.2   190  ALA190      0.2592
     24  O          4.6050   -8.2600   11.1820 O.2   190  ALA190     -0.2718
     25  CB         7.3950   -9.2960   12.5570 C.3   190  ALA190      0.0304
     26  N          4.5310  -10.4600   11.7220 N.am  191  GLY191     -0.1957
     27  CA         3.6280  -10.8310   10.6610 C.3   191  GLY191      0.1869
     28  C          2.3850   -9.9800   10.7660 C.2   191  GLY191      0.2309
     29  O          2.0290   -9.2240    9.8590 O.2   191  GLY191     -0.2863
     30  N          1.6710   -6.0390   10.7060 N.3   194  VAL194     -0.1231
     31  CA         2.0190   -5.5410    9.3670 C.3   194  VAL194      0.1692
     32  C          0.9470   -5.8380    8.2610 C.2   194  VAL194      0.2592
     33  O          0.4800   -4.9120    7.6030 O.2   194  VAL194     -0.2718
     34  CB         3.5120   -5.9830    9.0540 C.3   194  VAL194      0.0266
     35  CG1        3.6090   -7.1150    8.0180 C.3   194  VAL194      0.0020
     36  CG2        4.3840   -4.8010    8.7430 C.3   194  VAL194      0.0020
     37  N          0.5200   -7.0940    8.1000 N.am  195  HIS195     -0.1976
     38  CA        -0.5770   -7.3970    7.1740 C.3   195  HIS195      0.1656
     39  C         -1.9500   -6.8600    7.6330 C.2   195  HIS195      0.2291
     40  O         -2.7800   -6.4140    6.8400 O.2   195  HIS195     -0.2864
     41  CB        -0.7040   -8.9080    6.9510 C.3   195  HIS195      0.0771
     42  CG         0.2740   -9.4630    5.9480 C.ar  195  HIS195      0.0820
     43  ND1        0.5390   -8.8390    4.7450 N.ar  195  HIS195     -0.2267
     44  CD2        1.0350  -10.5990    5.9680 C.ar  195  HIS195      0.1154
     45  CE1        1.4400   -9.5540    4.0800 C.ar  195  HIS195      0.1986
     46  NE2        1.7550  -10.6250    4.7990 N.ar  195  HIS195     -0.2212
     47  N         -8.0780  -11.1760    2.3540 N.3   211  PHE211     -0.1227
     48  CA        -6.8740  -11.4800    3.1250 C.3   211  PHE211      0.1736
     49  C         -5.7890  -11.7850    2.0720 C.2   211  PHE211      0.2595
     50  O         -4.5750  -11.6600    2.3240 O.2   211  PHE211     -0.2718
     51  CB        -7.1910  -12.6990    3.9980 C.3   211  PHE211      0.0547
     52  CG        -6.0500  -13.1760    4.8730 C.ar  211  PHE211     -0.0202
     53  CD1       -5.8970  -12.6830    6.1620 C.ar  211  PHE211     -0.0042
     54  CD2       -5.1750  -14.1870    4.4390 C.ar  211  PHE211     -0.0042
     55  CE1       -4.8580  -13.1550    6.9830 C.ar  211  PHE211     -0.0003
     56  CE2       -4.1380  -14.6540    5.2660 C.ar  211  PHE211     -0.0003
     57  CZ        -3.9860  -14.1400    6.5350 C.ar  211  PHE211     -0.0000
     58  N         -6.2710  -12.1910    0.8940 N.am  212  LEU212     -0.1980
     59  CA        -5.5050  -12.2490   -0.3600 C.3   212  LEU212      0.1596
     60  C         -5.7140  -10.9400   -1.1500 C.2   212  LEU212      0.2287
     61  O         -4.7230  -10.2630   -1.5230 O.2   212  LEU212     -0.2864
     62  CB        -5.9470  -13.4650   -1.1970 C.3   212  LEU212      0.0297
     63  CG        -7.4670  -13.7520   -1.3770 C.3   212  LEU212      0.0022
     64  CD1       -8.0440  -13.0880   -2.6190 C.3   212  LEU212      0.0001
     65  CD2       -7.7670  -15.2650   -1.3930 C.3   212  LEU212      0.0001
     66  N         -6.7700   -7.9860   -0.2170 N.3   214  VAL214     -0.1231
     67  CA        -6.0120   -6.9010    0.4490 C.3   214  VAL214      0.1692
     68  C         -4.4800   -7.0540    0.2760 C.2   214  VAL214      0.2592
     69  O         -3.9130   -8.1430    0.3960 O.2   214  VAL214     -0.2718
     70  CB        -6.4300   -6.6640    1.9460 C.3   214  VAL214      0.0266
     71  CG1       -7.6980   -5.7980    2.0220 C.3   214  VAL214      0.0020
     72  CG2       -6.6220   -7.9630    2.7010 C.3   214  VAL214      0.0020
     73  N         -3.8320   -5.9370   -0.0460 N.am  215  LEU215     -0.1966
     74  CA        -2.4260   -5.9290   -0.4670 C.3   215  LEU215      0.1713
     75  C         -1.8860   -4.5500   -0.1110 C.2   215  LEU215      0.2458
     76  O         -2.1410   -3.5650   -0.8240 O.2   215  LEU215     -0.2730
     77  CB        -2.3100   -6.1610   -1.9910 C.3   215  LEU215      0.0310
     78  CG        -0.9900   -6.4950   -2.7370 C.3   215  LEU215      0.0022
     79  CD1       -1.1910   -6.2950   -4.2360 C.3   215  LEU215      0.0001
     80  CD2        0.2230   -5.7100   -2.2460 C.3   215  LEU215      0.0001
     81  N         -1.1390   -4.4670    0.9980 N.am  216  PRO216     -0.2716
     82  CA        -0.6580   -3.1530    1.4570 C.3   216  PRO216      0.1536
     83  C         -0.3700   -2.1290    0.3050 C.2   216  PRO216      0.2598
     84  O         -0.4980   -0.8990    0.5050 O.2   216  PRO216     -0.2715
     85  CB         0.6200   -3.5190    2.2640 C.3   216  PRO216      0.0310
     86  CG         0.3080   -4.8940    2.8420 C.3   216  PRO216      0.0237
     87  CD        -0.6850   -5.5730    1.8760 C.3   216  PRO216      0.0939
     88  N         -0.0100   -2.6680   -0.8730 N.am  217  TYR217     -0.1974
     89  CA         0.3760   -1.9020   -2.0510 C.3   217  TYR217      0.1639
     90  C         -0.5360   -2.3330   -3.2080 C.2   217  TYR217      0.2290
     91  O         -1.4350   -3.1560   -3.0020 O.2   217  TYR217     -0.2864
     92  CB         1.8390   -2.2370   -2.4460 C.3   217  TYR217      0.0560
     93  CG         2.9370   -1.9380   -1.4520 C.ar  217  TYR217     -0.0198
     94  CD1        2.9180   -2.4960   -0.1700 C.ar  217  TYR217     -0.0009
     95  CD2        4.0380   -1.1640   -1.8150 C.ar  217  TYR217     -0.0009
     96  CE1        3.9510   -2.2290    0.7510 C.ar  217  TYR217      0.0417
     97  CE2        5.0820   -0.8940   -0.9150 C.ar  217  TYR217      0.0417
     98  CZ         5.0300   -1.4330    0.3570 C.ar  217  TYR217      0.1957
     99  OH         6.0410   -1.1760    1.2390 O.3   217  TYR217     -0.2866
    100  N          1.4430   -3.4910   -6.4630 N.3   219  GLN219     -0.1231
    101  CA         2.2870   -4.6150   -7.0220 C.3   219  GLN219      0.1698
    102  C          3.0490   -5.4960   -5.9680 C.2   219  GLN219      0.2593
    103  O          4.2590   -5.8100   -6.1290 O.2   219  GLN219     -0.2718
    104  CB         3.2340   -4.1150   -8.1690 C.3   219  GLN219      0.0381
    105  CG         4.1560   -5.2010   -8.8670 C.3   219  GLN219      0.0905
    106  CD         4.4380   -4.9410  -10.3800 C.2   219  GLN219      0.2608
    107  OE1        5.5470   -5.1990  -10.8900 O.2   219  GLN219     -0.2717
    108  NE2        3.4170   -4.4500  -11.0910 N.am  219  GLN219     -0.0878
    109  N          2.3160   -5.8750   -4.9070 N.am  220  GLY220     -0.1942
    110  CA         2.7050   -6.9430   -3.9660 C.3   220  GLY220      0.2014
    111  C          3.9810   -6.8170   -3.1340 C.2   220  GLY220      0.2638
    112  O          4.5140   -5.7120   -2.9000 O.2   220  GLY220     -0.2714
    113  N          4.4550   -7.9770   -2.6730 N.am  221  LEU221     -0.1977
    114  CA         5.7460   -8.1250   -2.0000 C.3   221  LEU221      0.1596
    115  C          6.8980   -7.6600   -2.9260 C.2   221  LEU221      0.2287
    116  O          8.1030   -7.8560   -2.6310 O.2   221  LEU221     -0.2864
    117  CB         5.8910   -9.5920   -1.5730 C.3   221  LEU221      0.0297
    118  CG         7.2390  -10.2270   -1.2250 C.3   221  LEU221      0.0022
    119  CD1        6.9960  -11.4020   -0.2700 C.3   221  LEU221      0.0001
    120  CD2        8.0160  -10.6570   -2.5100 C.3   221  LEU221      0.0001
    121  N         11.7830   -7.0400   -2.4520 N.3   224  LEU224     -0.1245
    122  CA        11.8280   -7.5680   -1.0910 C.3   224  LEU224      0.1561
    123  C         12.7550   -8.7750   -0.9050 C.2   224  LEU224      0.2260
    124  O         13.7430   -8.6980   -0.1550 O.2   224  LEU224     -0.2867
    125  CB        10.3960   -7.9070   -0.6070 C.3   224  LEU224      0.0270
    126  CG        10.0720   -8.2910    0.8510 C.3   224  LEU224      0.0019
    127  CD1       10.0660   -9.8210    1.0890 C.3   224  LEU224      0.0001
    128  CD2       11.0200   -7.5810    1.8300 C.3   224  LEU224      0.0001
    129  N         11.2260    0.6490    1.4350 N.3   232  TYR232     -0.1241
    130  CA        10.1010    0.8040    2.3190 C.3   232  TYR232      0.1605
    131  C         10.1520    2.3000    2.7910 C.2   232  TYR232      0.2264
    132  O          9.3810    3.1570    2.2870 O.2   232  TYR232     -0.2867
    133  CB        10.1890   -0.1930    3.4610 C.3   232  TYR232      0.0534
    134  CG         9.8310   -1.6380    3.1020 C.ar  232  TYR232     -0.0201
    135  CD1        8.5210   -2.1360    3.2940 C.ar  232  TYR232     -0.0009
    136  CD2       10.8030   -2.5320    2.6160 C.ar  232  TYR232     -0.0009
    137  CE1        8.1880   -3.4790    2.9850 C.ar  232  TYR232      0.0417
    138  CE2       10.4830   -3.8850    2.3220 C.ar  232  TYR232      0.0417
    139  CZ         9.1770   -4.3400    2.5040 C.ar  232  TYR232      0.1957
    140  OH         8.8550   -5.6450    2.2070 O.3   232  TYR232     -0.2866
    141  N          5.1320    0.6500    4.4510 N.3   253  ILE253     -0.1231
    142  CA         5.4500    0.1740    5.7980 C.3   253  ILE253      0.1692
    143  C          6.9490    0.3300    6.0950 C.2   253  ILE253      0.2591
    144  O          7.8040    0.4170    5.1790 O.2   253  ILE253     -0.2718
    145  CB         5.0010   -1.2870    6.1070 C.3   253  ILE253      0.0266
    146  CG1        5.4180   -2.2360    4.9750 C.3   253  ILE253      0.0019
    147  CG2        3.4970   -1.3240    6.4490 C.3   253  ILE253      0.0020
    148  CD1        5.7490   -3.6210    5.4260 C.3   253  ILE253      0.0001
    149  N          7.2190    0.3730    7.4020 N.am  254  LEU254     -0.1980
    150  CA         8.5540    0.5890    8.0180 C.3   254  LEU254      0.1596
    151  C          9.0250    2.0650    7.9270 C.2   254  LEU254      0.2287
    152  O          8.5660    2.8460    7.0710 O.2   254  LEU254     -0.2864
    153  CB         9.6250   -0.4580    7.5800 C.3   254  LEU254      0.0297
    154  CG         9.1940   -1.9520    7.4980 C.3   254  LEU254      0.0022
    155  CD1       10.3490   -2.8810    7.8360 C.3   254  LEU254      0.0001
    156  CD2        7.9280   -2.3430    8.3200 C.3   254  LEU254      0.0001
    157  N         10.3650   -7.6800   13.7100 N.3   277  LEU277     -0.1245
    158  CA        11.1400   -8.2970   12.6610 C.3   277  LEU277      0.1561
    159  C         12.6110   -8.2510   13.1450 C.2   277  LEU277      0.2260
    160  O         13.1040   -9.2250   13.7290 O.2   277  LEU277     -0.2867
    161  CB        10.9350   -7.4990   11.3810 C.3   277  LEU277      0.0270
    162  CG        11.0330   -8.1300    9.9980 C.3   277  LEU277      0.0019
    163  CD1       12.2580   -9.0040    9.9050 C.3   277  LEU277      0.0001
    164  CD2        9.7650   -8.9160    9.6370 C.3   277  LEU277      0.0001
@<TRIPOS>BOND
     1   108   106   am
     2   107   106    2
     3   106   105    1
     4   105   104    1
     5   104   101    1
     6   101   100    1
     7   101   102    1
     8   103   102    2
     9   102   109   am
    10   109   110    1
    11    79    78    1
    12   110   111    1
    13    90    91    2
    14    90    89    1
    15   111   112    2
    16   111   113   am
    17   115   116    2
    18   115   114    1
    19    78    80    1
    20    78    77    1
    21   113   114    1
    22    64    63    1
    23   120   118    1
    24   121   122    1
    25    92    89    1
    26    92    93    1
    27    89    88    1
    28   114   117    1
    29    77    74    1
    30    95    93   ar
    31    95    97   ar
    32   117   118    1
    33    61    60    2
    34    93    94   ar
    35    65    63    1
    36    63    62    1
    37   118   119    1
    38    62    59    1
    39    60    59    1
    40   122   123    1
    41   122   125    1
    42    97    98   ar
    43   123   124    2
    44    88    83   am
    45    76    75    2
    46   125   126    1
    47    74    75    1
    48    74    73    1
    49    59    58    1
    50    66    67    1
    51    94    96   ar
    52    75    81   am
    53    73    68   am
    54    68    69    2
    55    68    67    1
    56    83    84    2
    57    83    82    1
    58    98    96   ar
    59    98    99    1
    60    67    70    1
    61   126   127    1
    62   126   128    1
    63    58    49   am
    64    81    82    1
    65    81    87    1
    66   129   130    1
    67    82    85    1
    68    87    86    1
    69    70    71    1
    70    70    72    1
    71    49    50    2
    72    49    48    1
    73   140   139    1
    74    85    86    1
    75   132   131    2
    76   130   131    1
    77   130   133    1
    78   138   139   ar
    79   138   136   ar
    80    47    48    1
    81   139   137   ar
    82   136   134   ar
    83   137   135   ar
    84   134   135   ar
    85   134   133    1
    86    48    51    1
    87    51    52    1
    88    45    43   ar
    89    45    46   ar
    90    54    52   ar
    91    54    56   ar
    92   141   142    1
    93    43    42   ar
    94    46    44   ar
    95    52    53   ar
    96   146   148    1
    97   146   145    1
    98   144   143    2
    99    56    57   ar
   100   142   143    1
   101   142   145    1
   102    42    44   ar
   103    42    41    1
   104   143   149   am
   105   145   147    1
   106    53    55   ar
   107    57    55   ar
   108    40    39    2
   109    41    38    1
   110   152   151    2
   111    38    39    1
   112    38    37    1
   113   149   150    1
   114   154   153    1
   115   154   155    1
   116   154   156    1
   117   153   150    1
   118    33    32    2
   119   151   150    1
   120    35    34    1
   121    37    32   am
   122    32    31    1
   123    36    34    1
   124    34    31    1
   125    31    30    1
   126   164   162    1
   127    29    28    2
   128   163   162    1
   129   162   161    1
   130    27    28    1
   131    27    26    1
   132    14    13    1
   133    24    23    2
   134    15    13    1
   135   161   158    1
   136    26    23   am
   137    23    22    1
   138    13    12    1
   139    25    22    1
   140   158   159    1
   141   158   157    1
   142    12     9    1
   143    22    21    1
   144   159   160    2
   145    11    10    2
   146    19    18    2
   147    10     9    1
   148    10    16   am
   149     9     8    1
   150    17    16    1
   151    17    18    1
   152    17    20    1
   153     7     5    1
   154     6     5    1
   155     5     2    1
   156     2     3    1
   157     2     1    1
   158     4     3    2
