@<TRIPOS>MOLECULE
tmp/2wseA06.pdb
 93 89 0 0 0
SMALL
GASTEIGER

@<TRIPOS>ATOM
      1  N         55.6470  -12.9260   17.0840 N.3    22  ARG22      -0.1231
      2  CA        55.8450  -13.4680   15.7470 C.3    22  ARG22       0.1694
      3  C         54.5910  -13.1950   14.9320 C.2    22  ARG22       0.2592
      4  O         54.6500  -13.1000   13.7170 O.2    22  ARG22      -0.2718
      5  CB        56.1310  -14.9750   15.7880 C.3    22  ARG22       0.0321
      6  CG        56.6080  -15.5730   14.4790 C.3    22  ARG22       0.0489
      7  CD        56.4400  -17.0860   14.4570 C.3    22  ARG22       0.2205
      8  NE        56.9870  -17.6740   13.2480 N.pl3  22  ARG22      -0.0865
      9  CZ        56.7920  -18.9330   12.8570 C.cat  22  ARG22       0.5346
     10  NH1       56.0560  -19.7620   13.5810 N.pl3  22  ARG22       0.1354
     11  NH2       57.3410  -19.3700   11.7380 N.pl3  22  ARG22       0.1354
     12  N         53.4580  -13.0810   15.6170 N.am   23  TYR23      -0.1976
     13  CA        52.2360  -12.5810   15.0130 C.3    23  TYR23       0.1639
     14  C         52.2550  -11.0480   15.0600 C.2    23  TYR23       0.2290
     15  O         51.5420  -10.3890   14.3040 O.2    23  TYR23      -0.2864
     16  CB        50.9780  -13.1330   15.6970 C.3    23  TYR23       0.0560
     17  CG        50.9690  -14.6290   16.0080 C.ar   23  TYR23      -0.0198
     18  CD1       51.6350  -15.5530   15.2010 C.ar   23  TYR23      -0.0009
     19  CD2       50.2640  -15.1200   17.1030 C.ar   23  TYR23      -0.0009
     20  CE1       51.6210  -16.9210   15.4980 C.ar   23  TYR23       0.0417
     21  CE2       50.2370  -16.4800   17.4000 C.ar   23  TYR23       0.0417
     22  CZ        50.9180  -17.3740   16.5960 C.ar   23  TYR23       0.1957
     23  OH        50.8960  -18.7190   16.8900 O.3    23  TYR23      -0.2866
     24  N         54.9940   -9.6590   14.3510 N.3    25  GLU25      -0.1231
     25  CA        55.8430   -9.4360   13.1920 C.3    25  GLU25       0.1699
     26  C         54.9770   -8.9720   12.0400 C.2    25  GLU25       0.2592
     27  O         55.3790   -8.0950   11.2780 O.2    25  GLU25      -0.2718
     28  CB        56.5870  -10.7110   12.7940 C.3    25  GLU25       0.0402
     29  CG        57.9530  -10.8820   13.4250 C.3    25  GLU25       0.1161
     30  CD        58.8460  -11.8420   12.6510 C.2    25  GLU25       0.3649
     31  OE1       59.2660  -11.4910   11.5350 O.co2  25  GLU25      -0.2457
     32  OE2       59.1350  -12.9440   13.1620 O.co2  25  GLU25      -0.2457
     33  N         53.7870   -9.5670   11.9180 N.am   26  SER26      -0.1952
     34  CA        52.7930   -9.1240   10.9500 C.3    26  SER26       0.1924
     35  C         52.4440   -7.6490   11.1850 C.2    26  SER26       0.2314
     36  O         52.5080   -6.8390   10.2700 O.2    26  SER26      -0.2863
     37  CB        51.5340  -10.0140   10.9630 C.3    26  SER26       0.2116
     38  OG        50.5290   -9.5200   11.8310 O.3    26  SER26      -0.2180
     39  N         54.9620   -5.6140    9.5730 N.3    29  ILE29      -0.1245
     40  CA        54.8900   -5.6490    8.1230 C.3    29  ILE29       0.1561
     41  C         53.5610   -5.0860    7.6000 C.2    29  ILE29       0.2260
     42  O         53.4810   -4.6590    6.4580 O.2    29  ILE29      -0.2867
     43  CB        55.2750   -7.0370    7.5130 C.3    29  ILE29       0.0252
     44  CG1       54.3840   -8.1640    8.0530 C.3    29  ILE29       0.0019
     45  CG2       56.7760   -7.3160    7.7220 C.3    29  ILE29       0.0019
     46  CD1       54.9970   -9.5580    7.9810 C.3    29  ILE29       0.0001
     47  N         43.7260  -17.9480    3.3810 N.3    85  PHE85      -0.1227
     48  CA        44.7030  -18.8780    2.8290 C.3    85  PHE85       0.1736
     49  C         45.8620  -19.0870    3.8020 C.2    85  PHE85       0.2595
     50  O         46.1150  -20.2160    4.2230 O.2    85  PHE85      -0.2718
     51  CB        45.2330  -18.2840    1.5300 C.3    85  PHE85       0.0547
     52  CG        45.9680  -19.2610    0.6460 C.ar   85  PHE85      -0.0202
     53  CD1       47.3290  -19.5170    0.8270 C.ar   85  PHE85      -0.0042
     54  CD2       45.3110  -19.8700   -0.4120 C.ar   85  PHE85      -0.0042
     55  CE1       48.0130  -20.3960   -0.0080 C.ar   85  PHE85      -0.0003
     56  CE2       45.9860  -20.7490   -1.2520 C.ar   85  PHE85      -0.0003
     57  CZ        47.3410  -21.0120   -1.0490 C.ar   85  PHE85      -0.0000
     58  N         46.5400  -17.9940    4.1670 N.am   86  VAL86      -0.1980
     59  CA        47.7540  -18.0480    4.9960 C.3    86  VAL86       0.1595
     60  C         47.5260  -18.5660    6.4090 C.2    86  VAL86       0.2287
     61  O         48.2170  -19.4890    6.8450 O.2    86  VAL86      -0.2864
     62  CB        48.5340  -16.6820    5.0340 C.3    86  VAL86       0.0276
     63  CG1       47.6610  -15.5310    5.5360 C.3    86  VAL86       0.0022
     64  CG2       49.7980  -16.7990    5.8780 C.3    86  VAL86       0.0022
     65  N         47.2420  -22.1810    7.0200 N.3    89  GLN89      -0.1231
     66  CA        48.5480  -22.8400    6.9960 C.3    89  GLN89       0.1698
     67  C         49.3750  -22.4730    8.2200 C.2    89  GLN89       0.2592
     68  O         50.1240  -23.2990    8.7440 O.2    89  GLN89      -0.2718
     69  CB        49.3130  -22.4860    5.7220 C.3    89  GLN89       0.0381
     70  CG        48.5100  -22.6450    4.4280 C.3    89  GLN89       0.0905
     71  CD        48.4200  -24.0850    3.9200 C.2    89  GLN89       0.2608
     72  OE1       48.4840  -24.3230    2.7250 O.2    89  GLN89      -0.2717
     73  NE2       48.2620  -25.0400    4.8230 N.am   89  GLN89      -0.0878
     74  N         49.2170  -21.2290    8.6740 N.am   90  ARG90      -0.1980
     75  CA        49.9210  -20.7240    9.8370 C.3    90  ARG90       0.1597
     76  C         49.3400  -21.2800   11.1330 C.2    90  ARG90       0.2287
     77  O         50.0080  -21.2670   12.1620 O.2    90  ARG90      -0.2864
     78  CB        49.9190  -19.1910    9.8310 C.3    90  ARG90       0.0334
     79  CG        50.9920  -18.5510   10.6970 C.3    90  ARG90       0.0492
     80  CD        50.3880  -17.8370   11.8780 C.3    90  ARG90       0.2205
     81  NE        49.9370  -16.4950   11.5180 N.pl3  90  ARG90      -0.0865
     82  CZ        49.1780  -15.7160   12.2740 C.cat  90  ARG90       0.5346
     83  NH1       48.7680  -16.1300   13.4550 N.pl3  90  ARG90       0.1354
     84  NH2       48.8230  -14.5110   11.8440 N.pl3  90  ARG90       0.1354
     85  N         58.5900  -22.9570   17.6130 N.3   116  LYS116     -0.1245
     86  CA        58.6810  -23.6010   16.2960 C.3   116  LYS116      0.1561
     87  C         59.6450  -22.8080   15.4180 C.2   116  LYS116      0.2260
     88  O         60.6510  -23.3400   14.9440 O.2   116  LYS116     -0.2867
     89  CB        57.2880  -23.7780   15.6610 C.3   116  LYS116      0.0271
     90  CG        57.2590  -24.1200   14.1830 C.3   116  LYS116      0.0035
     91  CD        57.0190  -22.8750   13.3300 C.3   116  LYS116      0.0206
     92  CE        56.6220  -23.2320   11.9170 C.3   116  LYS116      0.1093
     93  NZ        57.6430  -24.0570   11.2100 N.3   116  LYS116     -0.1314
@<TRIPOS>BOND
     1    56    57   ar
     2    56    54   ar
     3    57    55   ar
     4    54    52   ar
     5    55    53   ar
     6    52    53   ar
     7    52    51    1
     8    51    48    1
     9    72    71    2
    10    48    47    1
    11    48    49    1
    12    49    58   am
    13    49    50    2
    14    71    70    1
    15    71    73   am
    16    58    59    1
    17    70    69    1
    18    59    62    1
    19    59    60    1
    20    62    63    1
    21    62    64    1
    22    69    66    1
    23    60    61    2
    24    42    41    2
    25    66    65    1
    26    66    67    1
    27    43    45    1
    28    43    44    1
    29    43    40    1
    30    41    40    1
    31    46    44    1
    32    40    39    1
    33    67    74   am
    34    67    68    2
    35    74    75    1
    36    78    75    1
    37    78    79    1
    38    75    76    1
    39    36    35    2
    40    79    80    1
    41    34    37    1
    42    34    35    1
    43    34    33    1
    44    37    38    1
    45    76    77    2
    46    93    92    1
    47    27    26    2
    48    81    80    1
    49    81    82    2
    50    31    30   ar
    51    11     9    1
    52    84    82    1
    53    92    91    1
    54    33    26   am
    55    26    25    1
    56    82    83    1
    57    30    32   ar
    58    30    29    1
    59    28    25    1
    60    28    29    1
    61     9     8    2
    62     9    10    1
    63    25    24    1
    64     8     7    1
    65    91    90    1
    66     4     3    2
    67    90    89    1
    68    15    14    2
    69     7     6    1
    70     6     5    1
    71     3    12   am
    72     3     2    1
    73    88    87    2
    74    13    14    1
    75    13    12    1
    76    13    16    1
    77    18    20   ar
    78    18    17   ar
    79    87    86    1
    80    20    22   ar
    81    89    86    1
    82    16    17    1
    83     2     5    1
    84     2     1    1
    85    17    19   ar
    86    86    85    1
    87    22    23    1
    88    22    21   ar
    89    19    21   ar
