@<TRIPOS>MOLECULE
tmp/2wseF07.pdb
 141 137 0 0 0
SMALL
GASTEIGER

@<TRIPOS>ATOM
      1  N          9.8780    2.4390    8.8780 N.3   255  THR255     -0.1203
      2  CA        10.4320    3.7820    8.9690 C.3   255  THR255      0.1994
      3  C         11.3270    3.8440   10.1960 C.2   255  THR255      0.2617
      4  O         11.6020    2.8140   10.8410 O.2   255  THR255     -0.2717
      5  CB         9.3030    4.8900    9.0910 C.3   255  THR255      0.1784
      6  OG1        9.8700    6.1910    8.8600 O.3   255  THR255     -0.2211
      7  CG2        8.6180    4.9020   10.4770 C.3   255  THR255      0.0376
      8  N         11.8070    5.0650   10.4680 N.am  256  ILE256     -0.1979
      9  CA        12.2200    5.5310   11.7770 C.3   256  ILE256      0.1595
     10  C         11.8920    7.0460   11.7630 C.2   256  ILE256      0.2287
     11  O         12.5650    7.8510   12.4330 O.2   256  ILE256     -0.2864
     12  CB        13.7470    5.3860   11.9950 C.3   256  ILE256      0.0276
     13  CG1       14.3150    4.1080   11.3680 C.3   256  ILE256      0.0022
     14  CG2       14.0540    5.4450   13.4670 C.3   256  ILE256      0.0022
     15  CD1       14.3830    2.9450   12.2970 C.3   256  ILE256      0.0001
     16  N          4.8340    5.3180   20.1080 N.3   267  LEU267     -0.1245
     17  CA         5.8200    4.9140   19.1110 C.3   267  LEU267      0.1561
     18  C          5.1190    4.8420   17.7880 C.2   267  LEU267      0.2260
     19  O          3.9230    4.5250   17.7260 O.2   267  LEU267     -0.2867
     20  CB         6.4570    3.5480   19.4760 C.3   267  LEU267      0.0270
     21  CG         7.8210    3.4190   20.2070 C.3   267  LEU267      0.0019
     22  CD1        8.0580    4.4970   21.2540 C.3   267  LEU267      0.0001
     23  CD2        7.8880    2.0810   20.8860 C.3   267  LEU267      0.0001
     24  N          7.7340    1.2200   13.1640 N.3   271  ASP271     -0.1225
     25  CA         8.9290    0.8920   13.9990 C.3   271  ASP271      0.1805
     26  C          8.7830   -0.2860   15.0070 C.2   271  ASP271      0.2597
     27  O          9.6930   -1.1370   15.0800 O.2   271  ASP271     -0.2718
     28  CB         9.5730    2.1650   14.6390 C.3   271  ASP271      0.1424
     29  CG        10.2520    3.0870   13.6050 C.2   271  ASP271      0.3668
     30  OD1        9.5820    3.4370   12.6200 O.co2 271  ASP271     -0.2456
     31  OD2       11.4390    3.4800   13.7640 O.co2 271  ASP271     -0.2456
     32  N          7.6550   -0.3750   15.7330 N.am  272  VAL272     -0.1980
     33  CA         7.4560   -1.5130   16.6270 C.3   272  VAL272      0.1595
     34  C          7.4060   -2.8690   15.8720 C.2   272  VAL272      0.2287
     35  O          6.9820   -3.8760   16.4640 O.2   272  VAL272     -0.2864
     36  CB         6.1720   -1.3920   17.5870 C.3   272  VAL272      0.0276
     37  CG1        6.0430   -0.0210   18.3290 C.3   272  VAL272      0.0022
     38  CG2        4.8770   -1.7000   16.8710 C.3   272  VAL272      0.0022
     39  N          9.5100   -3.5060   12.1900 N.3   274  HIS274     -0.1226
     40  CA        10.8320   -3.7800   11.6570 C.3   274  HIS274      0.1752
     41  C         11.5970   -4.3170   12.8400 C.2   274  HIS274      0.2596
     42  O         12.2480   -5.3490   12.7210 O.2   274  HIS274     -0.2718
     43  CB        11.5010   -2.5200   11.1170 C.3   274  HIS274      0.0759
     44  CG        13.0050   -2.6050   11.0360 C.ar  274  HIS274      0.0818
     45  ND1       13.8210   -1.5160   11.2750 N.ar  274  HIS274     -0.2268
     46  CD2       13.8370   -3.6290   10.7230 C.ar  274  HIS274      0.1154
     47  CE1       15.0950   -1.8690   11.1240 C.ar  274  HIS274      0.1986
     48  NE2       15.1320   -3.1470   10.7890 N.ar  274  HIS274     -0.2212
     49  N         11.4700   -3.6360   14.0010 N.am  275  HIS275     -0.1975
     50  CA        12.0790   -4.0880   15.2780 C.3   275  HIS275      0.1656
     51  C         11.7230   -5.5280   15.6110 C.2   275  HIS275      0.2291
     52  O         12.6220   -6.3610   15.7970 O.2   275  HIS275     -0.2864
     53  CB        11.6400   -3.2460   16.4610 C.3   275  HIS275      0.0771
     54  CG        11.9210   -3.9140   17.7690 C.ar  275  HIS275      0.0820
     55  ND1       11.0080   -4.7550   18.3930 N.ar  275  HIS275     -0.2267
     56  CD2       13.0330   -3.9170   18.5470 C.ar  275  HIS275      0.1154
     57  CE1       11.5370   -5.2270   19.5100 C.ar  275  HIS275      0.1986
     58  NE2       12.7640   -4.7290   19.6300 N.ar  275  HIS275     -0.2212
     59  N         13.2780   -7.1010   12.9990 N.3   278  ALA278     -0.1231
     60  CA        14.7450   -7.0430   13.1350 C.3   278  ALA278      0.1694
     61  C         15.3070   -7.9660   14.1890 C.2   278  ALA278      0.2591
     62  O         16.2720   -8.6710   13.9230 O.2   278  ALA278     -0.2718
     63  CB        15.2400   -5.6230   13.3240 C.3   278  ALA278      0.0304
     64  N         14.7130   -7.9930   15.3760 N.am  279  ILE279     -0.1980
     65  CA        15.2820   -8.8870   16.3930 C.3   279  ILE279      0.1595
     66  C         15.0880  -10.3430   15.9870 C.2   279  ILE279      0.2287
     67  O         16.0200  -11.1600   16.1260 O.2   279  ILE279     -0.2864
     68  CB        14.8470   -8.6010   17.8910 C.3   279  ILE279      0.0276
     69  CG1       13.3410   -8.8840   18.1410 C.3   279  ILE279      0.0022
     70  CG2       15.2880   -7.1930   18.3380 C.3   279  ILE279      0.0022
     71  CD1       13.0580   -9.6520   19.4710 C.3   279  ILE279      0.0001
     72  N         18.2190  -12.3950   14.9000 N.3   282  LEU282     -0.1245
     73  CA        19.2090  -12.5970   15.9440 C.3   282  LEU282      0.1561
     74  C         18.9470  -13.7990   16.8360 C.2   282  LEU282      0.2260
     75  O         19.8840  -14.5590   17.0760 O.2   282  LEU282     -0.2867
     76  CB        19.2760  -11.3340   16.7830 C.3   282  LEU282      0.0270
     77  CG        19.4180  -10.0530   15.9650 C.3   282  LEU282      0.0019
     78  CD1       18.7240   -8.8970   16.6460 C.3   282  LEU282      0.0001
     79  CD2       20.9080   -9.7710   15.6910 C.3   282  LEU282      0.0001
     80  N         12.0140   -2.7150   33.5500 N.3   346  LEU346     -0.1245
     81  CA        12.4770   -2.2680   32.2200 C.3   346  LEU346      0.1561
     82  C         11.3060   -2.1860   31.2080 C.2   346  LEU346      0.2260
     83  O         11.2180   -1.2450   30.4110 O.2   346  LEU346     -0.2867
     84  CB        13.5870   -3.2170   31.7160 C.3   346  LEU346      0.0270
     85  CG        14.6240   -2.7850   30.6690 C.3   346  LEU346      0.0019
     86  CD1       14.0660   -2.9070   29.2590 C.3   346  LEU346      0.0001
     87  CD2       15.1240   -1.3840   30.9320 C.3   346  LEU346      0.0001
     88  N         10.0490    1.6870   30.8010 N.3   350  HIS350     -0.1241
     89  CA        10.0790    2.0590   29.3940 C.3   350  HIS350      0.1621
     90  C          8.6790    2.2510   28.8460 C.2   350  HIS350      0.2264
     91  O          8.4790    3.0240   27.9470 O.2   350  HIS350     -0.2867
     92  CB        10.7810    0.9950   28.5630 C.3   350  HIS350      0.0745
     93  CG        12.2810    1.0450   28.6470 C.ar  350  HIS350      0.0817
     94  ND1       13.0480   -0.0680   28.9530 N.ar  350  HIS350     -0.2268
     95  CD2       13.1560    2.0710   28.4780 C.ar  350  HIS350      0.1154
     96  CE1       14.3330    0.2720   28.9560 C.ar  350  HIS350      0.1986
     97  NE2       14.4240    1.5670   28.6890 N.ar  350  HIS350     -0.2212
     98  N          7.9820    5.9880   26.6240 N.3   354  LEU354     -0.1245
     99  CA         7.8110    5.3360   25.3700 C.3   354  LEU354      0.1561
    100  C          6.5960    4.4330   25.4680 C.2   354  LEU354      0.2260
    101  O          6.7290    3.2200   25.3850 O.2   354  LEU354     -0.2867
    102  CB         9.0490    4.5180   25.0230 C.3   354  LEU354      0.0270
    103  CG        10.3200    5.1880   24.4840 C.3   354  LEU354      0.0019
    104  CD1        9.9270    6.3890   23.6490 C.3   354  LEU354      0.0001
    105  CD2       11.2740    5.6040   25.5670 C.3   354  LEU354      0.0001
    106  N         18.9040    7.6050   11.6060 N.3   492  TRP492     -0.1241
    107  CA        18.8000    7.1390   13.0070 C.3   492  TRP492      0.1605
    108  C         18.0980    8.1160   13.9990 C.2   492  TRP492      0.2264
    109  O         16.8810    8.0040   14.2680 O.2   492  TRP492     -0.2867
    110  CB        20.2100    6.8120   13.5210 C.3   492  TRP492      0.0550
    111  CG        20.5890    5.3760   13.7500 C.ar  492  TRP492      0.0003
    112  CD1       21.2290    4.5290   12.8830 C.ar  492  TRP492      0.0946
    113  CD2       20.4730    4.6580   14.9790 C.ar  492  TRP492      0.0152
    114  NE1       21.4940    3.3180   13.4850 N.ar  492  TRP492     -0.2442
    115  CE2       21.0400    3.3750   14.7760 C.ar  492  TRP492      0.0810
    116  CE3       19.9440    4.9750   16.2380 C.ar  492  TRP492      0.0012
    117  CZ2       21.0820    2.4060   15.7870 C.ar  492  TRP492      0.0191
    118  CZ3       19.9800    4.0030   17.2420 C.ar  492  TRP492      0.0001
    119  CH2       20.5400    2.7350   17.0060 C.ar  492  TRP492      0.0015
    120  N         13.1670   11.5950   16.4190 N.3   496  TRP496     -0.1227
    121  CA        13.1740   10.7500   17.6070 C.3   496  TRP496      0.1737
    122  C         14.4270   10.8040   18.4000 C.2   496  TRP496      0.2595
    123  O         15.4810   11.2460   17.9360 O.2   496  TRP496     -0.2718
    124  CB        12.9130    9.2920   17.2740 C.3   496  TRP496      0.0564
    125  CG        11.5140    9.0320   17.3320 C.ar  496  TRP496      0.0003
    126  CD1       10.6380    9.4760   18.2890 C.ar  496  TRP496      0.0946
    127  CD2       10.7460    8.2980   16.3890 C.ar  496  TRP496      0.0152
    128  NE1        9.3570    9.0520   17.9990 N.ar  496  TRP496     -0.2442
    129  CE2        9.3930    8.3220   16.8400 C.ar  496  TRP496      0.0810
    130  CE3       11.0620    7.6190   15.2150 C.ar  496  TRP496      0.0012
    131  CZ2        8.3530    7.6910   16.1520 C.ar  496  TRP496      0.0191
    132  CZ3       10.0270    7.0010   14.5290 C.ar  496  TRP496      0.0001
    133  CH2        8.6900    7.0420   15.0030 C.ar  496  TRP496      0.0015
    134  N         14.2990   10.2650   19.6010 N.am  497  LEU497     -0.1980
    135  CA        15.1930   10.6090   20.6980 C.3   497  LEU497      0.1596
    136  C         15.5750   12.1010   20.5780 C.2   497  LEU497      0.2287
    137  O         16.7450   12.4980   20.7800 O.2   497  LEU497     -0.2864
    138  CB        16.3990    9.6350   20.8050 C.3   497  LEU497      0.0297
    139  CG        17.5290    9.5190   19.7620 C.3   497  LEU497      0.0022
    140  CD1       18.6540   10.5520   20.0440 C.3   497  LEU497      0.0001
    141  CD2       18.0740    8.0590   19.6860 C.3   497  LEU497      0.0001
@<TRIPOS>BOND
     1     6     5    1
     2     1     2    1
     3     2     5    1
     4     2     3    1
     5     5     7    1
     6     3     8   am
     7     3     4    2
     8     8     9    1
     9    46    48   ar
    10    46    44   ar
    11    48    47   ar
    12    44    43    1
    13    44    45   ar
    14    43    40    1
    15    47    45   ar
    16    13    12    1
    17    13    15    1
    18   106   107    1
    19    40    39    1
    20    40    41    1
    21    10     9    1
    22    10    11    2
    23     9    12    1
    24    12    14    1
    25    30    29   ar
    26    42    41    2
    27    41    49   am
    28   112   114   ar
    29   112   111   ar
    30    59    60    1
    31   107   110    1
    32   107   108    1
    33    60    63    1
    34    60    61    1
    35    24    25    1
    36   114   115   ar
    37   110   111    1
    38    29    31   ar
    39    29    28    1
    40   111   113   ar
    41    62    61    2
    42   108   109    2
    43    25    28    1
    44    25    26    1
    45    49    50    1
    46    61    64   am
    47   132   133   ar
    48   132   130   ar
    49   115   113   ar
    50   115   117   ar
    51    72    73    1
    52   113   116   ar
    53   133   131   ar
    54    26    27    2
    55    26    32   am
    56   130   127   ar
    57    50    51    1
    58    50    53    1
    59    64    65    1
    60    51    52    2
    61    79    77    1
    62    32    33    1
    63   117   119   ar
    64    34    35    2
    65    34    33    1
    66    73    76    1
    67    73    74    1
    68    77    78    1
    69    77    76    1
    70    66    67    2
    71    66    65    1
    72   131   129   ar
    73   116   118   ar
    74   127   129   ar
    75   127   125   ar
    76    65    68    1
    77   120   121    1
    78    53    54    1
    79    33    36    1
    80    74    75    2
    81   129   128   ar
    82    38    36    1
    83   119   118   ar
    84   124   125    1
    85   124   121    1
    86   125   126   ar
    87    36    37    1
    88   121   122    1
    89    19    18    2
    90    54    55   ar
    91    54    56   ar
    92    18    17    1
    93    68    69    1
    94    68    70    1
    95   123   122    2
    96   128   126   ar
    97    69    71    1
    98    55    57   ar
    99   122   134   am
   100    56    58   ar
   101    17    20    1
   102    17    16    1
   103    20    21    1
   104    57    58   ar
   105   134   135    1
   106   141   139    1
   107   139   140    1
   108   139   138    1
   109    21    23    1
   110    21    22    1
   111   136   135    1
   112   136   137    2
   113   135   138    1
   114   104   103    1
   115   103   102    1
   116   103   105    1
   117   102    99    1
   118    99   100    1
   119    99    98    1
   120   101   100    2
   121    91    90    2
   122    95    93   ar
   123    95    97   ar
   124    92    93    1
   125    92    89    1
   126    93    94   ar
   127    97    96   ar
   128    90    89    1
   129    94    96   ar
   130    86    85    1
   131    89    88    1
   132    83    82    2
   133    85    87    1
   134    85    84    1
   135    82    81    1
   136    84    81    1
   137    81    80    1
