@<TRIPOS>MOLECULE
tmp/2wseF26.pdb
 223 219 0 0 0
SMALL
GASTEIGER

@<TRIPOS>ATOM
      1  N         10.4530   -4.3170   35.2070 N.3   345  SER345     -0.1217
      2  CA        10.5040   -2.8720   35.4330 C.3   345  SER345      0.1889
      3  C         11.0230   -2.1220   34.2310 C.2   345  SER345      0.2288
      4  O         10.5620   -1.0170   33.9610 O.2   345  SER345     -0.2866
      5  CB        11.3620   -2.5200   36.6390 C.3   345  SER345      0.2089
      6  OG        11.3320   -1.1050   36.8350 O.3   345  SER345     -0.2183
      7  N          9.1230    0.7340   33.0900 N.3   349  GLN349     -0.1245
      8  CA         9.7370    2.0810   33.1440 C.3   349  GLN349      0.1566
      9  C          9.9780    2.6030   31.7660 C.2   349  GLN349      0.2260
     10  O         10.1250    3.7980   31.5910 O.2   349  GLN349     -0.2867
     11  CB        11.0710    2.0760   33.8700 C.3   349  GLN349      0.0367
     12  CG        11.0670    3.0040   35.0330 C.3   349  GLN349      0.0905
     13  CD        12.0450    2.5530   36.0930 C.2   349  GLN349      0.2608
     14  OE1       11.9480    1.4440   36.6410 O.2   349  GLN349     -0.2717
     15  NE2       13.0090    3.4150   36.3890 N.am  349  GLN349     -0.0878
     16  N          6.5560    3.8830   29.8840 N.3   352  TYR352     -0.1241
     17  CA         6.2870    5.3470   29.9240 C.3   352  TYR352      0.1605
     18  C          7.4620    6.0410   29.2490 C.2   352  TYR352      0.2264
     19  O          8.5330    5.4430   29.0750 O.2   352  TYR352     -0.2867
     20  CB         6.0740    5.8920   31.3590 C.3   352  TYR352      0.0534
     21  CG         7.3330    6.5030   32.0060 C.ar  352  TYR352     -0.0201
     22  CD1        8.4140    5.7040   32.4030 C.ar  352  TYR352     -0.0009
     23  CD2        7.4370    7.8660   32.2250 C.ar  352  TYR352     -0.0009
     24  CE1        9.5540    6.2540   32.9790 C.ar  352  TYR352      0.0417
     25  CE2        8.5920    8.4150   32.8260 C.ar  352  TYR352      0.0417
     26  CZ         9.6330    7.6040   33.1910 C.ar  352  TYR352      0.1957
     27  OH        10.7650    8.1430   33.7650 O.3   352  TYR352     -0.2866
     28  N          2.2250    1.5180   35.5240 N.3   371  TYR371     -0.1241
     29  CA         3.6840    1.5780   35.6300 C.3   371  TYR371      0.1605
     30  C          4.0110    0.7440   36.8770 C.2   371  TYR371      0.2264
     31  O          5.0970    0.1620   37.0200 O.2   371  TYR371     -0.2867
     32  CB         4.1540    3.0700   35.7020 C.3   371  TYR371      0.0534
     33  CG         5.4920    3.3620   36.3800 C.ar  371  TYR371     -0.0201
     34  CD1        6.6670    3.6110   35.6580 C.ar  371  TYR371     -0.0009
     35  CD2        5.5680    3.4030   37.7470 C.ar  371  TYR371     -0.0009
     36  CE1        7.8940    3.8710   36.2980 C.ar  371  TYR371      0.0417
     37  CE2        6.7730    3.6640   38.4040 C.ar  371  TYR371      0.0417
     38  CZ         7.9270    3.8950   37.6870 C.ar  371  TYR371      0.1957
     39  OH         9.0710    4.1400   38.4370 O.3   371  TYR371     -0.2866
     40  N          5.5580   -2.4380   38.7850 N.3   375  GLN375     -0.1245
     41  CA         6.5660   -2.0290   39.7500 C.3   375  GLN375      0.1566
     42  C          6.3410   -2.8370   41.0140 C.2   375  GLN375      0.2260
     43  O          7.3050   -3.3340   41.5670 O.2   375  GLN375     -0.2867
     44  CB         6.4930   -0.5230   40.0110 C.3   375  GLN375      0.0367
     45  CG         7.3860    0.2730   39.1220 C.3   375  GLN375      0.0905
     46  CD         8.8410   -0.0640   39.3220 C.2   375  GLN375      0.2608
     47  OE1        9.2240   -1.2120   39.2530 O.2   375  GLN375     -0.2717
     48  NE2        9.6570    0.9350   39.5820 N.am  375  GLN375     -0.0878
     49  N         25.6450   14.1290   37.3350 N.3   458  PHE458     -0.1227
     50  CA        25.8830   12.9440   36.4750 C.3   458  PHE458      0.1736
     51  C         24.5910   12.4340   35.8950 C.2   458  PHE458      0.2595
     52  O         24.6460   11.5700   35.0520 O.2   458  PHE458     -0.2718
     53  CB        26.5820   11.7800   37.2000 C.3   458  PHE458      0.0547
     54  CG        27.5820   12.2010   38.2400 C.ar  458  PHE458     -0.0202
     55  CD1       28.5850   13.1290   37.9550 C.ar  458  PHE458     -0.0042
     56  CD2       27.5530   11.6260   39.4910 C.ar  458  PHE458     -0.0042
     57  CE1       29.5090   13.5130   38.9120 C.ar  458  PHE458     -0.0003
     58  CE2       28.4790   11.9880   40.4570 C.ar  458  PHE458     -0.0003
     59  CZ        29.4610   12.9420   40.1720 C.ar  458  PHE458     -0.0000
     60  N         23.4410   12.9390   36.3790 N.am  459  ALA459     -0.1980
     61  CA        22.1340   12.7020   35.7570 C.3   459  ALA459      0.1597
     62  C         22.0260   13.5970   34.5380 C.2   459  ALA459      0.2287
     63  O         22.4410   13.1810   33.4540 O.2   459  ALA459     -0.2864
     64  CB        21.0040   12.9910   36.7080 C.3   459  ALA459      0.0319
     65  N         23.6800   15.3290   33.0570 N.3   461  TRP461     -0.1227
     66  CA        24.8160   14.9870   32.2150 C.3   461  TRP461      0.1737
     67  C         24.4470   13.9490   31.1510 C.2   461  TRP461      0.2595
     68  O         24.5060   14.2550   29.9390 O.2   461  TRP461     -0.2718
     69  CB        26.0080   14.5060   33.0220 C.3   461  TRP461      0.0564
     70  CG        27.2950   14.7630   32.2980 C.ar  461  TRP461      0.0003
     71  CD1       27.8620   15.9880   32.0440 C.ar  461  TRP461      0.0946
     72  CD2       28.1760   13.7850   31.7180 C.ar  461  TRP461      0.0152
     73  NE1       29.0450   15.8270   31.3520 N.ar  461  TRP461     -0.2442
     74  CE2       29.2640   14.4840   31.1390 C.ar  461  TRP461      0.0810
     75  CE3       28.1600   12.3830   31.6530 C.ar  461  TRP461      0.0012
     76  CZ2       30.3230   13.8300   30.5030 C.ar  461  TRP461      0.0191
     77  CZ3       29.1990   11.7350   31.0260 C.ar  461  TRP461      0.0001
     78  CH2       30.2660   12.4550   30.4480 C.ar  461  TRP461      0.0015
     79  N         24.0620   12.7440   31.5970 N.am  462  ILE462     -0.1966
     80  CA        23.4340   11.7550   30.7190 C.3   462  ILE462      0.1727
     81  C         22.1690   12.4610   30.2130 C.2   462  ILE462      0.2616
     82  O         21.1750   12.5600   30.9320 O.2   462  ILE462     -0.2715
     83  CB        23.0680   10.4110   31.4530 C.3   462  ILE462      0.0290
     84  CG1       24.2940    9.5490   31.7420 C.3   462  ILE462      0.0022
     85  CG2       22.2150    9.5260   30.5830 C.3   462  ILE462      0.0023
     86  CD1       25.2730   10.1340   32.6350 C.3   462  ILE462      0.0001
     87  N         22.2490   13.0140   29.0050 N.am  463  GLN463     -0.1977
     88  CA        21.1300   13.7110   28.3300 C.3   463  GLN463      0.1601
     89  C         21.5760   15.0080   27.6370 C.2   463  GLN463      0.2287
     90  O         21.0420   15.3570   26.5720 O.2   463  GLN463     -0.2864
     91  CB        19.8840   13.9140   29.2040 C.3   463  GLN463      0.0394
     92  CG        19.9150   15.1420   30.0630 C.3   463  GLN463      0.0908
     93  CD        18.6790   15.2950   30.9610 C.2   463  GLN463      0.2608
     94  OE1       18.6150   16.2160   31.7890 O.2   463  GLN463     -0.2717
     95  NE2       17.6890   14.3950   30.8030 N.am  463  GLN463     -0.0878
     96  N         22.8250   13.5500   24.5820 N.3   466  HIS466     -0.1241
     97  CA        21.7190   12.8090   24.0010 C.3   466  HIS466      0.1621
     98  C         20.8430   13.6500   23.0960 C.2   466  HIS466      0.2264
     99  O         20.7830   13.4250   21.8930 O.2   466  HIS466     -0.2867
    100  CB        20.8390   12.2110   25.0860 C.3   466  HIS466      0.0745
    101  CG        21.2530   10.8340   25.4860 C.ar  466  HIS466      0.0817
    102  ND1       21.7450   10.5410   26.7380 N.ar  466  HIS466     -0.2268
    103  CD2       21.2520    9.6650   24.8020 C.ar  466  HIS466      0.1154
    104  CE1       22.0120    9.2420   26.8120 C.ar  466  HIS466      0.1986
    105  NE2       21.7240    8.6920   25.6500 N.ar  466  HIS466     -0.2212
    106  N          9.6570   12.8620   27.4390 N.3   507  LEU507     -0.1231
    107  CA        10.4240   11.6480   27.7450 C.3   507  LEU507      0.1693
    108  C         11.2700   11.9010   28.9770 C.2   507  LEU507      0.2592
    109  O         10.9860   11.3770   30.0740 O.2   507  LEU507     -0.2718
    110  CB        11.3370   11.2150   26.5820 C.3   507  LEU507      0.0284
    111  CG        10.8570   10.4240   25.3680 C.3   507  LEU507      0.0019
    112  CD1        9.3440   10.5210   25.1200 C.3   507  LEU507      0.0001
    113  CD2       11.6400   10.9200   24.1360 C.3   507  LEU507      0.0001
    114  N         12.3170   12.7080   28.8090 N.am  508  PHE508     -0.1962
    115  CA        13.2190   12.9800   29.9190 C.3   508  PHE508      0.1771
    116  C         12.7350   14.2800   30.6090 C.2   508  PHE508      0.2619
    117  O         12.6200   15.3470   29.9520 O.2   508  PHE508     -0.2715
    118  CB        14.7100   13.0910   29.4820 C.3   508  PHE508      0.0574
    119  CG        15.2280   11.9420   28.6140 C.ar  508  PHE508     -0.0200
    120  CD1       16.5110   11.4280   28.8260 C.ar  508  PHE508     -0.0042
    121  CD2       14.4780   11.4270   27.5670 C.ar  508  PHE508     -0.0042
    122  CE1       17.0350   10.4000   28.0320 C.ar  508  PHE508     -0.0003
    123  CE2       14.9850   10.3940   26.7640 C.ar  508  PHE508     -0.0003
    124  CZ        16.2700    9.8760   27.0000 C.ar  508  PHE508     -0.0000
    125  N         12.4280   14.1600   31.9150 N.am  509  LEU509     -0.1977
    126  CA        12.0150   15.3040   32.7760 C.3   509  LEU509      0.1596
    127  C         13.2360   15.8930   33.5120 C.2   509  LEU509      0.2287
    128  O         14.1180   15.1500   33.9940 O.2   509  LEU509     -0.2864
    129  CB        10.8250   14.9620   33.7180 C.3   509  LEU509      0.0297
    130  CG        10.7860   13.7430   34.6650 C.3   509  LEU509      0.0022
    131  CD1        9.3950   13.0580   34.7100 C.3   509  LEU509      0.0001
    132  CD2       11.8610   12.7000   34.3600 C.3   509  LEU509      0.0001
    133  N         15.1890   17.0580   35.6910 N.3   511  ILE511     -0.1245
    134  CA        16.0530   16.7830   36.8570 C.3   511  ILE511      0.1561
    135  C         16.7630   17.9210   37.6050 C.2   511  ILE511      0.2260
    136  O         17.5720   18.6560   37.0360 O.2   511  ILE511     -0.2867
    137  CB        17.0850   15.7030   36.5230 C.3   511  ILE511      0.0252
    138  CG1       17.3080   15.6390   35.0120 C.3   511  ILE511      0.0019
    139  CG2       16.5870   14.3790   37.0170 C.3   511  ILE511      0.0019
    140  CD1       18.3900   14.6530   34.5630 C.3   511  ILE511      0.0001
    141  N         16.3020    9.5500   44.2290 N.3   519  HIS519     -0.1241
    142  CA        17.2670    8.7770   43.4350 C.3   519  HIS519      0.1621
    143  C         18.4490    8.2370   44.2430 C.2   519  HIS519      0.2264
    144  O         19.1610    7.3590   43.7710 O.2   519  HIS519     -0.2867
    145  CB        17.8220    9.6240   42.2690 C.3   519  HIS519      0.0745
    146  CG        17.1900    9.3230   40.9420 C.ar  519  HIS519      0.0817
    147  ND1       16.0720    9.9980   40.4790 N.ar  519  HIS519     -0.2268
    148  CD2       17.5300    8.4280   39.9790 C.ar  519  HIS519      0.1154
    149  CE1       15.7380    9.5170   39.2950 C.ar  519  HIS519      0.1986
    150  NE2       16.6110    8.5670   38.9660 N.ar  519  HIS519     -0.2212
    151  N         15.9490    5.4440   46.4810 N.3   522  ILE522     -0.1231
    152  CA        15.6440    4.1920   45.7750 C.3   522  ILE522      0.1692
    153  C         16.9340    3.3620   45.7810 C.2   522  ILE522      0.2591
    154  O         16.8680    2.1410   45.7120 O.2   522  ILE522     -0.2718
    155  CB        15.2340    4.4130   44.2810 C.3   522  ILE522      0.0266
    156  CG1       14.1300    5.4760   44.1270 C.3   522  ILE522      0.0019
    157  CG2       14.8010    3.0880   43.6200 C.3   522  ILE522      0.0020
    158  CD1       13.9410    6.0030   42.7150 C.3   522  ILE522      0.0001
    159  N         18.0970    4.0350   45.8560 N.am  523  ALA523     -0.1980
    160  CA        19.4090    3.3500   45.9060 C.3   523  ALA523      0.1597
    161  C         19.7410    2.7690   47.2890 C.2   523  ALA523      0.2287
    162  O         20.3440    1.6750   47.3870 O.2   523  ALA523     -0.2864
    163  CB        20.5260    4.2440   45.4110 C.3   523  ALA523      0.0319
    164  N         17.0710   -1.0960   47.2630 N.3   526  LEU526     -0.1245
    165  CA        17.7740   -2.2780   46.6820 C.3   526  LEU526      0.1561
    166  C         19.3060   -2.2770   46.9480 C.2   526  LEU526      0.2260
    167  O         20.1080   -1.8130   46.1220 O.2   526  LEU526     -0.2867
    168  CB        17.4820   -2.4600   45.1790 C.3   526  LEU526      0.0270
    169  CG        17.3050   -1.2750   44.2260 C.3   526  LEU526      0.0019
    170  CD1       15.8560   -0.7980   44.2220 C.3   526  LEU526      0.0001
    171  CD2       18.2680   -0.1330   44.5650 C.3   526  LEU526      0.0001
    172  N         10.1900    4.6850   44.9690 N.3   589  VAL589     -0.1245
    173  CA        10.2250    4.7500   43.5350 C.3   589  VAL589      0.1561
    174  C          8.8390    5.1330   42.9930 C.2   589  VAL589      0.2260
    175  O          8.7130    6.1980   42.4070 O.2   589  VAL589     -0.2867
    176  CB        10.8720    3.4920   42.8760 C.3   589  VAL589      0.0252
    177  CG1       10.2570    2.2260   43.3670 C.3   589  VAL589      0.0019
    178  CG2       10.7340    3.5680   41.4040 C.3   589  VAL589      0.0019
    179  N          7.3600    8.5910   43.8850 N.3   592  TYR592     -0.1227
    180  CA         8.1150    9.5860   43.1420 C.3   592  TYR592      0.1736
    181  C          7.3860    9.9050   41.8350 C.2   592  TYR592      0.2595
    182  O          6.7080   10.9350   41.7700 O.2   592  TYR592     -0.2718
    183  CB         9.5770    9.1160   43.0030 C.3   592  TYR592      0.0548
    184  CG        10.4880    9.8110   42.0190 C.ar  592  TYR592     -0.0200
    185  CD1       11.5470    9.1030   41.4200 C.ar  592  TYR592     -0.0009
    186  CD2       10.3360   11.1580   41.6950 C.ar  592  TYR592     -0.0009
    187  CE1       12.4080    9.7090   40.5090 C.ar  592  TYR592      0.0417
    188  CE2       11.1940   11.7620   40.7860 C.ar  592  TYR592      0.0417
    189  CZ        12.2180   11.0290   40.2040 C.ar  592  TYR592      0.1957
    190  OH        13.0560   11.6300   39.3200 O.3   592  TYR592     -0.2866
    191  N          7.4440    9.0390   40.8280 N.am  593  TRP593     -0.1976
    192  CA         6.5980    9.2840   39.6460 C.3   593  TRP593      0.1640
    193  C          5.1880    9.5410   40.1690 C.2   593  TRP593      0.2290
    194  O          4.6220    8.6970   40.8700 O.2   593  TRP593     -0.2864
    195  CB         6.5390    8.0620   38.7150 C.3   593  TRP593      0.0576
    196  CG         5.3990    8.1470   37.7140 C.ar  593  TRP593      0.0006
    197  CD1        4.1170    8.6600   37.9240 C.ar  593  TRP593      0.0946
    198  CD2        5.4230    7.7100   36.3760 C.ar  593  TRP593      0.0152
    199  NE1        3.3570    8.5830   36.7770 N.ar  593  TRP593     -0.2442
    200  CE2        4.1260    7.9980   35.8110 C.ar  593  TRP593      0.0810
    201  CE3        6.3970    7.1070   35.5870 C.ar  593  TRP593      0.0012
    202  CZ2        3.7940    7.6960   34.5120 C.ar  593  TRP593      0.0191
    203  CZ3        6.0640    6.8090   34.2980 C.ar  593  TRP593      0.0001
    204  CH2        4.7700    7.1070   33.7590 C.ar  593  TRP593      0.0015
    205  N          5.4460   14.8630   40.2130 N.3   596  LYS596     -0.1231
    206  CA         6.0480   14.5590   38.9290 C.3   596  LYS596      0.1693
    207  C          4.8740   13.8660   38.2280 C.2   596  LYS596      0.2592
    208  O          4.1140   13.1260   38.8570 O.2   596  LYS596     -0.2718
    209  CB         7.2690   13.6140   39.0720 C.3   596  LYS596      0.0285
    210  CG         8.1700   13.5220   37.8440 C.3   596  LYS596      0.0035
    211  CD         9.0470   14.7730   37.6470 C.3   596  LYS596      0.0206
    212  CE        10.4730   14.6090   38.2540 C.3   596  LYS596      0.1093
    213  NZ        11.2930   13.4110   37.7860 N.3   596  LYS596     -0.1314
    214  N          4.6720   14.1570   36.9540 N.am  597  HIS597     -0.1976
    215  CA         3.4650   13.6680   36.2920 C.3   597  HIS597      0.1656
    216  C          2.2240   14.4450   36.7600 C.2   597  HIS597      0.2291
    217  O          1.7910   15.3780   36.0620 O.2   597  HIS597     -0.2864
    218  CB         3.3270   12.1540   36.4690 C.3   597  HIS597      0.0771
    219  CG         4.4760   11.4060   35.8670 C.ar  597  HIS597      0.0820
    220  ND1        5.5570   10.9690   36.6040 N.ar  597  HIS597     -0.2267
    221  CD2        4.7570   11.0930   34.5820 C.ar  597  HIS597      0.1154
    222  CE1        6.4440   10.3920   35.8070 C.ar  597  HIS597      0.1986
    223  NE2        5.9800   10.4500   34.5750 N.ar  597  HIS597     -0.2212
@<TRIPOS>BOND
     1    99    98    2
     2    98    97    1
     3    97    96    1
     4    97   100    1
     5   113   111    1
     6   103   101   ar
     7   103   105   ar
     8   100   101    1
     9   112   111    1
    10   111   110    1
    11   101   102   ar
    12   105   104   ar
    13    90    89    2
    14   110   107    1
    15   102   104   ar
    16   123   124   ar
    17   123   121   ar
    18   124   122   ar
    19   106   107    1
    20   121   119   ar
    21    89    88    1
    22   107   108    1
    23   122   120   ar
    24    88    87    1
    25    88    91    1
    26   119   120   ar
    27   119   118    1
    28   114   108   am
    29   114   115    1
    30   108   109    2
    31    87    81   am
    32    19    18    2
    33    91    92    1
    34    18    17    1
    35   118   115    1
    36    16    17    1
    37   115   116    1
    38    17    20    1
    39    68    67    2
    40   117   116    2
    41    92    93    1
    42    81    80    1
    43    81    82    2
    44    78    76   ar
    45    78    77   ar
    46    76    74   ar
    47    85    83    1
    48   116   125   am
    49    80    83    1
    50    80    79    1
    51    95    93   am
    52    93    94    2
    53    77    75   ar
    54    74    73   ar
    55    74    72   ar
    56    67    79   am
    57    67    66    1
    58    73    71   ar
    59    20    21    1
    60    83    84    1
    61    10     9    2
    62    75    72   ar
    63    72    70   ar
    64    84    86    1
    65     9     8    1
    66   125   126    1
    67    21    23   ar
    68    21    22   ar
    69    71    70   ar
    70    66    69    1
    71    66    65    1
    72    23    25   ar
    73    70    69    1
    74    22    24   ar
    75   126   127    1
    76   126   129    1
    77    25    26   ar
    78    24    26   ar
    79     7     8    1
    80     8    11    1
    81    26    27    1
    82    63    62    2
    83   127   128    2
    84   129   130    1
    85   204   203   ar
    86   204   202   ar
    87    11    12    1
    88     4     3    2
    89     3     2    1
    90   203   201   ar
    91   132   130    1
    92   202   200   ar
    93    62    61    1
    94   140   138    1
    95   223   221   ar
    96   223   222   ar
    97   221   219   ar
    98   130   131    1
    99   138   137    1
   100    12    13    1
   101    52    51    2
   102     1     2    1
   103     2     5    1
   104    28    29    1
   105   201   198   ar
   106    29    32    1
   107    29    30    1
   108    34    36   ar
   109    34    33   ar
   110   133   134    1
   111    32    33    1
   112    61    60    1
   113    61    64    1
   114   222   220   ar
   115   200   198   ar
   116   200   199   ar
   117   219   218    1
   118   219   220   ar
   119    51    60   am
   120    51    50    1
   121   217   216    2
   122    13    15   am
   123    13    14    2
   124   215   218    1
   125   215   216    1
   126   215   214    1
   127    36    38   ar
   128   198   196   ar
   129    33    35   ar
   130    50    53    1
   131    50    49    1
   132   137   134    1
   133   137   139    1
   134     5     6    1
   135   199   197   ar
   136   134   135    1
   137    30    31    2
   138   214   207   am
   139   136   135    2
   140    53    54    1
   141   211   210    1
   142   211   212    1
   143    38    37   ar
   144    38    39    1
   145   196   197   ar
   146   196   195    1
   147    35    37   ar
   148   213   212    1
   149   210   209    1
   150    55    54   ar
   151    55    57   ar
   152   207   208    2
   153   207   206    1
   154    54    56   ar
   155   195   192    1
   156    40    41    1
   157    57    59   ar
   158   206   209    1
   159   206   205    1
   160   150   149   ar
   161   150   148   ar
   162    45    46    1
   163    45    44    1
   164    47    46    2
   165   149   147   ar
   166   190   189    1
   167    46    48   am
   168    56    58   ar
   169   192   193    1
   170   192   191    1
   171    41    44    1
   172    41    42    1
   173   148   146   ar
   174   193   194    2
   175    59    58   ar
   176   189   187   ar
   177   189   188   ar
   178   147   146   ar
   179   187   185   ar
   180   188   186   ar
   181   191   181   am
   182   146   145    1
   183    42    43    2
   184   178   176    1
   185   185   184   ar
   186   186   184   ar
   187   182   181    2
   188   181   180    1
   189   184   183    1
   190   145   142    1
   191   175   174    2
   192   158   156    1
   193   176   177    1
   194   176   173    1
   195   174   173    1
   196   183   180    1
   197   180   179    1
   198   142   141    1
   199   142   143    1
   200   173   172    1
   201   157   155    1
   202   144   143    2
   203   156   155    1
   204   170   169    1
   205   169   171    1
   206   169   168    1
   207   155   152    1
   208   168   165    1
   209   163   160    1
   210   154   153    2
   211   152   153    1
   212   152   151    1
   213   153   159   am
   214   159   160    1
   215   160   161    1
   216   167   166    2
   217   165   166    1
   218   165   164    1
   219   161   162    2
