@<TRIPOS>MOLECULE
tmp/2wseF53.pdb
 196 193 0 0 0
SMALL
GASTEIGER

@<TRIPOS>ATOM
      1  N         -5.3100  -20.8410   32.8260 N.3    55  ILE55      -0.1245
      2  CA        -6.0750  -19.8940   33.6350 C.3    55  ILE55       0.1561
      3  C         -5.8170  -18.4820   33.1620 C.2    55  ILE55       0.2260
      4  O         -6.5190  -17.5640   33.5450 O.2    55  ILE55      -0.2867
      5  CB        -5.6640  -19.9920   35.1380 C.3    55  ILE55       0.0252
      6  CG1       -5.6590  -21.4770   35.6620 C.3    55  ILE55       0.0019
      7  CG2       -6.4820  -19.0170   35.9970 C.3    55  ILE55       0.0019
      8  CD1       -6.9760  -22.3370   35.5040 C.3    55  ILE55       0.0001
      9  N         -8.7490  -17.7260   30.4720 N.3    58  LEU58      -0.1231
     10  CA       -10.0800  -17.4690   31.0700 C.3    58  LEU58       0.1693
     11  C        -10.1190  -16.1090   31.7380 C.2    58  LEU58       0.2592
     12  O        -11.1560  -15.6270   32.1980 O.2    58  LEU58      -0.2718
     13  CB       -10.4090  -18.5210   32.1170 C.3    58  LEU58       0.0284
     14  CG       -11.2900  -19.7160   31.7370 C.3    58  LEU58       0.0019
     15  CD1      -11.6980  -20.3940   33.0030 C.3    58  LEU58       0.0001
     16  CD2      -12.5430  -19.3600   30.8620 C.3    58  LEU58       0.0001
     17  N         -8.9430  -15.5090   31.8270 N.am   59  TRP59      -0.1976
     18  CA        -8.7860  -14.1530   32.3060 C.3    59  TRP59       0.1640
     19  C         -9.0020  -13.2640   31.0980 C.2    59  TRP59       0.2290
     20  O        -10.0220  -12.5620   31.0210 O.2    59  TRP59      -0.2864
     21  CB        -7.3660  -14.0300   32.8420 C.3    59  TRP59       0.0576
     22  CG        -6.9880  -12.7620   33.4630 C.ar   59  TRP59       0.0006
     23  CD1       -7.5980  -12.1460   34.5000 C.ar   59  TRP59       0.0946
     24  CD2       -5.8120  -11.9930   33.1580 C.ar   59  TRP59       0.0152
     25  NE1       -6.8980  -11.0160   34.8430 N.ar   59  TRP59      -0.2442
     26  CE2       -5.7990  -10.8990   34.0250 C.ar   59  TRP59       0.0810
     27  CE3       -4.7780  -12.1180   32.2110 C.ar   59  TRP59       0.0012
     28  CZ2       -4.8120   -9.9240   33.9680 C.ar   59  TRP59       0.0191
     29  CZ3       -3.7900  -11.1550   32.1670 C.ar   59  TRP59       0.0001
     30  CH2       -3.8140  -10.0750   33.0360 C.ar   59  TRP59       0.0015
     31  N        -12.5050  -13.0670   29.1730 N.3    62  GLY62      -0.1210
     32  CA       -13.4770  -12.2070   29.8620 C.3    62  GLY62       0.1956
     33  C        -13.0930  -10.7330   29.8310 C.2    62  GLY62       0.2611
     34  O        -13.9580   -9.8240   29.9250 O.2    62  GLY62      -0.2717
     35  N        -11.7830  -10.4980   29.6960 N.am   63  ASN63      -0.1974
     36  CA       -11.2950   -9.1540   29.5360 C.3    63  ASN63       0.1688
     37  C        -11.8640   -8.6520   28.2240 C.2    63  ASN63       0.2292
     38  O        -12.4440   -7.5600   28.1360 O.2    63  ASN63      -0.2864
     39  CB        -9.7550   -9.1370   29.6160 C.3    63  ASN63       0.1181
     40  CG        -9.2240   -9.6940   30.9650 C.2    63  ASN63       0.2629
     41  OD1       -9.9970   -9.8670   31.9460 O.2    63  ASN63      -0.2716
     42  ND2       -7.9040   -9.9850   31.0120 N.am   63  ASN63      -0.0877
     43  N        -16.2120   -8.4710   28.6930 N.3    66  HIS66      -0.1226
     44  CA       -16.9940   -7.3720   29.2570 C.3    66  HIS66       0.1752
     45  C        -16.6780   -6.0730   28.5290 C.2    66  HIS66       0.2595
     46  O        -16.2410   -5.0670   29.0970 O.2    66  HIS66      -0.2718
     47  CB       -16.9060   -7.3010   30.7810 C.3    66  HIS66       0.0759
     48  CG       -18.2360   -7.5970   31.4470 C.ar   66  HIS66       0.0818
     49  ND1      -18.5900   -8.8580   31.9090 N.ar   66  HIS66      -0.2268
     50  CD2      -19.3250   -6.7970   31.6580 C.ar   66  HIS66       0.1154
     51  CE1      -19.8350   -8.8150   32.3830 C.ar   66  HIS66       0.1986
     52  NE2      -20.3030   -7.5780   32.2410 N.ar   66  HIS66      -0.2212
     53  N        -16.9700   -6.1460   27.2360 N.am   67  VAL67      -0.1980
     54  CA       -16.5310   -5.2490   26.1870 C.3    67  VAL67       0.1595
     55  C        -17.0120   -6.0800   25.0030 C.2    67  VAL67       0.2287
     56  O        -16.5710   -7.2300   24.8290 O.2    67  VAL67      -0.2864
     57  CB       -14.9740   -5.1410   26.0980 C.3    67  VAL67       0.0276
     58  CG1      -14.5350   -4.6320   24.7170 C.3    67  VAL67       0.0022
     59  CG2      -14.3760   -4.2830   27.2230 C.3    67  VAL67       0.0022
     60  N        -14.6210    2.2370   29.8780 N.3    86  ILE86      -0.1231
     61  CA       -15.4480    1.2030   30.6680 C.3    86  ILE86       0.1692
     62  C        -14.9140   -0.2460   30.6590 C.2    86  ILE86       0.2592
     63  O        -14.5770   -0.8050   29.5970 O.2    86  ILE86      -0.2718
     64  CB       -17.0240    1.1270   30.3460 C.3    86  ILE86       0.0266
     65  CG1      -17.8010    2.3090   30.9180 C.3    86  ILE86       0.0019
     66  CG2      -17.6620   -0.1140   30.9690 C.3    86  ILE86       0.0020
     67  CD1      -19.0260    2.6090   30.1140 C.3    86  ILE86       0.0001
     68  N        -14.8980   -0.8290   31.8640 N.am   87  ALA87      -0.1966
     69  CA       -14.5680   -2.2580   32.0970 C.3    87  ALA87       0.1728
     70  C        -15.8120   -3.1250   32.0030 C.2    87  ALA87       0.2616
     71  O        -15.9720   -3.8810   31.0470 O.2    87  ALA87      -0.2715
     72  CB       -13.9140   -2.4590   33.4700 C.3    87  ALA87       0.0334
     73  N        -16.6870   -2.9970   33.0010 N.am   88  HIS88      -0.1973
     74  CA       -17.8340   -3.8840   33.1730 C.3    88  HIS88       0.1656
     75  C        -18.8910   -3.2050   34.0200 C.2    88  HIS88       0.2291
     76  O        -18.6420   -2.1540   34.6240 O.2    88  HIS88      -0.2864
     77  CB       -17.4110   -5.2240   33.8220 C.3    88  HIS88       0.0771
     78  CG       -16.9460   -5.0990   35.2440 C.ar   88  HIS88       0.0820
     79  ND1      -15.9930   -4.1800   35.6490 N.ar   88  HIS88      -0.2267
     80  CD2      -17.2780   -5.8130   36.3470 C.ar   88  HIS88       0.1154
     81  CE1      -15.7730   -4.3170   36.9410 C.ar   88  HIS88       0.1986
     82  NE2      -16.5370   -5.3040   37.3880 N.ar   88  HIS88      -0.2212
     83  N        -21.1090   -2.6540   37.0660 N.3    90  ILE90      -0.1245
     84  CA       -21.2230   -2.9090   38.4850 C.3    90  ILE90       0.1561
     85  C        -22.7150   -3.0800   38.8330 C.2    90  ILE90       0.2260
     86  O        -23.5950   -2.3030   38.3920 O.2    90  ILE90      -0.2867
     87  CB       -20.4490   -1.8810   39.3690 C.3    90  ILE90       0.0252
     88  CG1      -20.9400   -0.4470   39.1290 C.3    90  ILE90       0.0019
     89  CG2      -18.9510   -1.9920   39.0960 C.3    90  ILE90       0.0019
     90  CD1      -19.8790    0.6280   39.2650 C.3    90  ILE90       0.0001
     91  N        -17.3170    0.9490   35.4420 N.3   113  ASN113     -0.1225
     92  CA       -16.0700    1.4260   36.0560 C.3   113  ASN113      0.1785
     93  C        -14.8020    1.7420   35.2050 C.2   113  ASN113      0.2597
     94  O        -13.7660    2.1520   35.7570 O.2   113  ASN113     -0.2718
     95  CB       -15.7300    0.5100   37.2360 C.3   113  ASN113      0.1169
     96  CG       -15.9980    1.1770   38.5810 C.2   113  ASN113      0.2627
     97  OD1      -17.0090    0.8930   39.2310 O.2   113  ASN113     -0.2716
     98  ND2      -15.0890    2.0660   39.0060 N.am  113  ASN113     -0.0877
     99  N        -14.8930    1.5790   33.8850 N.am  114  ASN114     -0.1960
    100  CA       -13.8540    2.0200   32.8730 C.3   114  ASN114      0.1819
    101  C        -12.4100    1.4760   32.8700 C.2   114  ASN114      0.2621
    102  O        -11.7420    1.4370   33.8870 O.2   114  ASN114     -0.2715
    103  CB       -13.8480    3.5410   32.6040 C.3   114  ASN114      0.1195
    104  CG       -13.7790    4.3690   33.8390 C.2   114  ASN114      0.2630
    105  OD1      -12.9530    4.1330   34.7410 O.2   114  ASN114     -0.2716
    106  ND2      -14.6440    5.3780   33.8860 N.am  114  ASN114     -0.0877
    107  N        -11.9200    1.1150   31.7000 N.am  115  ALA115     -0.1963
    108  CA       -10.5750    0.5470   31.5960 C.3   115  ALA115      0.1728
    109  C         -9.4360    1.4860   32.0370 C.2   115  ALA115      0.2616
    110  O         -9.1190    2.4900   31.3590 O.2   115  ALA115     -0.2715
    111  CB       -10.2990    0.0520   30.2010 C.3   115  ALA115      0.0334
    112  N         -8.8390    1.1180   33.1820 N.am  116  TYR116     -0.1960
    113  CA        -7.5240    1.6160   33.6400 C.3   116  TYR116      0.1771
    114  C         -6.3620    0.6740   33.2550 C.2   116  TYR116      0.2620
    115  O         -5.2370    1.1190   33.1230 O.2   116  TYR116     -0.2715
    116  CB        -7.5360    1.9260   35.1390 C.3   116  TYR116      0.0574
    117  CG        -8.3620    3.1490   35.5260 C.ar  116  TYR116     -0.0198
    118  CD1       -9.4680    3.0240   36.3750 C.ar  116  TYR116     -0.0009
    119  CD2       -8.0490    4.4220   35.0430 C.ar  116  TYR116     -0.0009
    120  CE1      -10.2600    4.1220   36.7290 C.ar  116  TYR116      0.0417
    121  CE2       -8.8340    5.5350   35.4000 C.ar  116  TYR116      0.0417
    122  CZ        -9.9390    5.3710   36.2450 C.ar  116  TYR116      0.1957
    123  OH       -10.7230    6.4490   36.6090 O.3   116  TYR116     -0.2866
    124  N         -6.6310   -0.6200   33.0800 N.am  117  SER117     -0.1950
    125  CA        -5.7710   -1.4690   32.2100 C.3   117  SER117      0.1924
    126  C         -5.6440   -0.8190   30.8220 C.2   117  SER117      0.2314
    127  O         -6.5530   -0.0960   30.3800 O.2   117  SER117     -0.2863
    128  CB        -6.3550   -2.9150   32.0500 C.3   117  SER117      0.2116
    129  OG        -7.1090   -3.1110   30.8360 O.3   117  SER117     -0.2180
    130  N         -5.2420   -2.5390   27.6710 N.3   119  VAL119     -0.1231
    131  CA        -6.1100   -3.2950   26.7400 C.3   119  VAL119      0.1692
    132  C         -6.9450   -2.4450   25.7620 C.2   119  VAL119      0.2592
    133  O         -6.9630   -2.7160   24.5650 O.2   119  VAL119     -0.2718
    134  CB        -7.0890   -4.2410   27.4850 C.3   119  VAL119      0.0266
    135  CG1       -8.1120   -4.8430   26.5340 C.3   119  VAL119      0.0020
    136  CG2       -6.3400   -5.3540   28.2030 C.3   119  VAL119      0.0020
    137  N         -7.6330   -1.4340   26.2930 N.am  120  TYR120     -0.1976
    138  CA        -8.5280   -0.5620   25.5520 C.3   120  TYR120      0.1639
    139  C         -7.7700    0.3190   24.5540 C.2   120  TYR120      0.2290
    140  O         -8.3760    0.8120   23.6110 O.2   120  TYR120     -0.2864
    141  CB        -9.2530    0.3310   26.5390 C.3   120  TYR120      0.0560
    142  CG       -10.7700    0.3450   26.4890 C.ar  120  TYR120     -0.0198
    143  CD1      -11.4690    1.0930   25.5290 C.ar  120  TYR120     -0.0009
    144  CD2      -11.5160   -0.3360   27.4470 C.ar  120  TYR120     -0.0009
    145  CE1      -12.8740    1.1240   25.5310 C.ar  120  TYR120      0.0417
    146  CE2      -12.9030   -0.3020   27.4610 C.ar  120  TYR120      0.0417
    147  CZ       -13.5730    0.4240   26.5060 C.ar  120  TYR120      0.1957
    148  OH       -14.9410    0.4500   26.5510 O.3   120  TYR120     -0.2866
    149  N        -16.3140    3.8370   45.6210 N.3   644  VAL644     -0.1231
    150  CA       -15.5820    2.5840   45.6850 C.3   644  VAL644      0.1692
    151  C        -14.2660    2.9060   46.3290 C.2   644  VAL644      0.2592
    152  O        -13.8900    2.3090   47.3360 O.2   644  VAL644     -0.2718
    153  CB       -15.2800    1.9690   44.3030 C.3   644  VAL644      0.0266
    154  CG1      -15.5670    0.4780   44.3370 C.3   644  VAL644      0.0020
    155  CG2      -16.0760    2.6540   43.1920 C.3   644  VAL644      0.0020
    156  N        -13.6020    3.9130   45.7650 N.am  645  TRP645     -0.1976
    157  CA       -12.1950    4.1850   46.0370 C.3   645  TRP645      0.1640
    158  C        -11.8860    4.4740   47.5010 C.2   645  TRP645      0.2290
    159  O        -11.1410    3.7190   48.1060 O.2   645  TRP645     -0.2864
    160  CB       -11.6620    5.2580   45.0630 C.3   645  TRP645      0.0576
    161  CG       -11.8470    4.8410   43.6310 C.ar  645  TRP645      0.0006
    162  CD1      -12.8370    5.2460   42.7970 C.ar  645  TRP645      0.0946
    163  CD2      -11.0540    3.8990   42.8970 C.ar  645  TRP645      0.0152
    164  NE1      -12.7170    4.6320   41.5770 N.ar  645  TRP645     -0.2442
    165  CE2      -11.6230    3.7980   41.6130 C.ar  645  TRP645      0.0810
    166  CE3       -9.9160    3.1290   43.1960 C.ar  645  TRP645      0.0012
    167  CZ2      -11.0820    2.9630   40.6210 C.ar  645  TRP645      0.0191
    168  CZ3       -9.3870    2.2960   42.2130 C.ar  645  TRP645      0.0001
    169  CH2       -9.9640    2.2240   40.9410 C.ar  645  TRP645      0.0015
    170  N        -12.3360    1.8260   49.7740 N.3   648  MET648     -0.1245
    171  CA       -11.1990    0.9470   49.5390 C.3   648  MET648      0.1570
    172  C        -10.0140    1.4730   50.3750 C.2   648  MET648      0.2261
    173  O         -9.2950    0.7320   51.0570 O.2   648  MET648     -0.2867
    174  CB       -10.8360    0.9470   48.0430 C.3   648  MET648      0.0387
    175  CG       -11.3630   -0.2430   47.2260 C.3   648  MET648      0.0595
    176  SD       -10.0310   -1.0370   46.2750 S.3   648  MET648     -0.1393
    177  CE        -9.5500    0.3070   45.1930 C.3   648  MET648      0.0692
    178  N         -3.3920   -2.0690   48.4340 N.3   718  PHE718     -0.1241
    179  CA        -4.7790   -1.7880   48.0860 C.3   718  PHE718      0.1605
    180  C         -5.0540   -0.3580   48.5040 C.2   718  PHE718      0.2264
    181  O         -6.1460    0.1550   48.2240 O.2   718  PHE718     -0.2867
    182  CB        -5.7660   -2.7410   48.8050 C.3   718  PHE718      0.0534
    183  CG        -6.4800   -3.7330   47.9060 C.ar  718  PHE718     -0.0203
    184  CD1       -7.7250   -3.4510   47.3920 C.ar  718  PHE718     -0.0042
    185  CD2       -5.9320   -4.9790   47.6250 C.ar  718  PHE718     -0.0042
    186  CE1       -8.4060   -4.3840   46.5810 C.ar  718  PHE718     -0.0003
    187  CE2       -6.6160   -5.9090   46.8070 C.ar  718  PHE718     -0.0003
    188  CZ        -7.8490   -5.6000   46.2980 C.ar  718  PHE718     -0.0000
    189  N         -5.4120    6.4160   41.7860 N.3   725  ILE725     -0.1245
    190  CA        -6.6830    6.4790   41.0830 C.3   725  ILE725      0.1561
    191  C         -7.6170    7.5310   41.6740 C.2   725  ILE725      0.2260
    192  O         -8.1240    8.3680   40.9510 O.2   725  ILE725     -0.2867
    193  CB        -7.3940    5.1050   41.0890 C.3   725  ILE725      0.0252
    194  CG1       -6.4840    4.0450   40.4400 C.3   725  ILE725      0.0019
    195  CG2       -8.6940    5.1710   40.3350 C.3   725  ILE725      0.0019
    196  CD1       -6.8380    2.6210   40.7590 C.3   725  ILE725      0.0001
@<TRIPOS>BOND
     1   140   139    2
     2   139   138    1
     3   133   132    2
     4    58    57    1
     5    56    55    2
     6    55    54    1
     7   143   145   ar
     8   143   142   ar
     9   145   147   ar
    10   138   137    1
    11   138   141    1
    12   132   137   am
    13   132   131    1
    14    57    54    1
    15    57    59    1
    16    54    53    1
    17   142   141    1
    18   142   144   ar
    19   147   148    1
    20   147   146   ar
    21   135   134    1
    22   131   134    1
    23   131   130    1
    24    53    45   am
    25   144   146   ar
    26   134   136    1
    27    38    37    2
    28    37    36    1
    29    45    46    2
    30    45    44    1
    31    43    44    1
    32    31    32    1
    33    44    47    1
    34    36    39    1
    35    36    35    1
    36    63    62    2
    37    39    40    1
    38    35    33   am
    39    33    32    1
    40    33    34    2
    41    60    61    1
    42    67    65    1
    43   111   108    1
    44    64    61    1
    45    64    65    1
    46    64    66    1
    47   127   126    2
    48     9    10    1
    49    62    61    1
    50    62    68   am
    51    47    48    1
    52   126   125    1
    53   129   128    1
    54    16    14    1
    55    40    42   am
    56    40    41    2
    57    20    19    2
    58    71    70    2
    59    10    11    1
    60    10    13    1
    61    19    18    1
    62   110   109    2
    63    48    50   ar
    64    48    49   ar
    65   108   107    1
    66   108   109    1
    67    50    52   ar
    68   107   101   am
    69    14    13    1
    70    14    15    1
    71    11    17   am
    72    11    12    2
    73    17    18    1
    74    68    69    1
    75    49    51   ar
    76    70    69    1
    77    70    73   am
    78   109   112   am
    79   128   125    1
    80    69    72    1
    81    29    27   ar
    82    29    30   ar
    83   125   124    1
    84    27    24   ar
    85    52    51   ar
    86    18    21    1
    87   103   100    1
    88   103   104    1
    89     1     2    1
    90    21    22    1
    91   101   100    1
    92   101   102    2
    93   100    99    1
    94    73    74    1
    95    30    28   ar
    96   124   114   am
    97   115   114    2
    98    24    22   ar
    99    24    26   ar
   100     3     4    2
   101     3     2    1
   102    74    77    1
   103    74    75    1
   104   112   113    1
   105   114   113    1
   106    22    23   ar
   107     2     5    1
   108   113   116    1
   109    77    78    1
   110   104   106   am
   111   104   105    2
   112    99    93   am
   113    28    26   ar
   114    75    76    2
   115    26    25   ar
   116    23    25   ar
   117   119   121   ar
   118   119   117   ar
   119     5     6    1
   120     5     7    1
   121   116   117    1
   122    93    94    2
   123    93    92    1
   124    78    79   ar
   125    78    80   ar
   126   121   122   ar
   127    91    92    1
   128     8     6    1
   129   117   118   ar
   130    79    81   ar
   131    92    95    1
   132   122   123    1
   133   122   120   ar
   134    80    82   ar
   135   118   120   ar
   136    81    82   ar
   137    83    84    1
   138    95    96    1
   139    86    85    2
   140    84    85    1
   141    84    87    1
   142    96    98   am
   143    96    97    2
   144    89    87    1
   145    88    90    1
   146    88    87    1
   147   195   193    1
   148   194   196    1
   149   194   193    1
   150   167   169   ar
   151   167   165   ar
   152   169   168   ar
   153   192   191    2
   154   190   193    1
   155   190   191    1
   156   190   189    1
   157   164   165   ar
   158   164   162   ar
   159   165   163   ar
   160   168   166   ar
   161   162   161   ar
   162   163   166   ar
   163   163   161   ar
   164   155   153    1
   165   161   160    1
   166   153   154    1
   167   153   150    1
   168   160   157    1
   169   177   176    1
   170   149   150    1
   171   150   151    1
   172   156   157    1
   173   156   151   am
   174   157   158    1
   175   176   175    1
   176   188   186   ar
   177   188   187   ar
   178   151   152    2
   179   186   184   ar
   180   187   185   ar
   181   175   174    1
   182   184   183   ar
   183   158   159    2
   184   185   183   ar
   185   183   182    1
   186   174   171    1
   187   179   178    1
   188   179   180    1
   189   179   182    1
   190   181   180    2
   191   171   170    1
   192   171   172    1
   193   172   173    2
