@<TRIPOS>MOLECULE
tmp/2wseF06.pdb
 135 132 0 0 0
SMALL
GASTEIGER

@<TRIPOS>ATOM
      1  N         11.7830   -7.0400   -2.4520 N.3   224  LEU224     -0.1245
      2  CA        11.8280   -7.5680   -1.0910 C.3   224  LEU224      0.1561
      3  C         12.7550   -8.7750   -0.9050 C.2   224  LEU224      0.2260
      4  O         13.7430   -8.6980   -0.1550 O.2   224  LEU224     -0.2867
      5  CB        10.3960   -7.9070   -0.6070 C.3   224  LEU224      0.0270
      6  CG        10.0720   -8.2910    0.8510 C.3   224  LEU224      0.0019
      7  CD1       10.0660   -9.8210    1.0890 C.3   224  LEU224      0.0001
      8  CD2       11.0200   -7.5810    1.8300 C.3   224  LEU224      0.0001
      9  N         15.2550   -3.9380   -0.0320 N.3   229  TRP229     -0.1227
     10  CA        14.4700   -3.4250    1.1350 C.3   229  TRP229      0.1737
     11  C         14.3230   -1.9060    1.2170 C.2   229  TRP229      0.2595
     12  O         13.2010   -1.3920    1.1040 O.2   229  TRP229     -0.2718
     13  CB        14.9900   -3.9830    2.4930 C.3   229  TRP229      0.0564
     14  CG        14.9950   -5.5240    2.6090 C.ar  229  TRP229      0.0003
     15  CD1       14.0470   -6.4010    2.1110 C.ar  229  TRP229      0.0946
     16  CD2       15.9900   -6.3440    3.2520 C.ar  229  TRP229      0.0152
     17  NE1       14.4030   -7.7080    2.3920 N.ar  229  TRP229     -0.2442
     18  CE2       15.5890   -7.7020    3.0900 C.ar  229  TRP229      0.0810
     19  CE3       17.1820   -6.0710    3.9320 C.ar  229  TRP229      0.0012
     20  CZ2       16.3400   -8.7790    3.5990 C.ar  229  TRP229      0.0191
     21  CZ3       17.9220   -7.1450    4.4420 C.ar  229  TRP229      0.0001
     22  CH2       17.4970   -8.4790    4.2740 C.ar  229  TRP229      0.0015
     23  N         15.4520   -1.2020    1.4080 N.am  230  ASN230     -0.1974
     24  CA        15.4650    0.2690    1.5750 C.3   230  ASN230      0.1688
     25  C         14.1040    0.9530    1.3350 C.2   230  ASN230      0.2292
     26  O         13.4060    1.3260    2.2900 O.2   230  ASN230     -0.2864
     27  CB        16.5790    0.9340    0.7390 C.3   230  ASN230      0.1181
     28  CG        17.7190    1.5000    1.5900 C.2   230  ASN230      0.2629
     29  OD1       18.8840    1.5260    1.1660 O.2   230  ASN230     -0.2716
     30  ND2       17.3790    1.9620    2.8030 N.am  230  ASN230     -0.0877
     31  N         11.2260    0.6490    1.4350 N.3   232  TYR232     -0.1227
     32  CA        10.1010    0.8040    2.3190 C.3   232  TYR232      0.1736
     33  C         10.1520    2.3000    2.7910 C.2   232  TYR232      0.2595
     34  O          9.3810    3.1570    2.2870 O.2   232  TYR232     -0.2718
     35  CB        10.1890   -0.1930    3.4610 C.3   232  TYR232      0.0548
     36  CG         9.8310   -1.6380    3.1020 C.ar  232  TYR232     -0.0200
     37  CD1        8.5210   -2.1360    3.2940 C.ar  232  TYR232     -0.0009
     38  CD2       10.8030   -2.5320    2.6160 C.ar  232  TYR232     -0.0009
     39  CE1        8.1880   -3.4790    2.9850 C.ar  232  TYR232      0.0417
     40  CE2       10.4830   -3.8850    2.3220 C.ar  232  TYR232      0.0417
     41  CZ         9.1770   -4.3400    2.5040 C.ar  232  TYR232      0.1957
     42  OH         8.8550   -5.6450    2.2070 O.3   232  TYR232     -0.2866
     43  N         11.0900    2.6300    3.6880 N.am  233  ALA233     -0.1980
     44  CA        11.1550    3.9810    4.3070 C.3   233  ALA233      0.1597
     45  C         11.3570    5.2100    3.3750 C.2   233  ALA233      0.2287
     46  O         12.4470    5.8290    3.3340 O.2   233  ALA233     -0.2864
     47  CB        12.1880    4.0010    5.4530 C.3   233  ALA233      0.0319
     48  N          7.2190    0.3730    7.4020 N.3   254  LEU254     -0.1245
     49  CA         8.5540    0.5890    8.0180 C.3   254  LEU254      0.1561
     50  C          9.0250    2.0650    7.9270 C.2   254  LEU254      0.2260
     51  O          8.5660    2.8460    7.0710 O.2   254  LEU254     -0.2867
     52  CB         9.6250   -0.4580    7.5800 C.3   254  LEU254      0.0270
     53  CG         9.1940   -1.9520    7.4980 C.3   254  LEU254      0.0019
     54  CD1       10.3490   -2.8810    7.8360 C.3   254  LEU254      0.0001
     55  CD2        7.9280   -2.3430    8.3200 C.3   254  LEU254      0.0001
     56  N         11.8070    5.0650   10.4680 N.3   256  ILE256     -0.1245
     57  CA        12.2200    5.5310   11.7770 C.3   256  ILE256      0.1561
     58  C         11.8920    7.0460   11.7630 C.2   256  ILE256      0.2260
     59  O         12.5650    7.8510   12.4330 O.2   256  ILE256     -0.2867
     60  CB        13.7470    5.3860   11.9950 C.3   256  ILE256      0.0252
     61  CG1       14.3150    4.1080   11.3680 C.3   256  ILE256      0.0019
     62  CG2       14.0540    5.4450   13.4670 C.3   256  ILE256      0.0019
     63  CD1       14.3830    2.9450   12.2970 C.3   256  ILE256      0.0001
     64  N          9.5100   -3.5060   12.1900 N.3   274  HIS274     -0.1241
     65  CA        10.8320   -3.7800   11.6570 C.3   274  HIS274      0.1621
     66  C         11.5970   -4.3170   12.8400 C.2   274  HIS274      0.2264
     67  O         12.2480   -5.3490   12.7210 O.2   274  HIS274     -0.2867
     68  CB        11.5010   -2.5200   11.1170 C.3   274  HIS274      0.0745
     69  CG        13.0050   -2.6050   11.0360 C.ar  274  HIS274      0.0817
     70  ND1       13.8210   -1.5160   11.2750 N.ar  274  HIS274     -0.2268
     71  CD2       13.8370   -3.6290   10.7230 C.ar  274  HIS274      0.1154
     72  CE1       15.0950   -1.8690   11.1240 C.ar  274  HIS274      0.1986
     73  NE2       15.1320   -3.1470   10.7890 N.ar  274  HIS274     -0.2212
     74  N         10.3650   -7.6800   13.7100 N.3   277  LEU277     -0.1231
     75  CA        11.1400   -8.2970   12.6610 C.3   277  LEU277      0.1693
     76  C         12.6110   -8.2510   13.1450 C.2   277  LEU277      0.2591
     77  O         13.1040   -9.2250   13.7290 O.2   277  LEU277     -0.2718
     78  CB        10.9350   -7.4990   11.3810 C.3   277  LEU277      0.0284
     79  CG        11.0330   -8.1300    9.9980 C.3   277  LEU277      0.0019
     80  CD1       12.2580   -9.0040    9.9050 C.3   277  LEU277      0.0001
     81  CD2        9.7650   -8.9160    9.6370 C.3   277  LEU277      0.0001
     82  N         13.2780   -7.1010   12.9990 N.am  278  ALA278     -0.1980
     83  CA        14.7450   -7.0430   13.1350 C.3   278  ALA278      0.1597
     84  C         15.3070   -7.9660   14.1890 C.2   278  ALA278      0.2287
     85  O         16.2720   -8.6710   13.9230 O.2   278  ALA278     -0.2864
     86  CB        15.2400   -5.6230   13.3240 C.3   278  ALA278      0.0319
     87  N         15.7090  -12.0770   13.5160 N.3   281  PHE281     -0.1227
     88  CA        16.8380  -12.8480   12.9740 C.3   281  PHE281      0.1736
     89  C         17.7280  -13.3570   14.1160 C.2   281  PHE281      0.2595
     90  O         17.9190  -14.5730   14.2920 O.2   281  PHE281     -0.2718
     91  CB        17.6520  -12.0470   11.9510 C.3   281  PHE281      0.0547
     92  CG        16.8230  -11.5650   10.8040 C.ar  281  PHE281     -0.0202
     93  CD1       15.7810  -12.3630   10.2910 C.ar  281  PHE281     -0.0042
     94  CD2       17.0510  -10.3160   10.2360 C.ar  281  PHE281     -0.0042
     95  CE1       14.9850  -11.9160    9.2280 C.ar  281  PHE281     -0.0003
     96  CE2       16.2640   -9.8640    9.1740 C.ar  281  PHE281     -0.0003
     97  CZ        15.2350  -10.6640    8.6740 C.ar  281  PHE281     -0.0000
     98  N         18.2190  -12.3950   14.9000 N.am  282  LEU282     -0.1980
     99  CA        19.2090  -12.5970   15.9440 C.3   282  LEU282      0.1596
    100  C         18.9470  -13.7990   16.8360 C.2   282  LEU282      0.2287
    101  O         19.8840  -14.5590   17.0760 O.2   282  LEU282     -0.2864
    102  CB        19.2760  -11.3340   16.7830 C.3   282  LEU282      0.0297
    103  CG        19.4180  -10.0530   15.9650 C.3   282  LEU282      0.0022
    104  CD1       18.7240   -8.8970   16.6460 C.3   282  LEU282      0.0001
    105  CD2       20.9080   -9.7710   15.6910 C.3   282  LEU282      0.0001
    106  N         19.0700  -16.7920   14.8150 N.3   285  ILE285     -0.1245
    107  CA        20.5140  -16.9550   14.5760 C.3   285  ILE285      0.1561
    108  C         21.1300  -17.4620   15.8370 C.2   285  ILE285      0.2260
    109  O         22.0720  -18.2380   15.8170 O.2   285  ILE285     -0.2867
    110  CB        21.2270  -15.6430   14.1590 C.3   285  ILE285      0.0252
    111  CG1       20.4960  -14.9670   12.9970 C.3   285  ILE285      0.0019
    112  CG2       22.6620  -15.9240   13.6920 C.3   285  ILE285      0.0019
    113  CD1       21.0460  -13.5900   12.5870 C.3   285  ILE285      0.0001
    114  N         20.5280    9.9810    9.3460 N.3   491  ILE491     -0.1231
    115  CA        20.0420    8.6360    9.6770 C.3   491  ILE491      0.1692
    116  C         19.8710    8.4540   11.2030 C.2   491  ILE491      0.2592
    117  O         20.5910    9.0970   12.0010 O.2   491  ILE491     -0.2718
    118  CB        20.9540    7.5150    9.1020 C.3   491  ILE491      0.0266
    119  CG1       22.4430    7.6620    9.5300 C.3   491  ILE491      0.0019
    120  CG2       20.7300    7.3640    7.6060 C.3   491  ILE491      0.0020
    121  CD1       23.1040    8.9960    9.2290 C.3   491  ILE491      0.0001
    122  N         18.9040    7.6050   11.6060 N.am  492  TRP492     -0.1976
    123  CA        18.8000    7.1390   13.0070 C.3   492  TRP492      0.1640
    124  C         18.0980    8.1160   13.9990 C.2   492  TRP492      0.2290
    125  O         16.8810    8.0040   14.2680 O.2   492  TRP492     -0.2864
    126  CB        20.2100    6.8120   13.5210 C.3   492  TRP492      0.0576
    127  CG        20.5890    5.3760   13.7500 C.ar  492  TRP492      0.0006
    128  CD1       21.2290    4.5290   12.8830 C.ar  492  TRP492      0.0946
    129  CD2       20.4730    4.6580   14.9790 C.ar  492  TRP492      0.0152
    130  NE1       21.4940    3.3180   13.4850 N.ar  492  TRP492     -0.2442
    131  CE2       21.0400    3.3750   14.7760 C.ar  492  TRP492      0.0810
    132  CE3       19.9440    4.9750   16.2380 C.ar  492  TRP492      0.0012
    133  CZ2       21.0820    2.4060   15.7870 C.ar  492  TRP492      0.0191
    134  CZ3       19.9800    4.0030   17.2420 C.ar  492  TRP492      0.0001
    135  CH2       20.5400    2.7350   17.0060 C.ar  492  TRP492      0.0015
@<TRIPOS>BOND
     1     1     2    1
     2     2     3    1
     3     2     5    1
     4     3     4    2
     5     5     6    1
     6     9    10    1
     7    27    24    1
     8    27    28    1
     9     6     7    1
    10     6     8    1
    11    12    11    2
    12    10    11    1
    13    10    13    1
    14    29    28    2
    15    11    23   am
    16    25    24    1
    17    25    26    2
    18    23    24    1
    19    31    32    1
    20    28    30   am
    21    15    17   ar
    22    15    14   ar
    23    42    41    1
    24    34    33    2
    25    32    33    1
    26    32    35    1
    27    40    41   ar
    28    40    38   ar
    29    17    18   ar
    30    13    14    1
    31    41    39   ar
    32    14    16   ar
    33    38    36   ar
    34    33    43   am
    35    39    37   ar
    36    18    16   ar
    37    18    20   ar
    38    36    37   ar
    39    36    35    1
    40    16    19   ar
    41    46    45    2
    42    45    44    1
    43    20    22   ar
    44    43    44    1
    45    19    21   ar
    46    22    21   ar
    47    44    47    1
    48    51    50    2
    49    48    49    1
    50    53    52    1
    51    53    54    1
    52    53    55    1
    53    52    49    1
    54   120   118    1
    55    50    49    1
    56    97    96   ar
    57    97    95   ar
    58   118   119    1
    59   118   115    1
    60    96    94   ar
    61    95    93   ar
    62   121   119    1
    63   114   115    1
    64    81    79    1
    65   115   116    1
    66    80    79    1
    67    79    78    1
    68    94    92   ar
    69    93    92   ar
    70    56    57    1
    71    71    73   ar
    72    71    69   ar
    73    73    72   ar
    74    92    91    1
    75    69    68    1
    76    69    70   ar
    77    68    65    1
    78    72    70   ar
    79   116   122   am
    80   116   117    2
    81    61    60    1
    82    61    63    1
    83    78    75    1
    84   122   123    1
    85    65    64    1
    86    65    66    1
    87    58    57    1
    88    58    59    2
    89    57    60    1
    90    91    88    1
    91    60    62    1
    92   113   111    1
    93    75    76    1
    94    75    74    1
    95    67    66    2
    96   128   130   ar
    97   128   127   ar
    98    88    87    1
    99    88    89    1
   100   111   110    1
   101    82    83    1
   102    82    76   am
   103   123   126    1
   104   123   124    1
   105    83    86    1
   106    83    84    1
   107    76    77    2
   108   130   131   ar
   109   126   127    1
   110   112   110    1
   111   127   129   ar
   112    85    84    2
   113   124   125    2
   114    89    90    2
   115    89    98   am
   116   110   107    1
   117   107   106    1
   118   107   108    1
   119   131   129   ar
   120   131   133   ar
   121    98    99    1
   122   129   132   ar
   123   105   103    1
   124   133   135   ar
   125   109   108    2
   126    99   102    1
   127    99   100    1
   128   103   104    1
   129   103   102    1
   130   132   134   ar
   131   100   101    2
   132   135   134   ar
