@<TRIPOS>MOLECULE
tmp/2wseF51.pdb
 191 184 0 0 0
SMALL
GASTEIGER

@<TRIPOS>ATOM
      1  N          1.4970  -26.7920   47.0520 N.3    28  HIS28      -0.1226
      2  CA         2.3740  -26.5630   45.9020 C.3    28  HIS28       0.1752
      3  C          3.8810  -26.9370   46.1040 C.2    28  HIS28       0.2596
      4  O          4.7180  -26.8330   45.1820 O.2    28  HIS28      -0.2718
      5  CB         2.1480  -25.1430   45.3200 C.3    28  HIS28       0.0759
      6  CG         0.7080  -24.8610   44.9730 C.ar   28  HIS28       0.0818
      7  ND1        0.0780  -23.6710   45.2900 N.ar   28  HIS28      -0.2268
      8  CD2       -0.2320  -25.6330   44.3570 C.ar   28  HIS28       0.1154
      9  CE1       -1.1820  -23.7150   44.8690 C.ar   28  HIS28       0.1986
     10  NE2       -1.3970  -24.8910   44.2950 N.ar   28  HIS28      -0.2212
     11  N          4.2040  -27.4040   47.3140 N.am   29  ASP29      -0.1960
     12  CA         5.5810  -27.8400   47.6410 C.3    29  ASP29       0.1840
     13  C          5.9610  -29.2730   47.2010 C.2    29  ASP29       0.2622
     14  O          6.5190  -30.0350   47.9950 O.2    29  ASP29      -0.2715
     15  CB         5.8590  -27.6440   49.1390 C.3    29  ASP29       0.1450
     16  CG         7.3300  -27.9160   49.5200 C.2    29  ASP29       0.3671
     17  OD1        7.5640  -28.4000   50.6440 O.co2  29  ASP29      -0.2456
     18  OD2        8.2570  -27.6690   48.7130 O.co2  29  ASP29      -0.2456
     19  N          5.7010  -29.6260   45.9430 N.am   30  PHE30      -0.1960
     20  CA         5.9420  -31.0120   45.4780 C.3    30  PHE30       0.1771
     21  C          7.2850  -31.5880   46.0010 C.2    30  PHE30       0.2619
     22  O          7.2760  -32.5210   46.8080 O.2    30  PHE30      -0.2715
     23  CB         5.8220  -31.1680   43.9480 C.3    30  PHE30       0.0574
     24  CG         4.5530  -30.5720   43.3600 C.ar   30  PHE30      -0.0200
     25  CD1        4.6220  -29.4150   42.5840 C.ar   30  PHE30      -0.0042
     26  CD2        3.3010  -31.1650   43.5750 C.ar   30  PHE30      -0.0042
     27  CE1        3.4680  -28.8520   42.0420 C.ar   30  PHE30      -0.0003
     28  CE2        2.1250  -30.6060   43.0280 C.ar   30  PHE30      -0.0003
     29  CZ         2.2120  -29.4450   42.2650 C.ar   30  PHE30      -0.0000
     30  N          8.4340  -31.0110   45.5960 N.am   31  GLU31      -0.1977
     31  CA         9.7280  -31.6560   45.9220 C.3    31  GLU31       0.1602
     32  C          9.6400  -31.9580   47.3670 C.2    31  GLU31       0.2287
     33  O          9.3460  -31.0840   48.1850 O.2    31  GLU31      -0.2864
     34  CB        11.0140  -30.8730   45.4870 C.3    31  GLU31       0.0415
     35  CG        11.6880  -29.9190   46.4560 C.3    31  GLU31       0.1163
     36  CD        11.1240  -28.5190   46.3610 C.2    31  GLU31       0.3649
     37  OE1       11.8740  -27.5530   46.6740 O.co2  31  GLU31      -0.2457
     38  OE2        9.9250  -28.3880   45.9670 O.co2  31  GLU31      -0.2457
     39  N          7.5080  -35.3610   40.7370 N.3    41  LEU41      -0.1245
     40  CA         7.8190  -33.9120   40.8300 C.3    41  LEU41       0.1561
     41  C          7.8490  -33.1850   39.4980 C.2    41  LEU41       0.2260
     42  O          6.8690  -32.5340   39.1250 O.2    41  LEU41      -0.2867
     43  CB         9.1480  -33.6370   41.5670 C.3    41  LEU41       0.0270
     44  CG         9.5730  -32.1650   41.7440 C.3    41  LEU41       0.0019
     45  CD1        8.5370  -31.3970   42.5270 C.3    41  LEU41       0.0001
     46  CD2       10.9650  -32.0270   42.3740 C.3    41  LEU41       0.0001
     47  N          4.9900  -30.6560   38.2960 N.3    45  ILE45      -0.1245
     48  CA         4.9890  -29.2090   38.0870 C.3    45  ILE45       0.1561
     49  C          4.6710  -28.9180   36.6320 C.2    45  ILE45       0.2260
     50  O          4.3460  -27.7680   36.2940 O.2    45  ILE45      -0.2867
     51  CB         6.3490  -28.4880   38.4470 C.3    45  ILE45       0.0252
     52  CG1        7.2660  -28.3690   37.2390 C.3    45  ILE45       0.0019
     53  CG2        7.0660  -29.1140   39.6470 C.3    45  ILE45       0.0019
     54  CD1        7.9510  -27.0640   37.1870 C.3    45  ILE45       0.0001
     55  N          1.0330  -29.2190   36.0160 N.3    48  SER48      -0.1202
     56  CA         0.5940  -28.1410   36.9260 C.3    48  SER48       0.2020
     57  C          0.4550  -26.8840   36.0840 C.2    48  SER48       0.2618
     58  O         -0.6480  -26.5120   35.6880 O.2    48  SER48      -0.2717
     59  CB         1.6080  -27.8660   38.0690 C.3    48  SER48       0.2103
     60  OG         1.7300  -28.9490   38.9830 O.3    48  SER48      -0.2182
     61  N          1.5840  -26.2560   35.7680 N.am   49  HIS49      -0.1975
     62  CA         1.5340  -25.0660   34.9290 C.3    49  HIS49       0.1656
     63  C          1.2970  -25.3160   33.4190 C.2    49  HIS49       0.2291
     64  O          1.8060  -24.5860   32.5600 O.2    49  HIS49      -0.2864
     65  CB         2.7480  -24.1810   35.1770 C.3    49  HIS49       0.0771
     66  CG         4.0190  -24.7220   34.6050 C.ar   49  HIS49       0.0820
     67  ND1        4.1670  -26.0470   34.2420 N.ar   49  HIS49      -0.2267
     68  CD2        5.2180  -24.1220   34.3710 C.ar   49  HIS49       0.1154
     69  CE1        5.4010  -26.2350   33.7880 C.ar   49  HIS49       0.1986
     70  NE2        6.0610  -25.0850   33.8610 N.ar   49  HIS49      -0.2212
     71  N         -1.4080  -24.1030   34.1840 N.3    52  GLN52      -0.1231
     72  CA        -1.1300  -22.7510   33.7210 C.3    52  GLN52       0.1698
     73  C         -1.2270  -22.5480   32.1940 C.2    52  GLN52       0.2592
     74  O         -1.6530  -23.4540   31.4690 O.2    52  GLN52      -0.2718
     75  CB         0.1230  -22.1210   34.3480 C.3    52  GLN52       0.0381
     76  CG        -0.2700  -21.1750   35.4270 C.3    52  GLN52       0.0905
     77  CD        -1.7740  -21.0470   35.4500 C.2    52  GLN52       0.2608
     78  OE1       -2.3880  -20.4660   34.5520 O.2    52  GLN52      -0.2717
     79  NE2       -2.3940  -21.6490   36.4580 N.am   52  GLN52      -0.0878
     80  N         -0.8730  -21.3470   31.7240 N.am   53  LEU53      -0.1980
     81  CA        -1.3330  -20.8680   30.4310 C.3    53  LEU53       0.1596
     82  C         -2.8530  -20.9160   30.4140 C.2    53  LEU53       0.2287
     83  O         -3.4910  -20.0080   29.8800 O.2    53  LEU53      -0.2864
     84  CB        -0.7930  -21.7250   29.2920 C.3    53  LEU53       0.0297
     85  CG         0.6410  -21.5340   28.8160 C.3    53  LEU53       0.0022
     86  CD1        1.5770  -21.8690   29.9350 C.3    53  LEU53       0.0001
     87  CD2        0.8370  -22.4830   27.6530 C.3    53  LEU53       0.0001
     88  N         -4.7880  -18.3020   32.3360 N.3    56  ILE56      -0.1245
     89  CA        -4.4390  -16.9590   31.8010 C.3    56  ILE56       0.1561
     90  C         -5.3390  -16.5760   30.6310 C.2    56  ILE56       0.2260
     91  O         -5.4640  -15.3840   30.3120 O.2    56  ILE56      -0.2867
     92  CB        -2.9050  -16.8110   31.4640 C.3    56  ILE56       0.0252
     93  CG1       -2.2040  -16.0480   32.5710 C.3    56  ILE56       0.0019
     94  CG2       -2.6850  -15.9700   30.2470 C.3    56  ILE56       0.0019
     95  CD1       -0.7850  -16.3960   32.7050 C.3    56  ILE56       0.0001
     96  N         16.2140  -28.0270   24.0860 N.3   173  ARG173     -0.1245
     97  CA        15.3400  -26.9090   24.5350 C.3   173  ARG173      0.1563
     98  C         16.1680  -25.7020   24.9110 C.2   173  ARG173      0.2260
     99  O         17.2310  -25.8490   25.5220 O.2   173  ARG173     -0.2867
    100  CB        14.5110  -27.2730   25.7550 C.3   173  ARG173      0.0307
    101  CG        14.0180  -26.0290   26.4940 C.3   173  ARG173      0.0489
    102  CD        12.8110  -26.2860   27.4240 C.3   173  ARG173      0.2205
    103  NE        12.9570  -27.5100   28.2130 N.pl3 173  ARG173     -0.0865
    104  CZ        13.8580  -27.6530   29.1770 C.cat 173  ARG173      0.5346
    105  NH1       14.6640  -26.6410   29.4650 N.pl3 173  ARG173      0.1354
    106  NH2       13.9500  -28.7920   29.8430 N.pl3 173  ARG173      0.1354
    107  N         13.5590  -23.2210   22.0440 N.3   177  HIS177     -0.1241
    108  CA        13.0020  -21.9460   22.4920 C.3   177  HIS177      0.1621
    109  C         13.5130  -20.6730   21.8220 C.2   177  HIS177      0.2264
    110  O         12.8270  -20.1110   20.9700 O.2   177  HIS177     -0.2867
    111  CB        13.2410  -21.8470   23.9800 C.3   177  HIS177      0.0745
    112  CG        12.2430  -22.6200   24.7660 C.ar  177  HIS177      0.0817
    113  ND1       11.5720  -23.7050   24.2400 N.ar  177  HIS177     -0.2268
    114  CD2       11.7660  -22.4590   26.0170 C.ar  177  HIS177      0.1154
    115  CE1       10.7260  -24.1840   25.1370 C.ar  177  HIS177      0.1986
    116  NE2       10.8190  -23.4420   26.2200 N.ar  177  HIS177     -0.2212
    117  N         10.4030  -20.6820   19.8170 N.3   181  LEU181     -0.1231
    118  CA         9.5410  -19.7840   20.6290 C.3   181  LEU181      0.1693
    119  C          9.7280  -18.3120   20.2600 C.2   181  LEU181      0.2592
    120  O          9.2990  -17.8870   19.1810 O.2   181  LEU181     -0.2718
    121  CB         9.8000  -20.0140   22.1210 C.3   181  LEU181      0.0284
    122  CG         9.0620  -19.2200   23.2080 C.3   181  LEU181      0.0019
    123  CD1        7.5570  -19.3150   23.1150 C.3   181  LEU181      0.0001
    124  CD2        9.4900  -19.6910   24.5810 C.3   181  LEU181      0.0001
    125  N         10.3710  -17.5470   21.1500 N.am  182  PHE182     -0.1976
    126  CA        10.6560  -16.1140   20.9510 C.3   182  PHE182      0.1639
    127  C         10.7520  -15.6550   19.4910 C.2   182  PHE182      0.2290
    128  O          9.9810  -14.7840   19.0700 O.2   182  PHE182     -0.2864
    129  CB        11.9970  -15.7520   21.5770 C.3   182  PHE182      0.0560
    130  CG        11.9810  -15.6240   23.0570 C.ar  182  PHE182     -0.0200
    131  CD1       11.2580  -14.6030   23.6700 C.ar  182  PHE182     -0.0042
    132  CD2       12.7710  -16.4700   23.8330 C.ar  182  PHE182     -0.0042
    133  CE1       11.2630  -14.4590   25.0470 C.ar  182  PHE182     -0.0003
    134  CE2       12.7950  -16.3320   25.2170 C.ar  182  PHE182     -0.0003
    135  CZ        12.0270  -15.3230   25.8280 C.ar  182  PHE182     -0.0000
    136  N         16.7880  -27.1890   39.8800 N.3   329  ILE329     -0.1231
    137  CA        15.3620  -26.8310   39.7010 C.3   329  ILE329      0.1692
    138  C         14.9740  -25.6210   40.5370 C.2   329  ILE329      0.2592
    139  O         13.8130  -25.2330   40.5250 O.2   329  ILE329     -0.2718
    140  CB        14.3630  -28.0070   40.0660 C.3   329  ILE329      0.0266
    141  CG1       13.1260  -28.0400   39.1540 C.3   329  ILE329      0.0019
    142  CG2       13.9230  -27.9460   41.5510 C.3   329  ILE329      0.0020
    143  CD1       12.5280  -26.6920   38.8480 C.3   329  ILE329      0.0001
    144  N         15.9140  -25.0570   41.2900 N.am  330  HIS330     -0.1976
    145  CA        15.6120  -23.8850   42.1110 C.3   330  HIS330      0.1656
    146  C         16.5030  -22.7500   41.6590 C.2   330  HIS330      0.2291
    147  O         16.0570  -21.6200   41.4680 O.2   330  HIS330     -0.2864
    148  CB        15.8550  -24.1820   43.5790 C.3   330  HIS330      0.0771
    149  CG        14.6160  -24.5890   44.3210 C.ar  330  HIS330      0.0820
    150  ND1       13.9850  -23.7650   45.2410 N.ar  330  HIS330     -0.2267
    151  CD2       13.8830  -25.7370   44.2830 C.ar  330  HIS330      0.1154
    152  CE1       12.9170  -24.3910   45.7330 C.ar  330  HIS330      0.1986
    153  NE2       12.8330  -25.5900   45.1730 N.ar  330  HIS330     -0.2212
    154  N         17.1960  -22.9480   38.8930 N.3   332  GLN332     -0.1231
    155  CA        16.2910  -22.7620   37.7510 C.3   332  GLN332      0.1698
    156  C         15.2240  -21.6990   38.0290 C.2   332  GLN332      0.2592
    157  O         15.2960  -20.5940   37.4960 O.2   332  GLN332     -0.2718
    158  CB        15.6970  -24.0990   37.2770 C.3   332  GLN332      0.0381
    159  CG        16.6140  -24.7950   36.2440 C.3   332  GLN332      0.0905
    160  CD        16.3580  -26.3030   36.0610 C.2   332  GLN332      0.2608
    161  OE1       17.2500  -27.0320   35.5830 O.2   332  GLN332     -0.2717
    162  NE2       15.1480  -26.7760   36.4320 N.am  332  GLN332     -0.0878
    163  N         14.2780  -22.0010   38.9070 N.am  333  LEU333     -0.1980
    164  CA        13.2340  -21.0200   39.2780 C.3   333  LEU333      0.1596
    165  C         13.7370  -19.8440   40.1370 C.2   333  LEU333      0.2287
    166  O         13.2330  -19.6140   41.2240 O.2   333  LEU333     -0.2864
    167  CB        12.0380  -21.7230   39.9330 C.3   333  LEU333      0.0297
    168  CG        11.1900  -20.9550   40.9300 C.3   333  LEU333      0.0022
    169  CD1       10.4390  -19.8490   40.2800 C.3   333  LEU333      0.0001
    170  CD2       10.2330  -21.9190   41.5240 C.3   333  LEU333      0.0001
    171  N         15.2890  -17.7590   36.4750 N.3   336  ALA336     -0.1231
    172  CA        14.0030  -17.4750   35.8810 C.3   336  ALA336      0.1694
    173  C         13.5120  -16.1770   36.4950 C.2   336  ALA336      0.2591
    174  O         13.4820  -15.1480   35.7920 O.2   336  ALA336     -0.2718
    175  CB        13.0260  -18.5980   36.1440 C.3   336  ALA336      0.0304
    176  N         13.1560  -16.2140   37.7940 N.am  337  LEU337     -0.1980
    177  CA        12.7270  -15.0170   38.5790 C.3   337  LEU337      0.1596
    178  C         13.9420  -14.0800   38.6770 C.2   337  LEU337      0.2287
    179  O         15.0570  -14.5390   38.9470 O.2   337  LEU337     -0.2864
    180  CB        12.2460  -15.4250   39.9910 C.3   337  LEU337      0.0297
    181  CG        10.9300  -16.1400   40.4220 C.3   337  LEU337      0.0022
    182  CD1       11.2230  -17.0050   41.5850 C.3   337  LEU337      0.0001
    183  CD2        9.8290  -15.1860   40.8130 C.3   337  LEU337      0.0001
    184  N         13.2620  -11.7570   34.6010 N.3   340  LEU340     -0.1245
    185  CA        11.8610  -11.3410   34.6250 C.3   340  LEU340      0.1561
    186  C         11.7670  -10.1670   35.5810 C.2   340  LEU340      0.2260
    187  O         11.2490   -9.1340   35.2460 O.2   340  LEU340     -0.2867
    188  CB        10.9280  -12.5130   35.0240 C.3   340  LEU340      0.0270
    189  CG         9.6030  -12.7380   34.2430 C.3   340  LEU340      0.0019
    190  CD1        9.8010  -12.9110   32.7340 C.3   340  LEU340      0.0001
    191  CD2        8.8330  -13.9280   34.7730 C.3   340  LEU340      0.0001
@<TRIPOS>BOND
     1   128   127    2
     2   120   119    2
     3   127   126    1
     4   117   118    1
     5   119   118    1
     6   119   125   am
     7   118   121    1
     8   126   125    1
     9   126   129    1
    10   110   109    2
    11   129   130    1
    12   109   108    1
    13   107   108    1
    14   121   122    1
    15   108   111    1
    16   130   131   ar
    17   130   132   ar
    18   123   122    1
    19   122   124    1
    20   131   133   ar
    21   132   134   ar
    22   111   112    1
    23    96    97    1
    24   113   112   ar
    25   113   115   ar
    26    97    98    1
    27    97   100    1
    28   112   114   ar
    29    98    99    2
    30   133   135   ar
    31   115   116   ar
    32   134   135   ar
    33   100   101    1
    34   114   116   ar
    35   101   102    1
    36   102   103    1
    37    87    85    1
    38   103   104    2
    39    85    84    1
    40    85    86    1
    41   104   105    1
    42   104   106    1
    43    84    81    1
    44    83    82    2
    45    94    92    1
    46    91    90    2
    47    82    81    1
    48    81    80    1
    49    90    89    1
    50    92    89    1
    51    92    93    1
    52    74    73    2
    53    80    73   am
    54    89    88    1
    55    73    72    1
    56    64    63    2
    57    93    95    1
    58   190   189    1
    59    63    62    1
    60    72    71    1
    61    72    75    1
    62    69    70   ar
    63    69    67   ar
    64    70    68   ar
    65    67    66   ar
    66   189   191    1
    67   189   188    1
    68    75    76    1
    69    68    66   ar
    70    78    77    2
    71   184   185    1
    72    66    65    1
    73   185   188    1
    74   185   186    1
    75    62    65    1
    76    62    61    1
    77   187   186    2
    78    76    77    1
    79    77    79   am
    80   161   160    2
    81    58    57    2
    82    61    57   am
    83   174   173    2
    84   172   175    1
    85   172   171    1
    86   172   173    1
    87    55    56    1
    88   160   159    1
    89   160   162   am
    90    57    56    1
    91   159   158    1
    92    50    49    2
    93   173   176   am
    94    49    48    1
    95    56    59    1
    96    54    52    1
    97    52    51    1
    98   158   155    1
    99   157   156    2
   100   155   156    1
   101   155   154    1
   102   176   177    1
   103   156   163   am
   104    59    60    1
   105    48    47    1
   106    48    51    1
   107    51    53    1
   108   177   178    1
   109   177   180    1
   110   178   179    2
   111   143   141    1
   112   163   164    1
   113    42    41    2
   114   141   140    1
   115   164   167    1
   116   164   165    1
   117    41    40    1
   118   137   136    1
   119   137   140    1
   120   137   138    1
   121   167   168    1
   122   180   181    1
   123   140   142    1
   124   165   166    2
   125   169   168    1
   126   181   183    1
   127   181   182    1
   128   139   138    2
   129   138   144   am
   130    39    40    1
   131    40    43    1
   132   168   170    1
   133   144   145    1
   134   147   146    2
   135    43    44    1
   136   146   145    1
   137    44    46    1
   138    44    45    1
   139    27    29   ar
   140    27    25   ar
   141   145   148    1
   142    29    28   ar
   143    25    24   ar
   144    28    26   ar
   145    24    26   ar
   146    24    23    1
   147   148   149    1
   148    23    20    1
   149   151   149   ar
   150   151   153   ar
   151    10     8   ar
   152    10     9   ar
   153   149   150   ar
   154     8     6   ar
   155     9     7   ar
   156     6     7   ar
   157     6     5    1
   158   153   152   ar
   159     4     3    2
   160   150   152   ar
   161     5     2    1
   162    20    19    1
   163    20    21    1
   164    34    31    1
   165    34    35    1
   166    30    31    1
   167    30    21   am
   168     2     3    1
   169     2     1    1
   170    31    32    1
   171    19    13   am
   172    38    36   ar
   173    21    22    2
   174     3    11   am
   175    36    35    1
   176    36    37   ar
   177    13    12    1
   178    13    14    2
   179    11    12    1
   180    32    33    2
   181    12    15    1
   182    18    16   ar
   183    15    16    1
   184    16    17   ar
