@<TRIPOS>MOLECULE
tmp/2wseF40.pdb
 97 98 0 0 0
SMALL
GASTEIGER

@<TRIPOS>ATOM
      1  N        -13.5810    4.0880   50.2800 N.3   647  TRP647     -0.1241
      2  CA       -13.9640    2.9920   51.1450 C.3   647  TRP647      0.1605
      3  C        -12.8910    1.9250   50.9800 C.2   647  TRP647      0.2264
      4  O        -12.5770    1.2070   51.9280 O.2   647  TRP647     -0.2867
      5  CB       -15.3330    2.4530   50.7380 C.3   647  TRP647      0.0550
      6  CG       -15.8630    1.3930   51.6400 C.ar  647  TRP647      0.0003
      7  CD1      -16.6920    1.5740   52.6970 C.ar  647  TRP647      0.0946
      8  CD2      -15.6190   -0.0210   51.5560 C.ar  647  TRP647      0.0152
      9  NE1      -16.9910    0.3690   53.2890 N.ar  647  TRP647     -0.2442
     10  CE2      -16.3440   -0.6280   52.6100 C.ar  647  TRP647      0.0810
     11  CE3      -14.8610   -0.8380   50.6890 C.ar  647  TRP647      0.0012
     12  CZ2      -16.3370   -2.0130   52.8310 C.ar  647  TRP647      0.0191
     13  CZ3      -14.8470   -2.2190   50.9070 C.ar  647  TRP647      0.0001
     14  CH2      -15.5840   -2.7940   51.9760 C.ar  647  TRP647      0.0015
     15  N         -9.9020    3.0890   52.9990 N.3   650  LEU650     -0.1231
     16  CA        -9.9870    2.8330   54.4450 C.3   650  LEU650      0.1693
     17  C        -10.0190    1.3400   54.7240 C.2   650  LEU650      0.2592
     18  O         -9.5000    0.8500   55.7420 O.2   650  LEU650     -0.2718
     19  CB       -11.2050    3.5100   55.0710 C.3   650  LEU650      0.0284
     20  CG       -10.9860    4.9650   55.4230 C.3   650  LEU650      0.0019
     21  CD1       -9.4920    5.2700   55.4900 C.3   650  LEU650      0.0001
     22  CD2      -11.6700    5.7250   54.3420 C.3   650  LEU650      0.0001
     23  N        -10.6370    0.6230   53.7950 N.am  651  PHE651     -0.1976
     24  CA       -10.3750   -0.7880   53.6980 C.3   651  PHE651      0.1639
     25  C         -8.8180   -0.9180   53.6160 C.2   651  PHE651      0.2290
     26  O         -8.2140   -1.8320   54.2200 O.2   651  PHE651     -0.2864
     27  CB       -11.1080   -1.4210   52.4940 C.3   651  PHE651      0.0560
     28  CG       -10.6280   -2.7960   52.1720 C.ar  651  PHE651     -0.0200
     29  CD1       -9.5880   -2.9780   51.2570 C.ar  651  PHE651     -0.0042
     30  CD2      -11.1780   -3.9060   52.8270 C.ar  651  PHE651     -0.0042
     31  CE1       -9.1190   -4.2160   50.9770 C.ar  651  PHE651     -0.0003
     32  CE2      -10.7250   -5.1760   52.5520 C.ar  651  PHE651     -0.0003
     33  CZ        -9.6840   -5.3310   51.6250 C.ar  651  PHE651     -0.0000
     34  N         -6.4480    1.2580   54.9010 N.3   653  HIS653     -0.1226
     35  CA        -5.9020    1.4910   56.2420 C.3   653  HIS653      0.1752
     36  C         -6.2490    0.4030   57.3050 C.2   653  HIS653      0.2595
     37  O         -5.5480    0.3120   58.3130 O.2   653  HIS653     -0.2718
     38  CB        -6.2850    2.8980   56.7630 C.3   653  HIS653      0.0759
     39  CG        -5.5150    4.0390   56.1370 C.ar  653  HIS653      0.0818
     40  ND1       -5.0880    5.1380   56.8590 N.ar  653  HIS653     -0.2268
     41  CD2       -5.1180    4.2630   54.8600 C.ar  653  HIS653      0.1154
     42  CE1       -4.4750    5.9940   56.0560 C.ar  653  HIS653      0.1986
     43  NE2       -4.4660    5.4830   54.8430 N.ar  653  HIS653     -0.2212
     44  N         -7.2960   -0.4200   57.0980 N.am  654  LEU654     -0.1980
     45  CA        -7.5960   -1.5040   58.0620 C.3   654  LEU654      0.1596
     46  C         -6.8400   -2.7970   57.8200 C.2   654  LEU654      0.2287
     47  O         -6.0980   -3.2330   58.6660 O.2   654  LEU654     -0.2864
     48  CB        -9.1000   -1.8130   58.1500 C.3   654  LEU654      0.0297
     49  CG        -9.5980   -2.5360   59.4360 C.3   654  LEU654      0.0022
     50  CD1      -11.0320   -2.0890   59.7690 C.3   654  LEU654      0.0001
     51  CD2       -9.5500   -4.0600   59.3140 C.3   654  LEU654      0.0001
     52  N         -4.2780   -3.2390   56.5140 N.3   656  TRP656     -0.1227
     53  CA        -2.9130   -2.8790   56.8950 C.3   656  TRP656      0.1737
     54  C         -2.7440   -3.1170   58.3720 C.2   656  TRP656      0.2595
     55  O         -2.3310   -4.2190   58.7790 O.2   656  TRP656     -0.2718
     56  CB        -2.6600   -1.4030   56.6330 C.3   656  TRP656      0.0564
     57  CG        -1.1950   -1.0510   56.6330 C.ar  656  TRP656      0.0003
     58  CD1       -0.2840   -1.3390   55.6610 C.ar  656  TRP656      0.0946
     59  CD2       -0.4700   -0.3270   57.6430 C.ar  656  TRP656      0.0152
     60  NE1        0.9600   -0.8310   55.9930 N.ar  656  TRP656     -0.2442
     61  CE2        0.8690   -0.1970   57.2030 C.ar  656  TRP656      0.0810
     62  CE3       -0.8290    0.2560   58.8600 C.ar  656  TRP656      0.0012
     63  CZ2        1.8470    0.4820   57.9330 C.ar  656  TRP656      0.0191
     64  CZ3        0.1500    0.9370   59.5890 C.ar  656  TRP656      0.0001
     65  CH2        1.4680    1.0330   59.1270 C.ar  656  TRP656      0.0015
     66  N         -3.0900   -2.0700   59.1490 N.am  657  ALA657     -0.1980
     67  CA        -3.1050   -2.0380   60.6340 C.3   657  ALA657      0.1597
     68  C         -3.3200   -3.4030   61.2400 C.2   657  ALA657      0.2287
     69  O         -2.5060   -3.8520   62.0420 O.2   657  ALA657     -0.2864
     70  CB        -4.1910   -1.0580   61.1700 C.3   657  ALA657      0.0319
     71  N         -0.5320   -5.9990   61.9560 N.3   660  PHE660     -0.1227
     72  CA         0.1550   -5.9170   63.2720 C.3   660  PHE660      0.1736
     73  C         -0.0170   -6.9720   64.3500 C.2   660  PHE660      0.2595
     74  O          0.9750   -7.3880   64.9230 O.2   660  PHE660     -0.2718
     75  CB        -0.1090   -4.5340   63.9090 C.3   660  PHE660      0.0547
     76  CG         0.5600   -3.3840   63.2000 C.ar  660  PHE660     -0.0202
     77  CD1        1.7700   -2.8870   63.6470 C.ar  660  PHE660     -0.0042
     78  CD2       -0.0220   -2.8130   62.0980 C.ar  660  PHE660     -0.0042
     79  CE1        2.3720   -1.8470   63.0180 C.ar  660  PHE660     -0.0003
     80  CE2        0.5930   -1.7670   61.4630 C.ar  660  PHE660     -0.0003
     81  CZ         1.8000   -1.2780   61.9310 C.ar  660  PHE660     -0.0000
     82  N         -1.2680   -7.3430   64.6570 N.am  661  MET661     -0.1979
     83  CA        -1.5770   -8.4870   65.5270 C.3   661  MET661      0.1605
     84  C         -0.5430   -9.5480   65.1790 C.2   661  MET661      0.2287
     85  O          0.5870   -9.5880   65.7160 O.2   661  MET661     -0.2864
     86  CB        -2.9870   -9.0230   65.2000 C.3   661  MET661      0.0413
     87  CG        -3.7790   -9.7260   66.3090 C.3   661  MET661      0.0598
     88  SD        -5.4170   -8.9260   66.4180 S.3   661  MET661     -0.1393
     89  CE        -6.3260  -10.0340   67.4710 C.3   661  MET661      0.0692
     90  N          2.9220   -8.3870   66.1520 N.3   664  ILE664     -0.1245
     91  CA         3.2930   -8.0610   67.5540 C.3   664  ILE664      0.1561
     92  C          2.5420   -9.0050   68.5100 C.2   664  ILE664      0.2260
     93  O          2.3080   -8.7030   69.6770 O.2   664  ILE664     -0.2867
     94  CB         2.9980   -6.5850   67.9740 C.3   664  ILE664      0.0252
     95  CG1        3.1390   -5.5940   66.8130 C.3   664  ILE664      0.0019
     96  CG2        3.9210   -6.1960   69.0800 C.3   664  ILE664      0.0019
     97  CD1        3.2960   -4.1380   67.2360 C.3   664  ILE664      0.0001
@<TRIPOS>BOND
     1     1     2    1
     2    11    13   ar
     3    11     8   ar
     4     5     2    1
     5     5     6    1
     6    13    14   ar
     7    31    29   ar
     8    31    33   ar
     9     3     2    1
    10     3     4    2
    11    29    28   ar
    12     8     6   ar
    13     8    10   ar
    14    33    32   ar
    15     6     7   ar
    16    14    12   ar
    17    28    27    1
    18    28    30   ar
    19    27    24    1
    20    32    30   ar
    21    10    12   ar
    22    10     9   ar
    23     7     9   ar
    24    15    16    1
    25    25    24    1
    26    25    26    2
    27    24    23    1
    28    23    17   am
    29    22    20    1
    30    16    17    1
    31    16    19    1
    32    17    18    2
    33    43    41   ar
    34    43    42   ar
    35    41    39   ar
    36    34    35    1
    37    19    20    1
    38    20    21    1
    39    58    60   ar
    40    58    57   ar
    41    60    61   ar
    42    42    40   ar
    43    39    38    1
    44    39    40   ar
    45    35    38    1
    46    35    36    1
    47    52    53    1
    48    57    56    1
    49    57    59   ar
    50    56    53    1
    51    53    54    1
    52    44    36   am
    53    44    45    1
    54    61    59   ar
    55    61    63   ar
    56    36    37    2
    57    59    62   ar
    58    46    45    1
    59    46    47    2
    60    63    65   ar
    61    45    48    1
    62    48    49    1
    63    54    55    2
    64    54    66   am
    65    62    64   ar
    66    65    64   ar
    67    66    67    1
    68    51    49    1
    69    49    50    1
    70    67    70    1
    71    67    68    1
    72    68    69    2
    73    80    81   ar
    74    80    78   ar
    75    81    79   ar
    76    71    72    1
    77    78    76   ar
    78    79    77   ar
    79    76    77   ar
    80    76    75    1
    81    72    75    1
    82    72    73    1
    83    73    82   am
    84    73    74    2
    85    82    83    1
    86    84    83    1
    87    84    85    2
    88    86    83    1
    89    86    87    1
    90    90    91    1
    91    87    88    1
    92    88    89    1
    93    95    97    1
    94    95    94    1
    95    91    94    1
    96    91    92    1
    97    94    96    1
    98    92    93    2
