@<TRIPOS>MOLECULE
tmp/2wseE37.pdb
 93 88 0 0 0
SMALL
GASTEIGER

@<TRIPOS>ATOM
      1  N         32.3060  -10.5170   96.2340 N.3     1  LEU1       -0.1245
      2  CA        31.1830  -10.1780   97.0710 C.3     1  LEU1        0.1561
      3  C         31.6830  -10.1660   98.4390 C.2     1  LEU1        0.2260
      4  O         30.9280  -10.1760   99.3700 O.2     1  LEU1       -0.2867
      5  CB        30.1050  -11.2260   96.9830 C.3     1  LEU1        0.0270
      6  CG        28.8270  -10.6550   97.5290 C.3     1  LEU1        0.0019
      7  CD1       29.2520   -9.3550   98.0330 C.3     1  LEU1        0.0001
      8  CD2       27.8440  -10.4630   96.4150 C.3     1  LEU1        0.0001
      9  N         34.3100   -8.6990  102.8960 N.3     5  ASP5       -0.1239
     10  CA        32.9850   -8.2360  103.2670 C.3     5  ASP5        0.1674
     11  C         33.1810   -7.5290  104.5680 C.2     5  ASP5        0.2266
     12  O         33.5140   -6.3640  104.6300 O.2     5  ASP5       -0.2867
     13  CB        31.9870   -9.3990  103.4390 C.3     5  ASP5        0.1410
     14  CG        30.5100   -8.9380  103.4850 C.2     5  ASP5        0.3668
     15  OD1       29.7500   -9.5570  104.2270 O.co2   5  ASP5       -0.2456
     16  OD2       30.0970   -7.9800  102.8060 O.co2   5  ASP5       -0.2456
     17  N         29.1690   -7.9290   89.2780 N.3    19  HIS19      -0.1241
     18  CA        28.0800   -7.9240   90.2500 C.3    19  HIS19       0.1621
     19  C         26.7190   -7.9310   89.5780 C.2    19  HIS19       0.2264
     20  O         26.3280   -6.9500   88.9340 O.2    19  HIS19      -0.2867
     21  CB        28.1190   -6.7590   91.2260 C.3    19  HIS19       0.0745
     22  CG        26.8460   -6.6430   92.0100 C.ar   19  HIS19       0.0817
     23  ND1       25.8070   -5.7930   91.6570 N.ar   19  HIS19      -0.2268
     24  CD2       26.3980   -7.3550   93.0700 C.ar   19  HIS19       0.1154
     25  CE1       24.7980   -5.9430   92.5070 C.ar   19  HIS19       0.1986
     26  NE2       25.1310   -6.8890   93.3710 N.ar   19  HIS19      -0.2212
     27  N         20.4010   -8.2860   95.4680 N.3    47  HIS47      -0.1226
     28  CA        20.6840   -7.2060   96.4310 C.3    47  HIS47       0.1752
     29  C         20.6710   -7.7420   97.8720 C.2    47  HIS47       0.2596
     30  O         21.6640   -7.5650   98.5780 O.2    47  HIS47      -0.2718
     31  CB        19.7880   -5.9730   96.2520 C.3    47  HIS47       0.0759
     32  CG        20.4650   -4.8780   95.4800 C.ar   47  HIS47       0.0818
     33  ND1       20.1980   -4.6290   94.1540 N.ar   47  HIS47      -0.2268
     34  CD2       21.4320   -3.9880   95.8430 C.ar   47  HIS47       0.1154
     35  CE1       20.9480   -3.6080   93.7410 C.ar   47  HIS47       0.1986
     36  NE2       21.7150   -3.2090   94.7420 N.ar   47  HIS47      -0.2212
     37  N         19.5510   -8.3440   98.3050 N.am   48  THR48      -0.1953
     38  CA        19.5860   -9.5280   99.2040 C.3    48  THR48       0.1897
     39  C         18.2020  -10.1890   99.4340 C.2    48  THR48       0.2313
     40  O         17.1500   -9.5140   99.4880 O.2    48  THR48      -0.2863
     41  CB        20.4540   -9.3810  100.5380 C.3    48  THR48       0.1794
     42  OG1       21.1530  -10.6240  100.8270 O.3    48  THR48      -0.2208
     43  CG2       19.5820   -8.9660  101.7450 C.3    48  THR48       0.0378
     44  N         14.0140   -6.1310  104.3660 N.3    52  GLU52      -0.1231
     45  CA        14.9310   -5.3300  105.2140 C.3    52  GLU52       0.1699
     46  C         15.3350   -4.0210  104.5420 C.2    52  GLU52       0.2592
     47  O         14.5710   -3.0400  104.5270 O.2    52  GLU52      -0.2718
     48  CB        16.2040   -6.1400  105.6150 C.3    52  GLU52       0.0402
     49  CG        16.0680   -7.6810  105.7060 C.3    52  GLU52       0.1161
     50  CD        15.8910   -8.2560  107.1160 C.2    52  GLU52       0.3649
     51  OE1       15.3940   -9.4060  107.1700 O.co2  52  GLU52      -0.2457
     52  OE2       16.2570   -7.6180  108.1480 O.co2  52  GLU52      -0.2457
     53  N         16.5560   -4.0280  103.9940 N.am   53  GLU53      -0.1979
     54  CA        17.0480   -2.9870  103.0980 C.3    53  GLU53       0.1602
     55  C         15.9700   -2.4700  102.1160 C.2    53  GLU53       0.2287
     56  O         15.3910   -1.4180  102.3550 O.2    53  GLU53      -0.2864
     57  CB        18.3100   -3.4700  102.3580 C.3    53  GLU53       0.0415
     58  CG        18.2660   -4.9150  101.9060 C.3    53  GLU53       0.1163
     59  CD        19.1760   -5.1650  100.7200 C.2    53  GLU53       0.3649
     60  OE1       18.9360   -4.5600   99.6370 O.co2  53  GLU53      -0.2457
     61  OE2       20.1320   -5.9740  100.8710 O.co2  53  GLU53      -0.2457
     62  N         14.1170    0.0240  102.9830 N.3    56  ARG56      -0.1245
     63  CA        15.1770    1.0180  103.3460 C.3    56  ARG56       0.1563
     64  C         15.8730    1.7560  102.1450 C.2    56  ARG56       0.2260
     65  O         16.5410    2.7890  102.3290 O.2    56  ARG56      -0.2867
     66  CB        16.2520    0.3660  104.2480 C.3    56  ARG56       0.0307
     67  CG        15.7450   -0.1120  105.5930 C.3    56  ARG56       0.0489
     68  CD        16.6110   -1.2500  106.1950 C.3    56  ARG56       0.2205
     69  NE        15.7600   -2.1490  107.0170 N.pl3  56  ARG56      -0.0865
     70  CZ        16.1160   -3.3440  107.4920 C.cat  56  ARG56       0.5346
     71  NH1       15.2490   -4.0460  108.2110 N.pl3  56  ARG56       0.1354
     72  NH2       17.3270   -3.8490  107.2490 N.pl3  56  ARG56       0.1354
     73  N         19.2190    5.7130  103.5030 N.3   166  TYR166     -0.1241
     74  CA        19.9350    4.4630  103.2300 C.3   166  TYR166      0.1605
     75  C         21.4000    4.5190  103.5920 C.2   166  TYR166      0.2264
     76  O         21.8850    3.6700  104.3570 O.2   166  TYR166     -0.2867
     77  CB        19.8180    3.9830  101.7830 C.3   166  TYR166      0.0534
     78  CG        19.9930    2.4780  101.7230 C.ar  166  TYR166     -0.0201
     79  CD1       21.2640    1.8870  101.5670 C.ar  166  TYR166     -0.0009
     80  CD2       18.8830    1.6360  101.9020 C.ar  166  TYR166     -0.0009
     81  CE1       21.3970    0.4830  101.5570 C.ar  166  TYR166      0.0417
     82  CE2       18.9970    0.2530  101.8860 C.ar  166  TYR166      0.0417
     83  CZ        20.2460   -0.3200  101.7210 C.ar  166  TYR166      0.1957
     84  OH        20.3050   -1.6970  101.7130 O.3   166  TYR166     -0.2866
     85  N         14.6240    0.0510  110.1910 N.3   172  LYS172     -0.1245
     86  CA        14.3750   -1.3710  109.9130 C.3   172  LYS172      0.1561
     87  C         12.8920   -1.7780  109.9630 C.2   172  LYS172      0.2260
     88  O         11.9820   -0.9280  110.1530 O.2   172  LYS172     -0.2867
     89  CB        15.1710   -2.2830  110.8660 C.3   172  LYS172      0.0271
     90  CG        16.3000   -3.0590  110.1800 C.3   172  LYS172      0.0035
     91  CD        16.6510   -4.4240  110.8200 C.3   172  LYS172      0.0206
     92  CE        17.6920   -4.2790  111.9450 C.3   172  LYS172      0.1093
     93  NZ        18.5620   -5.4930  112.0810 N.3   172  LYS172     -0.1314
@<TRIPOS>BOND
     1    20    19    2
     2    17    18    1
     3    19    18    1
     4    18    21    1
     5    21    22    1
     6    23    22   ar
     7    23    25   ar
     8    22    24   ar
     9    25    26   ar
    10    24    26   ar
    11    35    33   ar
    12    35    36   ar
    13    33    32   ar
    14    36    34   ar
    15    27    28    1
    16    32    34   ar
    17    32    31    1
    18     1     2    1
    19    31    28    1
    20     8     6    1
    21    28    29    1
    22     5     2    1
    23     5     6    1
    24     2     3    1
    25     6     7    1
    26    29    37   am
    27    29    30    2
    28    37    38    1
    29     3     4    2
    30    38    39    1
    31    38    41    1
    32    39    40    2
    33    60    59   ar
    34    41    42    1
    35    41    43    1
    36    59    61   ar
    37    59    58    1
    38    81    79   ar
    39    81    83   ar
    40    79    78   ar
    41    84    83    1
    42    83    82   ar
    43    78    77    1
    44    78    80   ar
    45    77    74    1
    46    82    80   ar
    47    58    57    1
    48    55    56    2
    49    55    54    1
    50    64    65    2
    51    64    63    1
    52    57    54    1
    53    16    14   ar
    54     9    10    1
    55    62    63    1
    56    54    53    1
    57    74    73    1
    58    74    75    1
    59    10    13    1
    60    10    11    1
    61    63    66    1
    62    13    14    1
    63    14    15   ar
    64    75    76    2
    65    53    46   am
    66    66    67    1
    67    44    45    1
    68    47    46    2
    69    46    45    1
    70    11    12    2
    71    45    48    1
    72    67    68    1
    73    48    49    1
    74    49    50    1
    75    68    69    1
    76    69    70    2
    77    50    51   ar
    78    50    52   ar
    79    72    70    1
    80    70    71    1
    81    86    87    1
    82    86    85    1
    83    86    89    1
    84    87    88    2
    85    90    91    1
    86    90    89    1
    87    91    92    1
    88    92    93    1
