@<TRIPOS>MOLECULE
tmp/2wseF48.pdb
 144 141 0 0 0
SMALL
GASTEIGER

@<TRIPOS>ATOM
      1  N         26.5070   -4.0320   53.5320 N.3   422  SER422     -0.1217
      2  CA        25.9540   -3.2270   54.6560 C.3   422  SER422      0.1889
      3  C         26.6080   -1.8490   54.7810 C.2   422  SER422      0.2288
      4  O         25.9740   -0.8940   55.2600 O.2   422  SER422     -0.2866
      5  CB        26.0280   -3.9710   56.0070 C.3   422  SER422      0.2089
      6  OG        27.0890   -3.4900   56.8350 O.3   422  SER422     -0.2183
      7  N         24.5980    0.5770   52.5780 N.3   425  SER425     -0.1202
      8  CA        23.3510    1.0430   53.2110 C.3   425  SER425      0.2020
      9  C         23.5970    2.1120   54.2670 C.2   425  SER425      0.2618
     10  O         23.1970    3.2620   54.0910 O.2   425  SER425     -0.2717
     11  CB        22.5250   -0.1260   53.7810 C.3   425  SER425      0.2103
     12  OG        22.0360   -0.9540   52.7390 O.3   425  SER425     -0.2182
     13  N         24.2790    1.7270   55.3450 N.am  426  LEU426     -0.1979
     14  CA        24.6000    2.6400   56.4400 C.3   426  LEU426      0.1596
     15  C         25.1000    4.0210   55.9400 C.2   426  LEU426      0.2287
     16  O         24.6980    5.0790   56.4750 O.2   426  LEU426     -0.2864
     17  CB        25.5820    1.9680   57.4180 C.3   426  LEU426      0.0297
     18  CG        24.9340    1.3730   58.6790 C.3   426  LEU426      0.0022
     19  CD1       25.1910   -0.1170   58.7570 C.3   426  LEU426      0.0001
     20  CD2       25.4110    2.0480   59.9720 C.3   426  LEU426      0.0001
     21  N         22.3630    5.3660   54.1070 N.3   429  GLY429     -0.1210
     22  CA        21.4260    5.6990   55.1380 C.3   429  GLY429      0.1956
     23  C         21.6560    7.1360   55.5290 C.2   429  GLY429      0.2611
     24  O         21.2180    8.0410   54.8340 O.2   429  GLY429     -0.2717
     25  N         22.3810    7.3420   56.6300 N.am  430  PHE430     -0.1976
     26  CA        22.4230    8.6510   57.3040 C.3   430  PHE430      0.1639
     27  C         22.7400    9.8410   56.3990 C.2   430  PHE430      0.2290
     28  O         22.5310   10.9920   56.7760 O.2   430  PHE430     -0.2864
     29  CB        23.4700    8.6790   58.4090 C.3   430  PHE430      0.0560
     30  CG        23.8000    7.3470   59.0050 C.ar  430  PHE430     -0.0200
     31  CD1       22.8740    6.6380   59.7320 C.ar  430  PHE430     -0.0042
     32  CD2       25.0920    6.8520   58.9270 C.ar  430  PHE430     -0.0042
     33  CE1       23.2510    5.4430   60.3320 C.ar  430  PHE430     -0.0003
     34  CE2       25.4540    5.6750   59.5260 C.ar  430  PHE430     -0.0003
     35  CZ        24.5410    4.9690   60.2140 C.ar  430  PHE430     -0.0000
     36  N         19.4480   10.8620   54.8670 N.3   433  LEU433     -0.1245
     37  CA        18.7770   11.4600   56.0600 C.3   433  LEU433      0.1561
     38  C         19.4220   12.7150   56.7060 C.2   433  LEU433      0.2260
     39  O         18.7650   13.3940   57.4660 O.2   433  LEU433     -0.2867
     40  CB        18.5210   10.3810   57.1420 C.3   433  LEU433      0.0270
     41  CG        17.6250   10.5480   58.3760 C.3   433  LEU433      0.0019
     42  CD1       16.3940   11.2990   58.0460 C.3   433  LEU433      0.0001
     43  CD2       17.1850    9.2100   58.7910 C.3   433  LEU433      0.0001
     44  N         19.3390    3.4710   48.3530 N.3   524  LEU524     -0.1245
     45  CA        19.3820    2.8740   49.6880 C.3   524  LEU524      0.1561
     46  C         18.3410    1.7230   49.9260 C.2   524  LEU524      0.2260
     47  O         18.3260    1.0860   50.9980 O.2   524  LEU524     -0.2867
     48  CB        19.2780    3.9740   50.7560 C.3   524  LEU524      0.0270
     49  CG        18.7060    3.7560   52.1800 C.3   524  LEU524      0.0019
     50  CD1       17.1520    3.8500   52.1850 C.3   524  LEU524      0.0001
     51  CD2       19.1870    2.5120   52.9340 C.3   524  LEU524      0.0001
     52  N         19.9170   -2.3710   50.8540 N.3   528  THR528     -0.1218
     53  CA        19.4290   -2.7560   52.1430 C.3   528  THR528      0.1862
     54  C         18.5920   -3.9900   51.8730 C.2   528  THR528      0.2287
     55  O         18.8610   -5.0340   52.4720 O.2   528  THR528     -0.2866
     56  CB        18.5920   -1.6410   52.8380 C.3   528  THR528      0.1770
     57  OG1       19.2150   -0.3540   52.6370 O.3   528  THR528     -0.2211
     58  CG2       18.4850   -1.9120   54.3310 C.3   528  THR528      0.0375
     59  N         20.9720   -6.7680   51.1290 N.3   531  LEU531     -0.1231
     60  CA        21.9290   -7.1690   52.1520 C.3   531  LEU531      0.1693
     61  C         21.1990   -8.1990   52.9150 C.2   531  LEU531      0.2591
     62  O         21.8050   -9.1370   53.3800 O.2   531  LEU531     -0.2718
     63  CB        22.3280   -6.0350   53.0970 C.3   531  LEU531      0.0284
     64  CG        21.6940   -5.9000   54.4930 C.3   531  LEU531      0.0019
     65  CD1       22.5200   -6.5330   55.6180 C.3   531  LEU531      0.0001
     66  CD2       21.4900   -4.4220   54.7590 C.3   531  LEU531      0.0001
     67  N         19.8820   -8.0240   53.0340 N.am  532  ILE532     -0.1980
     68  CA        19.0750   -8.9930   53.7420 C.3   532  ILE532      0.1595
     69  C         18.7490  -10.2490   52.9100 C.2   532  ILE532      0.2287
     70  O         18.9350  -11.3710   53.3810 O.2   532  ILE532     -0.2864
     71  CB        17.8890   -8.3480   54.5110 C.3   532  ILE532      0.0276
     72  CG1       16.6140   -9.1620   54.3440 C.3   532  ILE532      0.0022
     73  CG2       17.6760   -6.9150   54.1440 C.3   532  ILE532      0.0022
     74  CD1       16.4480  -10.1530   55.4270 C.3   532  ILE532      0.0001
     75  N         11.0090  -13.2740   54.7210 N.3   576  TYR576     -0.1227
     76  CA         9.8750  -12.6630   55.4020 C.3   576  TYR576      0.1736
     77  C         10.2840  -11.2280   55.6580 C.2   576  TYR576      0.2595
     78  O          9.5120  -10.3070   55.3910 O.2   576  TYR576     -0.2718
     79  CB         9.5280  -13.3710   56.7080 C.3   576  TYR576      0.0548
     80  CG         8.9670  -12.4370   57.7670 C.ar  576  TYR576     -0.0200
     81  CD1        7.5950  -12.3520   58.0150 C.ar  576  TYR576     -0.0009
     82  CD2        9.8290  -11.6180   58.5230 C.ar  576  TYR576     -0.0009
     83  CE1        7.0930  -11.4640   59.0000 C.ar  576  TYR576      0.0417
     84  CE2        9.3420  -10.7170   59.4810 C.ar  576  TYR576      0.0417
     85  CZ         7.9790  -10.6530   59.7270 C.ar  576  TYR576      0.1957
     86  OH         7.5030   -9.7860   60.6880 O.3   576  TYR576     -0.2866
     87  N         11.5210  -11.0250   56.1370 N.am  577  LEU577     -0.1980
     88  CA        11.9010   -9.6860   56.6050 C.3   577  LEU577      0.1596
     89  C         12.1850   -8.8120   55.4190 C.2   577  LEU577      0.2287
     90  O         11.9280   -7.6130   55.4560 O.2   577  LEU577     -0.2864
     91  CB        13.0970   -9.7060   57.5960 C.3   577  LEU577      0.0297
     92  CG        13.0560   -8.7570   58.8240 C.3   577  LEU577      0.0022
     93  CD1       12.3940   -9.4110   60.0520 C.3   577  LEU577      0.0001
     94  CD2       14.4460   -8.2450   59.1640 C.3   577  LEU577      0.0001
     95  N          9.4020   -6.3060   53.3830 N.3   580  PHE580     -0.1227
     96  CA         9.0630   -4.9760   53.8900 C.3   580  PHE580      0.1736
     97  C          9.7890   -3.8650   53.1010 C.2   580  PHE580      0.2595
     98  O          9.1660   -2.8300   52.8030 O.2   580  PHE580     -0.2718
     99  CB         9.3810   -4.8520   55.3940 C.3   580  PHE580      0.0547
    100  CG         8.3900   -5.5720   56.3170 C.ar  580  PHE580     -0.0202
    101  CD1        8.8380   -6.5450   57.2120 C.ar  580  PHE580     -0.0042
    102  CD2        7.0310   -5.2580   56.3130 C.ar  580  PHE580     -0.0042
    103  CE1        7.9430   -7.1970   58.0880 C.ar  580  PHE580     -0.0003
    104  CE2        6.1300   -5.9190   57.1770 C.ar  580  PHE580     -0.0003
    105  CZ         6.5850   -6.8820   58.0600 C.ar  580  PHE580     -0.0000
    106  N         11.0860   -4.0700   52.7750 N.am  581  TRP581     -0.1976
    107  CA        11.8900   -3.0820   51.9450 C.3   581  TRP581      0.1640
    108  C         11.5870   -3.1120   50.4140 C.2   581  TRP581      0.2290
    109  O         11.5970   -2.0560   49.7610 O.2   581  TRP581     -0.2864
    110  CB        13.4300   -3.1470   52.2330 C.3   581  TRP581      0.0576
    111  CG        13.8170   -2.5830   53.5840 C.ar  581  TRP581      0.0006
    112  CD1       13.5430   -3.1390   54.8310 C.ar  581  TRP581      0.0946
    113  CD2       14.5290   -1.3460   53.8470 C.ar  581  TRP581      0.0152
    114  NE1       14.0540   -2.3290   55.8340 N.ar  581  TRP581     -0.2442
    115  CE2       14.6590   -1.2270   55.2670 C.ar  581  TRP581      0.0810
    116  CE3       15.0630   -0.3270   53.0350 C.ar  581  TRP581      0.0012
    117  CZ2       15.2950   -0.1440   55.8720 C.ar  581  TRP581      0.0191
    118  CZ3       15.7090    0.7390   53.6520 C.ar  581  TRP581      0.0001
    119  CH2       15.8100    0.8230   55.0640 C.ar  581  TRP581      0.0015
    120  N          9.0060    4.1950   47.3080 N.3   588  TRP588     -0.1241
    121  CA         9.7160    5.4580   47.1680 C.3   588  TRP588      0.1605
    122  C          9.7370    5.6950   45.6930 C.2   588  TRP588      0.2264
    123  O          9.2520    6.7150   45.2280 O.2   588  TRP588     -0.2867
    124  CB        11.1110    5.4790   47.8700 C.3   588  TRP588      0.0550
    125  CG        10.9320    5.6340   49.3380 C.ar  588  TRP588      0.0003
    126  CD1        9.8070    6.1250   49.9740 C.ar  588  TRP588      0.0946
    127  CD2       11.8580    5.3030   50.3670 C.ar  588  TRP588      0.0152
    128  NE1        9.9650    6.0940   51.3390 N.ar  588  TRP588     -0.2442
    129  CE2       11.2240    5.6110   51.6150 C.ar  588  TRP588      0.0810
    130  CE3       13.1630    4.7750   50.3770 C.ar  588  TRP588      0.0012
    131  CZ2       11.8570    5.4060   52.8530 C.ar  588  TRP588      0.0191
    132  CZ3       13.7980    4.5620   51.6420 C.ar  588  TRP588      0.0001
    133  CH2       13.1300    4.8830   52.8420 C.ar  588  TRP588      0.0015
    134  N         -0.4600   -7.1730   55.6200 N.3   712  PHE712     -0.1241
    135  CA         0.2480   -5.9130   55.7020 C.3   712  PHE712      0.1605
    136  C          0.2050   -5.3920   54.3150 C.2   712  PHE712      0.2264
    137  O         -0.0140   -4.1990   54.1150 O.2   712  PHE712     -0.2867
    138  CB         1.7040   -6.1620   56.1190 C.3   712  PHE712      0.0534
    139  CG         2.5660   -4.9170   56.1960 C.ar  712  PHE712     -0.0203
    140  CD1        2.4970   -4.0650   57.2890 C.ar  712  PHE712     -0.0042
    141  CD2        3.5000   -4.6220   55.1990 C.ar  712  PHE712     -0.0042
    142  CE1        3.3090   -2.9360   57.3640 C.ar  712  PHE712     -0.0003
    143  CE2        4.3140   -3.4900   55.2850 C.ar  712  PHE712     -0.0003
    144  CZ         4.2180   -2.6550   56.3580 C.ar  712  PHE712     -0.0000
@<TRIPOS>BOND
     1   123   122    2
     2   122   121    1
     3   121   120    1
     4   121   124    1
     5   124   125    1
     6    44    45    1
     7   125   126   ar
     8   125   127   ar
     9    45    46    1
    10    45    48    1
    11   109   108    2
    12    46    47    2
    13   126   128   ar
    14   127   130   ar
    15   127   129   ar
    16   130   132   ar
    17   108   107    1
    18    48    49    1
    19    52    53    1
    20    59    60    1
    21   128   129   ar
    22   129   131   ar
    23   132   133   ar
    24    54    53    1
    25    54    55    2
    26   107   110    1
    27   107   106    1
    28    53    56    1
    29    60    61    1
    30    60    63    1
    31    49    50    1
    32    49    51    1
    33   110   111    1
    34     7     8    1
    35    57    56    1
    36    12    11    1
    37   106    97   am
    38    98    97    2
    39    56    58    1
    40   133   131   ar
    41    69    70    2
    42    69    68    1
    43    61    67   am
    44    61    62    2
    45    67    68    1
    46   116   118   ar
    47   116   113   ar
    48    63    64    1
    49    97    96    1
    50     8    11    1
    51     8     9    1
    52    95    96    1
    53     1     2    1
    54   111   113   ar
    55   111   112   ar
    56   118   119   ar
    57    68    71    1
    58   113   115   ar
    59    96    99    1
    60    10     9    2
    61    21    22    1
    62   137   136    2
    63    73    71    1
    64     9    13   am
    65   136   135    1
    66    72    71    1
    67    72    74    1
    68    64    66    1
    69    64    65    1
    70     2     3    1
    71     2     5    1
    72    75    76    1
    73     3     4    2
    74   112   114   ar
    75    24    23    2
    76    36    37    1
    77   119   117   ar
    78    22    23    1
    79   141   143   ar
    80   141   139   ar
    81   115   114   ar
    82   115   117   ar
    83   143   144   ar
    84    13    14    1
    85    78    77    2
    86    99   100    1
    87    76    77    1
    88    76    79    1
    89    89    90    2
    90    89    88    1
    91    23    25   am
    92   134   135    1
    93    77    87   am
    94   135   138    1
    95    15    14    1
    96    15    16    2
    97     5     6    1
    98    37    38    1
    99    37    40    1
   100   138   139    1
   101    87    88    1
   102   139   140   ar
   103   102   100   ar
   104   102   104   ar
   105   100   101   ar
   106   144   142   ar
   107    27    28    2
   108    27    26    1
   109    14    17    1
   110    88    91    1
   111    25    26    1
   112    38    39    2
   113    79    80    1
   114    40    41    1
   115   104   105   ar
   116   101   103   ar
   117   140   142   ar
   118    26    29    1
   119    17    18    1
   120    91    92    1
   121    80    81   ar
   122    80    82   ar
   123    81    83   ar
   124    42    41    1
   125   105   103   ar
   126    41    43    1
   127    29    30    1
   128    82    84   ar
   129    18    19    1
   130    18    20    1
   131    92    94    1
   132    92    93    1
   133    32    30   ar
   134    32    34   ar
   135    83    85   ar
   136    30    31   ar
   137    84    85   ar
   138    34    35   ar
   139    85    86    1
   140    31    33   ar
   141    35    33   ar
