@<TRIPOS>MOLECULE
tmp/2wseA07.pdb
 104 99 0 0 0
SMALL
GASTEIGER

@<TRIPOS>ATOM
      1  N         52.9850  -14.6490   19.7780 N.3    20  LEU20      -0.1245
      2  CA        52.2390  -13.3930   19.6030 C.3    20  LEU20       0.1561
      3  C         53.0490  -12.2500   19.0000 C.2    20  LEU20       0.2260
      4  O         52.5100  -11.4740   18.2260 O.2    20  LEU20      -0.2867
      5  CB        51.5480  -12.9410   20.8840 C.3    20  LEU20       0.0270
      6  CG        50.0570  -13.3070   20.9880 C.3    20  LEU20       0.0019
      7  CD1       49.5170  -12.9990   22.3620 C.3    20  LEU20       0.0001
      8  CD2       49.2190  -12.5970   19.9330 C.3    20  LEU20       0.0001
      9  N         53.4580  -13.0810   15.6170 N.3    23  TYR23      -0.1227
     10  CA        52.2360  -12.5810   15.0130 C.3    23  TYR23       0.1736
     11  C         52.2550  -11.0480   15.0600 C.2    23  TYR23       0.2595
     12  O         51.5420  -10.3890   14.3040 O.2    23  TYR23      -0.2718
     13  CB        50.9780  -13.1330   15.6970 C.3    23  TYR23       0.0548
     14  CG        50.9690  -14.6290   16.0080 C.ar   23  TYR23      -0.0200
     15  CD1       51.6350  -15.5530   15.2010 C.ar   23  TYR23      -0.0009
     16  CD2       50.2640  -15.1200   17.1030 C.ar   23  TYR23      -0.0009
     17  CE1       51.6210  -16.9210   15.4980 C.ar   23  TYR23       0.0417
     18  CE2       50.2370  -16.4800   17.4000 C.ar   23  TYR23       0.0417
     19  CZ        50.9180  -17.3740   16.5960 C.ar   23  TYR23       0.1957
     20  OH        50.8960  -18.7190   16.8900 O.3    23  TYR23      -0.2866
     21  N         53.0670  -10.4870   15.9540 N.am   24  LYS24      -0.1980
     22  CA        53.3170   -9.0390   15.9930 C.3    24  LYS24       0.1596
     23  C         54.4210   -8.6560   15.0210 C.2    24  LYS24       0.2287
     24  O         54.7600   -7.4780   14.9010 O.2    24  LYS24      -0.2864
     25  CB        53.6710   -8.5550   17.3910 C.3    24  LYS24       0.0298
     26  CG        52.4770   -8.3300   18.3050 C.3    24  LYS24       0.0038
     27  CD        52.9350   -8.2210   19.7490 C.3    24  LYS24       0.0206
     28  CE        51.7600   -8.1980   20.7170 C.3    24  LYS24       0.1093
     29  NZ        52.2140   -8.0810   22.1250 N.3    24  LYS24      -0.1314
     30  N         53.7870   -9.5670   11.9180 N.3    26  SER26      -0.1202
     31  CA        52.7930   -9.1240   10.9500 C.3    26  SER26       0.2020
     32  C         52.4440   -7.6490   11.1850 C.2    26  SER26       0.2618
     33  O         52.5080   -6.8390   10.2700 O.2    26  SER26      -0.2717
     34  CB        51.5340  -10.0140   10.9630 C.3    26  SER26       0.2103
     35  OG        50.5290   -9.5200   11.8310 O.3    26  SER26      -0.2182
     36  N         52.1040   -7.3090   12.4160 N.am   27  GLU27      -0.1979
     37  CA        51.8540   -5.9230   12.8040 C.3    27  GLU27       0.1602
     38  C         52.8860   -4.9800   12.1820 C.2    27  GLU27       0.2287
     39  O         52.5270   -3.9320   11.6460 O.2    27  GLU27      -0.2864
     40  CB        51.8720   -5.7960   14.3190 C.3    27  GLU27       0.0415
     41  CG        51.3820   -4.4500   14.8600 C.3    27  GLU27       0.1163
     42  CD        49.9210   -4.4670   15.2840 C.2    27  GLU27       0.3649
     43  OE1       49.6620   -4.1960   16.4650 O.co2  27  GLU27      -0.2457
     44  OE2       49.0390   -4.7510   14.4510 O.co2  27  GLU27      -0.2457
     45  N         52.5300   -5.0900    8.4420 N.3    30  HIS30      -0.1241
     46  CA        51.3220   -4.3030    8.1910 C.3    30  HIS30       0.1621
     47  C         51.7490   -2.8430    8.2390 C.2    30  HIS30       0.2264
     48  O         51.3980   -2.0600    7.3680 O.2    30  HIS30      -0.2867
     49  CB        50.2270   -4.5470    9.2340 C.3    30  HIS30       0.0745
     50  CG        49.7390   -5.9640    9.3030 C.ar   30  HIS30       0.0817
     51  ND1       49.3660   -6.6850    8.1980 N.ar   30  HIS30      -0.2268
     52  CD2       49.5290   -6.7820   10.3540 C.ar   30  HIS30       0.1154
     53  CE1       48.9730   -7.8920    8.5630 C.ar   30  HIS30       0.1986
     54  NE2       49.0620   -7.9760    9.8670 N.ar   30  HIS30      -0.2212
     55  N         39.1440  -10.6280    2.4890 N.3    80  PHE80      -0.1241
     56  CA        38.9770  -11.4210    3.7030 C.3    80  PHE80       0.1605
     57  C         38.5530  -12.8710    3.4730 C.2    80  PHE80       0.2264
     58  O         37.8980  -13.4880    4.3140 O.2    80  PHE80      -0.2867
     59  CB        38.0230  -10.7160    4.6660 C.3    80  PHE80       0.0534
     60  CG        38.5760   -9.4380    5.2130 C.ar   80  PHE80      -0.0203
     61  CD1       38.1040   -8.2100    4.7610 C.ar   80  PHE80      -0.0042
     62  CD2       39.5960   -9.4590    6.1580 C.ar   80  PHE80      -0.0042
     63  CE1       38.6260   -7.0180    5.2520 C.ar   80  PHE80      -0.0003
     64  CE2       40.1310   -8.2770    6.6550 C.ar   80  PHE80      -0.0003
     65  CZ        39.6430   -7.0520    6.2020 C.ar   80  PHE80      -0.0000
     66  N         42.9180  -14.2770    1.8320 N.3    83  ILE83      -0.1231
     67  CA        44.0280  -14.1870    2.7710 C.3    83  ILE83       0.1692
     68  C         43.8720  -15.1640    3.9330 C.2    83  ILE83       0.2591
     69  O         44.8400  -15.4570    4.6320 O.2    83  ILE83      -0.2718
     70  CB        44.2830  -12.7120    3.2110 C.3    83  ILE83       0.0266
     71  CG1       45.5850  -12.2000    2.5830 C.3    83  ILE83       0.0019
     72  CG2       44.3230  -12.5610    4.7230 C.3    83  ILE83       0.0020
     73  CD1       45.6750  -10.6860    2.4470 C.3    83  ILE83       0.0001
     74  N         42.6590  -15.6910    4.1170 N.am   84  ALA84      -0.1980
     75  CA        42.4270  -16.7940    5.0490 C.3    84  ALA84       0.1597
     76  C         43.1660  -18.0510    4.5750 C.2    84  ALA84       0.2287
     77  O         43.2100  -19.0710    5.2620 O.2    84  ALA84      -0.2864
     78  CB        40.9330  -17.0570    5.2120 C.3    84  ALA84       0.0319
     79  N         46.5600  -17.9750    7.1060 N.3    87  GLU87      -0.1245
     80  CA        46.3170  -18.2730    8.5060 C.3    87  GLU87       0.1567
     81  C         45.8670  -19.7090    8.7550 C.2    87  GLU87       0.2260
     82  O         46.0660  -20.2480    9.8360 O.2    87  GLU87      -0.2867
     83  CB        45.3220  -17.2780    9.0910 C.3    87  GLU87       0.0388
     84  CG        45.9360  -15.9110    9.3530 C.3    87  GLU87       0.1160
     85  CD        44.9070  -14.8030    9.4120 C.2    87  GLU87       0.3649
     86  OE1       45.0460  -13.9170   10.2740 O.co2  87  GLU87      -0.2457
     87  OE2       43.9670  -14.8140    8.5940 O.co2  87  GLU87      -0.2457
     88  N         49.2170  -21.2290    8.6740 N.3    90  ARG90      -0.1231
     89  CA        49.9210  -20.7240    9.8370 C.3    90  ARG90       0.1694
     90  C         49.3400  -21.2800   11.1330 C.2    90  ARG90       0.2592
     91  O         50.0080  -21.2670   12.1620 O.2    90  ARG90      -0.2718
     92  CB        49.9190  -19.1910    9.8310 C.3    90  ARG90       0.0321
     93  CG        50.9920  -18.5510   10.6970 C.3    90  ARG90       0.0489
     94  CD        50.3880  -17.8370   11.8780 C.3    90  ARG90       0.2205
     95  NE        49.9370  -16.4950   11.5180 N.pl3  90  ARG90      -0.0865
     96  CZ        49.1780  -15.7160   12.2740 C.cat  90  ARG90       0.5346
     97  NH1       48.7680  -16.1300   13.4550 N.pl3  90  ARG90       0.1354
     98  NH2       48.8230  -14.5110   11.8440 N.pl3  90  ARG90       0.1354
     99  N         48.1000  -21.7710   11.0770 N.am   91  SER91      -0.1952
    100  CA        47.4880  -22.4510   12.2160 C.3    91  SER91       0.1924
    101  C         47.3300  -23.9600   11.9820 C.2    91  SER91       0.2314
    102  O         46.2690  -24.5430   12.2380 O.2    91  SER91      -0.2863
    103  CB        46.1530  -21.7990   12.6060 C.3    91  SER91       0.2116
    104  OG        45.7210  -22.2370   13.8760 O.3    91  SER91      -0.2180
@<TRIPOS>BOND
     1    66    67    1
     2    73    71    1
     3    55    56    1
     4    71    70    1
     5    67    70    1
     6    67    68    1
     7    70    72    1
     8    57    56    1
     9    57    58    2
    10    56    59    1
    11    68    74   am
    12    68    69    2
    13    74    75    1
    14    76    75    1
    15    76    77    2
    16    59    60    1
    17    61    60   ar
    18    61    63   ar
    19    75    78    1
    20    60    62   ar
    21    63    65   ar
    22    62    64   ar
    23    65    64   ar
    24    79    80    1
    25    48    47    2
    26    46    47    1
    27    46    45    1
    28    46    49    1
    29    51    53   ar
    30    51    50   ar
    31    80    81    1
    32    80    83    1
    33    53    54   ar
    34    87    85   ar
    35    88    89    1
    36    81    82    2
    37    83    84    1
    38    49    50    1
    39    50    52   ar
    40    84    85    1
    41    85    86   ar
    42    92    89    1
    43    92    93    1
    44    89    90    1
    45    54    52   ar
    46    33    32    2
    47    93    94    1
    48    31    34    1
    49    31    32    1
    50    31    30    1
    51    34    35    1
    52    99    90   am
    53    99   100    1
    54    90    91    2
    55    32    36   am
    56    95    94    1
    57    95    96    2
    58    39    38    2
    59    98    96    1
    60   101   100    1
    61   101   102    2
    62    38    37    1
    63   100   103    1
    64    96    97    1
    65    36    37    1
    66   103   104    1
    67    37    40    1
    68    12    11    2
    69    40    41    1
    70    44    42   ar
    71    41    42    1
    72    24    23    2
    73    10    11    1
    74    10     9    1
    75    10    13    1
    76    23    22    1
    77    11    21   am
    78    15    17   ar
    79    15    14   ar
    80    42    43   ar
    81    17    19   ar
    82    13    14    1
    83    21    22    1
    84    22    25    1
    85    14    16   ar
    86    19    20    1
    87    19    18   ar
    88    16    18   ar
    89    25    26    1
    90     4     3    2
    91    26    27    1
    92     3     2    1
    93     2     1    1
    94     2     5    1
    95    27    28    1
    96     8     6    1
    97    28    29    1
    98     5     6    1
    99     6     7    1
