@<TRIPOS>MOLECULE
tmp/2wseF23.pdb
 96 96 0 0 0
SMALL
GASTEIGER

@<TRIPOS>ATOM
      1  N         10.0490    1.6870   30.8010 N.3   350  HIS350     -0.1241
      2  CA        10.0790    2.0590   29.3940 C.3   350  HIS350      0.1621
      3  C          8.6790    2.2510   28.8460 C.2   350  HIS350      0.2264
      4  O          8.4790    3.0240   27.9470 O.2   350  HIS350     -0.2867
      5  CB        10.7810    0.9950   28.5630 C.3   350  HIS350      0.0745
      6  CG        12.2810    1.0450   28.6470 C.ar  350  HIS350      0.0817
      7  ND1       13.0480   -0.0680   28.9530 N.ar  350  HIS350     -0.2268
      8  CD2       13.1560    2.0710   28.4780 C.ar  350  HIS350      0.1154
      9  CE1       14.3330    0.2720   28.9560 C.ar  350  HIS350      0.1986
     10  NE2       14.4240    1.5670   28.6890 N.ar  350  HIS350     -0.2212
     11  N         23.6800   15.3290   33.0570 N.3   461  TRP461     -0.1227
     12  CA        24.8160   14.9870   32.2150 C.3   461  TRP461      0.1737
     13  C         24.4470   13.9490   31.1510 C.2   461  TRP461      0.2595
     14  O         24.5060   14.2550   29.9390 O.2   461  TRP461     -0.2718
     15  CB        26.0080   14.5060   33.0220 C.3   461  TRP461      0.0564
     16  CG        27.2950   14.7630   32.2980 C.ar  461  TRP461      0.0003
     17  CD1       27.8620   15.9880   32.0440 C.ar  461  TRP461      0.0946
     18  CD2       28.1760   13.7850   31.7180 C.ar  461  TRP461      0.0152
     19  NE1       29.0450   15.8270   31.3520 N.ar  461  TRP461     -0.2442
     20  CE2       29.2640   14.4840   31.1390 C.ar  461  TRP461      0.0810
     21  CE3       28.1600   12.3830   31.6530 C.ar  461  TRP461      0.0012
     22  CZ2       30.3230   13.8300   30.5030 C.ar  461  TRP461      0.0191
     23  CZ3       29.1990   11.7350   31.0260 C.ar  461  TRP461      0.0001
     24  CH2       30.2660   12.4550   30.4480 C.ar  461  TRP461      0.0015
     25  N         24.0620   12.7440   31.5970 N.am  462  ILE462     -0.1980
     26  CA        23.4340   11.7550   30.7190 C.3   462  ILE462      0.1595
     27  C         22.1690   12.4610   30.2130 C.2   462  ILE462      0.2287
     28  O         21.1750   12.5600   30.9320 O.2   462  ILE462     -0.2864
     29  CB        23.0680   10.4110   31.4530 C.3   462  ILE462      0.0276
     30  CG1       24.2940    9.5490   31.7420 C.3   462  ILE462      0.0022
     31  CG2       22.2150    9.5260   30.5830 C.3   462  ILE462      0.0022
     32  CD1       25.2730   10.1340   32.6350 C.3   462  ILE462      0.0001
     33  N         24.2390   14.6790   26.3980 N.3   465  ALA465     -0.1231
     34  CA        25.0110   13.8680   25.5020 C.3   465  ALA465      0.1694
     35  C         23.9410   12.9420   24.9830 C.2   465  ALA465      0.2592
     36  O         24.0840   11.7160   24.9770 O.2   465  ALA465     -0.2718
     37  CB        26.0600   13.1100   26.2560 C.3   465  ALA465      0.0304
     38  N         22.8250   13.5500   24.5820 N.am  466  HIS466     -0.1976
     39  CA        21.7190   12.8090   24.0010 C.3   466  HIS466      0.1656
     40  C         20.8430   13.6500   23.0960 C.2   466  HIS466      0.2291
     41  O         20.7830   13.4250   21.8930 O.2   466  HIS466     -0.2864
     42  CB        20.8390   12.2110   25.0860 C.3   466  HIS466      0.0771
     43  CG        21.2530   10.8340   25.4860 C.ar  466  HIS466      0.0820
     44  ND1       21.7450   10.5410   26.7380 N.ar  466  HIS466     -0.2267
     45  CD2       21.2520    9.6650   24.8020 C.ar  466  HIS466      0.1154
     46  CE1       22.0120    9.2420   26.8120 C.ar  466  HIS466      0.1986
     47  NE2       21.7240    8.6920   25.6500 N.ar  466  HIS466     -0.2212
     48  N         28.1350   14.5850   15.6590 N.3   485  LEU485     -0.1245
     49  CA        28.4680   13.1860   15.4290 C.3   485  LEU485      0.1561
     50  C         29.5530   13.0540   14.2920 C.2   485  LEU485      0.2260
     51  O         30.6100   12.3880   14.4880 O.2   485  LEU485     -0.2867
     52  CB        27.1940   12.4010   15.0350 C.3   485  LEU485      0.0270
     53  CG        25.9220   12.0120   15.8250 C.3   485  LEU485      0.0019
     54  CD1       26.1490   10.6930   16.5600 C.3   485  LEU485      0.0001
     55  CD2       25.3590   13.1340   16.7600 C.3   485  LEU485      0.0001
     56  N         18.9040    7.6050   11.6060 N.3   492  TRP492     -0.1227
     57  CA        18.8000    7.1390   13.0070 C.3   492  TRP492      0.1737
     58  C         18.0980    8.1160   13.9990 C.2   492  TRP492      0.2595
     59  O         16.8810    8.0040   14.2680 O.2   492  TRP492     -0.2718
     60  CB        20.2100    6.8120   13.5210 C.3   492  TRP492      0.0564
     61  CG        20.5890    5.3760   13.7500 C.ar  492  TRP492      0.0003
     62  CD1       21.2290    4.5290   12.8830 C.ar  492  TRP492      0.0946
     63  CD2       20.4730    4.6580   14.9790 C.ar  492  TRP492      0.0152
     64  NE1       21.4940    3.3180   13.4850 N.ar  492  TRP492     -0.2442
     65  CE2       21.0400    3.3750   14.7760 C.ar  492  TRP492      0.0810
     66  CE3       19.9440    4.9750   16.2380 C.ar  492  TRP492      0.0012
     67  CZ2       21.0820    2.4060   15.7870 C.ar  492  TRP492      0.0191
     68  CZ3       19.9800    4.0030   17.2420 C.ar  492  TRP492      0.0001
     69  CH2       20.5400    2.7350   17.0060 C.ar  492  TRP492      0.0015
     70  N         18.8840    9.0360   14.5680 N.am  493  LEU493     -0.1980
     71  CA        18.3760   10.0270   15.5400 C.3   493  LEU493      0.1596
     72  C         17.7120   11.2620   14.8540 C.2   493  LEU493      0.2287
     73  O         18.2590   12.3790   14.8400 O.2   493  LEU493     -0.2864
     74  CB        19.4830   10.4100   16.5660 C.3   493  LEU493      0.0297
     75  CG        20.8330   11.1580   16.3420 C.3   493  LEU493      0.0022
     76  CD1       21.3620   11.2030   14.9020 C.3   493  LEU493      0.0001
     77  CD2       20.7840   12.5630   16.9230 C.3   493  LEU493      0.0001
     78  N         14.2990   10.2650   19.6010 N.3   497  LEU497     -0.1245
     79  CA        15.1930   10.6090   20.6980 C.3   497  LEU497      0.1561
     80  C         15.5750   12.1010   20.5780 C.2   497  LEU497      0.2260
     81  O         16.7450   12.4980   20.7800 O.2   497  LEU497     -0.2867
     82  CB        16.3990    9.6350   20.8050 C.3   497  LEU497      0.0270
     83  CG        17.5290    9.5190   19.7620 C.3   497  LEU497      0.0019
     84  CD1       18.6540   10.5520   20.0440 C.3   497  LEU497      0.0001
     85  CD2       18.0740    8.0590   19.6860 C.3   497  LEU497      0.0001
     86  N         12.3170   12.7080   28.8090 N.3   508  PHE508     -0.1241
     87  CA        13.2190   12.9800   29.9190 C.3   508  PHE508      0.1605
     88  C         12.7350   14.2800   30.6090 C.2   508  PHE508      0.2264
     89  O         12.6200   15.3470   29.9520 O.2   508  PHE508     -0.2867
     90  CB        14.7100   13.0910   29.4820 C.3   508  PHE508      0.0534
     91  CG        15.2280   11.9420   28.6140 C.ar  508  PHE508     -0.0203
     92  CD1       16.5110   11.4280   28.8260 C.ar  508  PHE508     -0.0042
     93  CD2       14.4780   11.4270   27.5670 C.ar  508  PHE508     -0.0042
     94  CE1       17.0350   10.4000   28.0320 C.ar  508  PHE508     -0.0003
     95  CE2       14.9850   10.3940   26.7640 C.ar  508  PHE508     -0.0003
     96  CZ        16.2700    9.8760   27.0000 C.ar  508  PHE508     -0.0000
@<TRIPOS>BOND
     1    56    57    1
     2    62    64   ar
     3    62    61   ar
     4    57    60    1
     5    57    58    1
     6    64    65   ar
     7    60    61    1
     8    61    63   ar
     9    58    59    2
    10    58    70   am
    11    50    51    2
    12    50    49    1
    13    70    71    1
    14    65    63   ar
    15    65    67   ar
    16    73    72    2
    17    72    71    1
    18    76    75    1
    19    63    66   ar
    20    52    49    1
    21    52    53    1
    22    49    48    1
    23    71    74    1
    24    67    69   ar
    25    53    54    1
    26    53    55    1
    27    66    68   ar
    28    75    74    1
    29    75    77    1
    30    69    68   ar
    31    78    79    1
    32    85    83    1
    33    83    84    1
    34    83    82    1
    35    80    79    1
    36    80    81    2
    37    79    82    1
    38    41    40    2
    39    40    39    1
    40    39    38    1
    41    39    42    1
    42    38    35   am
    43    45    43   ar
    44    45    47   ar
    45    36    35    2
    46    35    34    1
    47    42    43    1
    48    43    44   ar
    49    34    37    1
    50    34    33    1
    51    47    46   ar
    52    44    46   ar
    53    95    96   ar
    54    95    93   ar
    55    96    94   ar
    56    93    91   ar
    57     4     3    2
    58    94    92   ar
    59     8     6   ar
    60     8    10   ar
    61     5     6    1
    62     5     2    1
    63    91    92   ar
    64    91    90    1
    65     6     7   ar
    66    10     9   ar
    67    86    87    1
    68     3     2    1
    69     7     9   ar
    70     2     1    1
    71    90    87    1
    72    87    88    1
    73    14    13    2
    74    89    88    2
    75    27    26    1
    76    27    28    2
    77    24    22   ar
    78    24    23   ar
    79    22    20   ar
    80    31    29    1
    81    26    29    1
    82    26    25    1
    83    23    21   ar
    84    20    19   ar
    85    20    18   ar
    86    13    25   am
    87    13    12    1
    88    19    17   ar
    89    29    30    1
    90    21    18   ar
    91    18    16   ar
    92    30    32    1
    93    17    16   ar
    94    12    15    1
    95    12    11    1
    96    16    15    1
