@<TRIPOS>MOLECULE
tmp/2wseF27.pdb
 139 139 0 0 0
SMALL
GASTEIGER

@<TRIPOS>ATOM
      1  N         27.8710   -1.7500   54.3460 N.3   423  TRP423     -0.1227
      2  CA        28.5670   -0.4750   54.3340 C.3   423  TRP423      0.1737
      3  C         27.9460    0.4970   53.3180 C.2   423  TRP423      0.2595
      4  O         28.0420    1.7310   53.4860 O.2   423  TRP423     -0.2718
      5  CB        30.0670   -0.6560   54.0570 C.3   423  TRP423      0.0564
      6  CG        30.6550    0.6110   53.6680 C.ar  423  TRP423      0.0003
      7  CD1       31.2000    1.5390   54.4880 C.ar  423  TRP423      0.0946
      8  CD2       30.6950    1.1620   52.3470 C.ar  423  TRP423      0.0152
      9  NE1       31.5980    2.6350   53.7730 N.ar  423  TRP423     -0.2442
     10  CE2       31.2960    2.4360   52.4510 C.ar  423  TRP423      0.0810
     11  CE3       30.2670    0.7030   51.0830 C.ar  423  TRP423      0.0012
     12  CZ2       31.5000    3.2700   51.3320 C.ar  423  TRP423      0.0191
     13  CZ3       30.4720    1.5140   49.9800 C.ar  423  TRP423      0.0001
     14  CH2       31.0880    2.7880   50.1100 C.ar  423  TRP423      0.0015
     15  N         27.3420   -0.0440   52.2560 N.am  424  ALA424     -0.1980
     16  CA        26.6240    0.7880   51.2860 C.3   424  ALA424      0.1597
     17  C         25.4280    1.4170   51.9490 C.2   424  ALA424      0.2287
     18  O         25.2740    2.6360   51.9190 O.2   424  ALA424     -0.2864
     19  CB        26.1740   -0.0310   50.0980 C.3   424  ALA424      0.0319
     20  N         25.9500    4.0110   54.9140 N.3   427  PHE427     -0.1227
     21  CA        26.3780    5.2450   54.2550 C.3   427  PHE427      0.1736
     22  C         25.1130    5.8090   53.5970 C.2   427  PHE427      0.2595
     23  O         24.5910    6.8560   54.0250 O.2   427  PHE427     -0.2718
     24  CB        27.5050    4.9420   53.2350 C.3   427  PHE427      0.0547
     25  CG        28.0970    6.1720   52.5230 C.ar  427  PHE427     -0.0202
     26  CD1       29.4840    6.3320   52.4210 C.ar  427  PHE427     -0.0042
     27  CD2       27.2730    7.1170   51.8990 C.ar  427  PHE427     -0.0042
     28  CE1       30.0280    7.4090   51.7400 C.ar  427  PHE427     -0.0003
     29  CE2       27.8230    8.2140   51.2300 C.ar  427  PHE427     -0.0003
     30  CZ        29.1930    8.3570   51.1470 C.ar  427  PHE427     -0.0000
     31  N         24.5980    5.0870   52.6000 N.am  428  LEU428     -0.1980
     32  CA        23.3630    5.4880   51.9160 C.3   428  LEU428      0.1596
     33  C         22.1930    5.7980   52.8680 C.2   428  LEU428      0.2287
     34  O         21.1760    6.4030   52.4940 O.2   428  LEU428     -0.2864
     35  CB        22.9460    4.4280   50.8950 C.3   428  LEU428      0.0297
     36  CG        23.5360    4.7600   49.5320 C.3   428  LEU428      0.0022
     37  CD1       22.6470    4.1630   48.4930 C.3   428  LEU428      0.0001
     38  CD2       23.6940    6.3000   49.3410 C.3   428  LEU428      0.0001
     39  N         21.9210   19.4450   46.2610 N.3   454  ILE454     -0.1245
     40  CA        22.9200   19.1480   45.2320 C.3   454  ILE454      0.1561
     41  C         22.2420   18.9780   43.8820 C.2   454  ILE454      0.2260
     42  O         21.2730   18.2020   43.7720 O.2   454  ILE454     -0.2867
     43  CB        23.6760   17.8340   45.5530 C.3   454  ILE454      0.0252
     44  CG1       23.8520   17.6760   47.0640 C.3   454  ILE454      0.0019
     45  CG2       24.9910   17.7500   44.7360 C.3   454  ILE454      0.0019
     46  CD1       24.8560   16.6070   47.4650 C.3   454  ILE454      0.0001
     47  N         21.6340   17.2470   40.3910 N.3   456  PRO456     -0.2102
     48  CA        21.9460   15.8810   40.0050 C.3   456  PRO456      0.1504
     49  C         22.8500   15.8570   38.7560 C.2   456  PRO456      0.2576
     50  O         22.3970   15.5000   37.6580 O.2   456  PRO456     -0.2718
     51  CB        20.5410   15.2690   39.7280 C.3   456  PRO456      0.0282
     52  CG        19.5510   16.3870   39.9210 C.3   456  PRO456      0.0208
     53  CD        20.3280   17.6640   39.8420 C.3   456  PRO456      0.0893
     54  N         24.1240   16.2220   38.9340 N.am  457  ILE457     -0.1966
     55  CA        24.9800   16.4810   37.7920 C.3   457  ILE457      0.1727
     56  C         25.0490   15.2470   36.8720 C.2   457  ILE457      0.2616
     57  O         24.4960   15.3020   35.7600 O.2   457  ILE457     -0.2715
     58  CB        26.3670   17.1030   38.1930 C.3   457  ILE457      0.0290
     59  CG1       27.5770   16.3000   37.6680 C.3   457  ILE457      0.0022
     60  CG2       26.4290   17.3420   39.7080 C.3   457  ILE457      0.0023
     61  CD1       28.0020   16.5660   36.2210 C.3   457  ILE457      0.0001
     62  N         25.6450   14.1290   37.3350 N.am  458  PHE458     -0.1960
     63  CA        25.8830   12.9440   36.4750 C.3   458  PHE458      0.1771
     64  C         24.5910   12.4340   35.8950 C.2   458  PHE458      0.2619
     65  O         24.6460   11.5700   35.0520 O.2   458  PHE458     -0.2715
     66  CB        26.5820   11.7800   37.2000 C.3   458  PHE458      0.0574
     67  CG        27.5820   12.2010   38.2400 C.ar  458  PHE458     -0.0200
     68  CD1       28.5850   13.1290   37.9550 C.ar  458  PHE458     -0.0042
     69  CD2       27.5530   11.6260   39.4910 C.ar  458  PHE458     -0.0042
     70  CE1       29.5090   13.5130   38.9120 C.ar  458  PHE458     -0.0003
     71  CE2       28.4790   11.9880   40.4570 C.ar  458  PHE458     -0.0003
     72  CZ        29.4610   12.9420   40.1720 C.ar  458  PHE458     -0.0000
     73  N         23.4410   12.9390   36.3790 N.am  459  ALA459     -0.1977
     74  CA        22.1340   12.7020   35.7570 C.3   459  ALA459      0.1597
     75  C         22.0260   13.5970   34.5380 C.2   459  ALA459      0.2287
     76  O         22.4410   13.1810   33.4540 O.2   459  ALA459     -0.2864
     77  CB        21.0040   12.9910   36.7080 C.3   459  ALA459      0.0319
     78  N         15.1890   17.0580   35.6910 N.3   511  ILE511     -0.1245
     79  CA        16.0530   16.7830   36.8570 C.3   511  ILE511      0.1561
     80  C         16.7630   17.9210   37.6050 C.2   511  ILE511      0.2260
     81  O         17.5720   18.6560   37.0360 O.2   511  ILE511     -0.2867
     82  CB        17.0850   15.7030   36.5230 C.3   511  ILE511      0.0252
     83  CG1       17.3080   15.6390   35.0120 C.3   511  ILE511      0.0019
     84  CG2       16.5870   14.3790   37.0170 C.3   511  ILE511      0.0019
     85  CD1       18.3900   14.6530   34.5630 C.3   511  ILE511      0.0001
     86  N         15.5210   15.3780   42.8020 N.3   515  ASP515     -0.1225
     87  CA        15.7080   14.0660   42.1820 C.3   515  ASP515      0.1805
     88  C         17.0680   13.4860   42.5460 C.2   515  ASP515      0.2597
     89  O         17.3390   12.3110   42.3690 O.2   515  ASP515     -0.2718
     90  CB        15.5620   14.1860   40.6690 C.3   515  ASP515      0.1424
     91  CG        14.4770   15.1790   40.2710 C.2   515  ASP515      0.3668
     92  OD1       14.6000   16.3760   40.6070 O.co2 515  ASP515     -0.2456
     93  OD2       13.4930   14.7790   39.6240 O.co2 515  ASP515     -0.2456
     94  N         17.9320   14.3270   43.0760 N.am  516  PHE516     -0.1976
     95  CA        19.2160   13.8720   43.5810 C.3   516  PHE516      0.1639
     96  C         19.0130   13.4200   45.0140 C.2   516  PHE516      0.2290
     97  O         19.9750   13.3340   45.7770 O.2   516  PHE516     -0.2864
     98  CB        20.2840   14.9990   43.5130 C.3   516  PHE516      0.0560
     99  CG        21.5820   14.6680   44.2160 C.ar  516  PHE516     -0.0200
    100  CD1       22.7850   14.6510   43.5140 C.ar  516  PHE516     -0.0042
    101  CD2       21.5950   14.3710   45.5940 C.ar  516  PHE516     -0.0042
    102  CE1       23.9830   14.3300   44.1750 C.ar  516  PHE516     -0.0003
    103  CE2       22.7580   14.0600   46.2570 C.ar  516  PHE516     -0.0003
    104  CZ        23.9560   14.0340   45.5620 C.ar  516  PHE516     -0.0000
    105  N         16.3020    9.5500   44.2290 N.3   519  HIS519     -0.1226
    106  CA        17.2670    8.7770   43.4350 C.3   519  HIS519      0.1752
    107  C         18.4490    8.2370   44.2430 C.2   519  HIS519      0.2596
    108  O         19.1610    7.3590   43.7710 O.2   519  HIS519     -0.2718
    109  CB        17.8220    9.6240   42.2690 C.3   519  HIS519      0.0759
    110  CG        17.1900    9.3230   40.9420 C.ar  519  HIS519      0.0818
    111  ND1       16.0720    9.9980   40.4790 N.ar  519  HIS519     -0.2268
    112  CD2       17.5300    8.4280   39.9790 C.ar  519  HIS519      0.1154
    113  CE1       15.7380    9.5170   39.2950 C.ar  519  HIS519      0.1986
    114  NE2       16.6110    8.5670   38.9660 N.ar  519  HIS519     -0.2212
    115  N         18.6830    8.7620   45.4350 N.am  520  HIS520     -0.1975
    116  CA        19.6520    8.1190   46.3160 C.3   520  HIS520      0.1656
    117  C         18.9490    7.2750   47.3800 C.2   520  HIS520      0.2291
    118  O         19.5820    6.4760   48.0830 O.2   520  HIS520     -0.2864
    119  CB        20.6230    9.1480   46.8930 C.3   520  HIS520      0.0771
    120  CG        21.8540    9.3510   46.0460 C.ar  520  HIS520      0.0820
    121  ND1       21.9350    8.8980   44.7470 N.ar  520  HIS520     -0.2267
    122  CD2       23.0520    9.9470   46.3100 C.ar  520  HIS520      0.1154
    123  CE1       23.1200    9.2170   44.2510 C.ar  520  HIS520      0.1986
    124  NE2       23.8230    9.8420   45.1790 N.ar  520  HIS520     -0.2212
    125  N         18.0970    4.0350   45.8560 N.3   523  ALA523     -0.1245
    126  CA        19.4090    3.3500   45.9060 C.3   523  ALA523      0.1562
    127  C         19.7410    2.7690   47.2890 C.2   523  ALA523      0.2260
    128  O         20.3440    1.6750   47.3870 O.2   523  ALA523     -0.2867
    129  CB        20.5260    4.2440   45.4110 C.3   523  ALA523      0.0290
    130  N         19.6760   -2.8150   48.1140 N.3   527  HIS527     -0.1241
    131  CA        20.9900   -2.6200   48.7560 C.3   527  HIS527      0.1621
    132  C         20.7990   -3.0990   50.1680 C.2   527  HIS527      0.2264
    133  O         21.4280   -4.0620   50.6200 O.2   527  HIS527     -0.2867
    134  CB        21.4220   -1.1240   48.7900 C.3   527  HIS527      0.0745
    135  CG        22.6170   -0.8210   47.9330 C.ar  527  HIS527      0.0817
    136  ND1       23.5950   -1.7650   47.6500 N.ar  527  HIS527     -0.2268
    137  CD2       23.0050    0.3140   47.3100 C.ar  527  HIS527      0.1154
    138  CE1       24.5290   -1.2250   46.8850 C.ar  527  HIS527      0.1986
    139  NE2       24.1930    0.0370   46.6610 N.ar  527  HIS527     -0.2212
@<TRIPOS>BOND
     1    76    75    2
     2    75    74    1
     3    85    83    1
     4    83    82    1
     5    65    64    2
     6    78    79    1
     7    74    73    1
     8    74    77    1
     9    57    56    2
    10    64    73   am
    11    64    63    1
    12    61    59    1
    13    63    66    1
    14    63    62    1
    15    82    79    1
    16    82    84    1
    17    79    80    1
    18    56    62   am
    19    56    55    1
    20    81    80    2
    21    66    67    1
    22    50    49    2
    23    59    58    1
    24    55    58    1
    25    55    54    1
    26    68    67   ar
    27    68    70   ar
    28    58    60    1
    29    67    69   ar
    30    49    54   am
    31    49    48    1
    32    70    72   ar
    33   114   113   ar
    34   114   112   ar
    35   113   111   ar
    36    69    71   ar
    37    93    91   ar
    38    51    52    1
    39    51    48    1
    40    53    52    1
    41    53    47    1
    42   112   110   ar
    43    48    47    1
    44    72    71   ar
    45    91    92   ar
    46    91    90    1
    47   111   110   ar
    48    90    87    1
    49   110   109    1
    50    87    88    1
    51    87    86    1
    52   109   106    1
    53    89    88    2
    54    88    94   am
    55    94    95    1
    56   106   105    1
    57   106   107    1
    58    98    95    1
    59    98    99    1
    60   100   102   ar
    61   100    99   ar
    62    95    96    1
    63   108   107    2
    64    42    41    2
    65    41    40    1
    66   102   104   ar
    67    99   101   ar
    68   107   115   am
    69   123   121   ar
    70   123   124   ar
    71    45    43    1
    72   121   120   ar
    73    96    97    2
    74   124   122   ar
    75    40    43    1
    76    40    39    1
    77   129   126    1
    78   115   116    1
    79    43    44    1
    80   104   103   ar
    81   101   103   ar
    82   125   126    1
    83   126   127    1
    84   120   122   ar
    85   120   119    1
    86   116   119    1
    87   116   117    1
    88   139   138   ar
    89   139   137   ar
    90   138   136   ar
    91    44    46    1
    92   127   128    2
    93   137   135   ar
    94   117   118    2
    95   136   135   ar
    96   135   134    1
    97   130   131    1
    98    37    36    1
    99   131   134    1
   100   131   132    1
   101    38    36    1
   102    36    35    1
   103    13    14   ar
   104    13    11   ar
   105    19    16    1
   106    14    12   ar
   107   132   133    2
   108    35    32    1
   109    11     8   ar
   110    30    29   ar
   111    30    28   ar
   112    29    27   ar
   113    16    17    1
   114    16    15    1
   115    12    10   ar
   116    28    26   ar
   117    27    25   ar
   118    32    31    1
   119    32    33    1
   120    18    17    2
   121    15     3   am
   122     8    10   ar
   123     8     6   ar
   124    26    25   ar
   125    10     9   ar
   126    34    33    2
   127    25    24    1
   128    31    22   am
   129    24    21    1
   130     3     4    2
   131     3     2    1
   132    22    23    2
   133    22    21    1
   134     6     5    1
   135     6     7   ar
   136     9     7   ar
   137     5     2    1
   138    21    20    1
   139     2     1    1
