@<TRIPOS>MOLECULE
tmp/2wseF01.pdb
 120 119 0 0 0
SMALL
GASTEIGER

@<TRIPOS>ATOM
      1  N          4.7790  -29.9500   35.7770 N.3    46  PHE46      -0.1241
      2  CA         4.5900  -29.7810   34.3310 C.3    46  PHE46       0.1605
      3  C          3.1110  -29.6980   33.9340 C.2    46  PHE46       0.2264
      4  O          2.6510  -28.6960   33.3970 O.2    46  PHE46      -0.2867
      5  CB         5.3730  -30.8260   33.5090 C.3    46  PHE46       0.0534
      6  CG         5.2980  -30.5940   32.0340 C.ar   46  PHE46      -0.0203
      7  CD1        4.7960  -31.5640   31.2000 C.ar   46  PHE46      -0.0042
      8  CD2        5.6920  -29.3770   31.4900 C.ar   46  PHE46      -0.0042
      9  CE1        4.6840  -31.3360   29.8610 C.ar   46  PHE46      -0.0003
     10  CE2        5.5830  -29.1420   30.1460 C.ar   46  PHE46      -0.0003
     11  CZ         5.0820  -30.1280   29.3290 C.ar   46  PHE46      -0.0000
     12  N          0.5140  -26.3610   33.1420 N.3    50  PHE50      -0.1241
     13  CA        -0.2450  -26.5050   31.9210 C.3    50  PHE50       0.1605
     14  C         -1.6770  -26.2120   32.4380 C.2    50  PHE50       0.2264
     15  O         -2.5710  -25.7620   31.7210 O.2    50  PHE50      -0.2867
     16  CB        -0.1360  -27.9550   31.4420 C.3    50  PHE50       0.0534
     17  CG         0.4910  -28.1370   30.0640 C.ar   50  PHE50      -0.0203
     18  CD1        1.5960  -29.0000   29.8960 C.ar   50  PHE50      -0.0042
     19  CD2       -0.0490  -27.5200   28.9410 C.ar   50  PHE50      -0.0042
     20  CE1        2.1520  -29.2170   28.6720 C.ar   50  PHE50      -0.0003
     21  CE2        0.5180  -27.7350   27.6900 C.ar   50  PHE50      -0.0003
     22  CZ         1.6160  -28.5830   27.5630 C.ar   50  PHE50      -0.0000
     23  N         -7.5340  -26.0340   25.2250 N.3   147  ILE147     -0.1231
     24  CA        -6.4470  -26.8510   24.6720 C.3   147  ILE147      0.1692
     25  C         -5.3640  -26.8270   25.7280 C.2   147  ILE147      0.2592
     26  O         -4.7400  -27.8580   26.0380 O.2   147  ILE147     -0.2718
     27  CB        -5.9040  -26.2340   23.3470 C.3   147  ILE147      0.0266
     28  CG1       -7.0660  -25.9500   22.3750 C.3   147  ILE147      0.0019
     29  CG2       -4.8100  -27.1180   22.7150 C.3   147  ILE147      0.0020
     30  CD1       -6.7720  -24.8200   21.3690 C.3   147  ILE147      0.0001
     31  N         -5.2010  -25.6310   26.3010 N.am  148  SER148     -0.1952
     32  CA        -4.2330  -25.3750   27.3580 C.3   148  SER148      0.1924
     33  C         -4.3290  -26.4220   28.4670 C.2   148  SER148      0.2314
     34  O         -3.3180  -26.7860   29.0590 O.2   148  SER148     -0.2863
     35  CB        -4.4320  -23.9570   27.9080 C.3   148  SER148      0.2116
     36  OG        -3.2940  -23.5200   28.6560 O.3   148  SER148     -0.2180
     37  N         -5.7290  -29.4910   27.7470 N.3   150  LEU150     -0.1231
     38  CA        -5.8460  -30.8300   27.1480 C.3   150  LEU150      0.1693
     39  C         -4.5410  -31.5910   27.2280 C.2   150  LEU150      0.2591
     40  O         -4.5410  -32.7310   27.6820 O.2   150  LEU150     -0.2718
     41  CB        -6.3640  -30.7990   25.7100 C.3   150  LEU150      0.0284
     42  CG        -7.5080  -31.7800   25.3580 C.3   150  LEU150      0.0019
     43  CD1       -7.4710  -32.1300   23.8650 C.3   150  LEU150      0.0001
     44  CD2       -7.4770  -33.0590   26.2330 C.3   150  LEU150      0.0001
     45  N         -3.4360  -30.9600   26.8070 N.am  151  ALA151     -0.1980
     46  CA        -2.0930  -31.5130   27.0490 C.3   151  ALA151      0.1597
     47  C         -1.9780  -31.8140   28.5310 C.2   151  ALA151      0.2287
     48  O         -1.7090  -32.9700   28.9160 O.2   151  ALA151     -0.2864
     49  CB        -0.9780  -30.5600   26.5960 C.3   151  ALA151      0.0319
     50  N         -3.5710  -35.0280   28.5510 N.3   154  LEU154     -0.1231
     51  CA        -2.8620  -35.8730   27.5730 C.3   154  LEU154      0.1693
     52  C         -1.4170  -36.1910   28.0150 C.2   154  LEU154      0.2592
     53  O         -0.9990  -37.3630   28.0050 O.2   154  LEU154     -0.2718
     54  CB        -2.8460  -35.2120   26.1940 C.3   154  LEU154      0.0284
     55  CG        -3.0790  -36.0850   24.9750 C.3   154  LEU154      0.0019
     56  CD1       -4.5070  -36.6600   25.0310 C.3   154  LEU154      0.0001
     57  CD2       -2.8560  -35.2270   23.7380 C.3   154  LEU154      0.0001
     58  N         -0.6780  -35.1510   28.4170 N.am  155  HIS155     -0.1976
     59  CA         0.7030  -35.3380   28.8230 C.3   155  HIS155      0.1656
     60  C          0.8180  -35.7670   30.2790 C.2   155  HIS155      0.2291
     61  O          1.9420  -35.8660   30.8020 O.2   155  HIS155     -0.2864
     62  CB         1.5290  -34.0710   28.5890 C.3   155  HIS155      0.0771
     63  CG         2.1690  -34.0060   27.2390 C.ar  155  HIS155      0.0820
     64  ND1        3.1320  -34.9130   26.8210 N.ar  155  HIS155     -0.2267
     65  CD2        2.0000  -33.1310   26.2180 C.ar  155  HIS155      0.1154
     66  CE1        3.5130  -34.6100   25.5930 C.ar  155  HIS155      0.1986
     67  NE2        2.8410  -33.5340   25.2030 N.ar  155  HIS155     -0.2212
     68  N          1.1490  -42.2360   26.0530 N.3   160  TRP160     -0.1227
     69  CA         1.6970  -41.1870   25.1860 C.3   160  TRP160      0.1737
     70  C          2.5150  -40.2230   26.0660 C.2   160  TRP160      0.2595
     71  O          2.0240  -39.1520   26.5280 O.2   160  TRP160     -0.2718
     72  CB         0.6510  -40.5080   24.2600 C.3   160  TRP160      0.0564
     73  CG        -0.7480  -40.2810   24.8020 C.ar  160  TRP160      0.0003
     74  CD1       -1.0830  -39.7870   26.0310 C.ar  160  TRP160      0.0946
     75  CD2       -1.9980  -40.4760   24.1070 C.ar  160  TRP160      0.0152
     76  NE1       -2.4560  -39.6870   26.1530 N.ar  160  TRP160     -0.2442
     77  CE2       -3.0450  -40.1030   24.9890 C.ar  160  TRP160      0.0810
     78  CE3       -2.3360  -40.9380   22.8360 C.ar  160  TRP160      0.0012
     79  CZ2       -4.4130  -40.1820   24.6410 C.ar  160  TRP160      0.0191
     80  CZ3       -3.7090  -41.0110   22.4870 C.ar  160  TRP160      0.0001
     81  CH2       -4.7250  -40.6350   23.3920 C.ar  160  TRP160      0.0015
     82  N          3.7810  -40.6650   26.2640 N.am  161  LYS161     -0.1980
     83  CA         4.7330  -40.2120   27.3120 C.3   161  LYS161      0.1596
     84  C          4.4820  -38.8540   27.9410 C.2   161  LYS161      0.2287
     85  O          4.2280  -37.8560   27.2280 O.2   161  LYS161     -0.2864
     86  CB         6.2020  -40.2980   26.8390 C.3   161  LYS161      0.0298
     87  CG         6.6560  -41.7230   26.5670 C.3   161  LYS161      0.0038
     88  CD         7.7020  -41.7710   25.4540 C.3   161  LYS161      0.0206
     89  CE         7.3650  -42.8550   24.4340 C.3   161  LYS161      0.1093
     90  NZ         8.0650  -42.5450   23.1650 N.3   161  LYS161     -0.1314
     91  N          6.9960  -37.9450   29.7350 N.3   163  SER163     -0.1217
     92  CA         8.4540  -37.6690   29.7100 C.3   163  SER163      0.1889
     93  C          9.0890  -37.4430   31.0800 C.2   163  SER163      0.2288
     94  O          8.6600  -36.5660   31.8160 O.2   163  SER163     -0.2866
     95  CB         8.8260  -36.5440   28.7180 C.3   163  SER163      0.2089
     96  OG         7.6850  -35.8070   28.3050 O.3   163  SER163     -0.2183
     97  N         14.1940  -36.6660   30.0670 N.3   166  TRP166     -0.1241
     98  CA        13.9990  -35.5810   29.0590 C.3   166  TRP166      0.1605
     99  C         13.7060  -34.1550   29.5610 C.2   166  TRP166      0.2264
    100  O         13.4890  -33.2260   28.7720 O.2   166  TRP166     -0.2867
    101  CB        12.8600  -36.0390   28.1300 C.3   166  TRP166      0.0550
    102  CG        12.2430  -34.9940   27.2170 C.ar  166  TRP166      0.0003
    103  CD1       12.5160  -34.8020   25.8870 C.ar  166  TRP166      0.0946
    104  CD2       11.2220  -34.0350   27.5570 C.ar  166  TRP166      0.0152
    105  NE1       11.7420  -33.7730   25.3850 N.ar  166  TRP166     -0.2442
    106  CE2       10.9410  -33.2850   26.3910 C.ar  166  TRP166      0.0810
    107  CE3       10.5420  -33.7140   28.7350 C.ar  166  TRP166      0.0012
    108  CZ2        9.9920  -32.2450   26.3730 C.ar  166  TRP166      0.0191
    109  CZ3        9.5990  -32.6800   28.7120 C.ar  166  TRP166      0.0001
    110  CH2        9.3320  -31.9600   27.5390 C.ar  166  TRP166      0.0015
    111  N         13.5590  -23.2210   22.0440 N.3   177  HIS177     -0.1241
    112  CA        13.0020  -21.9460   22.4920 C.3   177  HIS177      0.1621
    113  C         13.5130  -20.6730   21.8220 C.2   177  HIS177      0.2264
    114  O         12.8270  -20.1110   20.9700 O.2   177  HIS177     -0.2867
    115  CB        13.2410  -21.8470   23.9800 C.3   177  HIS177      0.0745
    116  CG        12.2430  -22.6200   24.7660 C.ar  177  HIS177      0.0817
    117  ND1       11.5720  -23.7050   24.2400 N.ar  177  HIS177     -0.2268
    118  CD2       11.7660  -22.4590   26.0170 C.ar  177  HIS177      0.1154
    119  CE1       10.7260  -24.1840   25.1370 C.ar  177  HIS177      0.1986
    120  NE2       10.8190  -23.4420   26.2200 N.ar  177  HIS177     -0.2212
@<TRIPOS>BOND
     1   114   113    2
     2    30    28    1
     3   113   112    1
     4   111   112    1
     5    28    27    1
     6    80    78   ar
     7    80    81   ar
     8   112   115    1
     9    29    27    1
    10    78    75   ar
    11    90    89    1
    12    27    24    1
    13    81    79   ar
    14    57    55    1
    15    43    42    1
    16   115   116    1
    17    75    73   ar
    18    75    77   ar
    19   117   116   ar
    20   117   119   ar
    21    72    73    1
    22    72    69    1
    23    89    88    1
    24    79    77   ar
    25    24    23    1
    26    24    25    1
    27   116   118   ar
    28    73    74   ar
    29    55    56    1
    30    55    54    1
    31    77    76   ar
    32   119   120   ar
    33    69    68    1
    34    69    70    1
    35    67    66   ar
    36    67    65   ar
    37    42    41    1
    38    42    44    1
    39   105   103   ar
    40   105   106   ar
    41    88    87    1
    42    66    64   ar
    43    41    38    1
    44    25    26    2
    45    25    31   am
    46   103   102   ar
    47   118   120   ar
    48    74    76   ar
    49    70    82   am
    50    70    71    2
    51    54    51    1
    52    65    63   ar
    53    82    83    1
    54    31    32    1
    55   108   106   ar
    56   108   110   ar
    57   106   104   ar
    58    87    86    1
    59    49    46    1
    60    45    46    1
    61    45    39   am
    62    64    63   ar
    63    86    83    1
    64    46    47    1
    65    38    39    1
    66    38    37    1
    67   102   104   ar
    68   102   101    1
    69    85    84    2
    70    39    40    2
    71    63    62    1
    72    83    84    1
    73    32    35    1
    74    32    33    1
    75   110   109   ar
    76   104   107   ar
    77    22    21   ar
    78    22    20   ar
    79    51    52    1
    80    51    50    1
    81    21    19   ar
    82    35    36    1
    83    53    52    2
    84    52    58   am
    85   101    98    1
    86    96    95    1
    87    58    59    1
    88    33    34    2
    89    47    48    2
    90    62    59    1
    91    20    18   ar
    92   109   107   ar
    93    95    92    1
    94   100    99    2
    95    59    60    1
    96    19    17   ar
    97    98    99    1
    98    98    97    1
    99    11     9   ar
   100    11    10   ar
   101    92    91    1
   102    92    93    1
   103     9     7   ar
   104    18    17   ar
   105    17    16    1
   106    10     8   ar
   107    60    61    2
   108    93    94    2
   109     7     6   ar
   110    16    13    1
   111     8     6   ar
   112    15    14    2
   113    13    14    1
   114    13    12    1
   115     6     5    1
   116     4     3    2
   117     5     2    1
   118     3     2    1
   119     2     1    1
