@<TRIPOS>MOLECULE
tmp/2wseF04.pdb
 257 252 0 0 0
SMALL
GASTEIGER

@<TRIPOS>ATOM
      1  N          0.5140  -26.3610   33.1420 N.3    50  PHE50      -0.1241
      2  CA        -0.2450  -26.5050   31.9210 C.3    50  PHE50       0.1605
      3  C         -1.6770  -26.2120   32.4380 C.2    50  PHE50       0.2264
      4  O         -2.5710  -25.7620   31.7210 O.2    50  PHE50      -0.2867
      5  CB        -0.1360  -27.9550   31.4420 C.3    50  PHE50       0.0534
      6  CG         0.4910  -28.1370   30.0640 C.ar   50  PHE50      -0.0203
      7  CD1        1.5960  -29.0000   29.8960 C.ar   50  PHE50      -0.0042
      8  CD2       -0.0490  -27.5200   28.9410 C.ar   50  PHE50      -0.0042
      9  CE1        2.1520  -29.2170   28.6720 C.ar   50  PHE50      -0.0003
     10  CE2        0.5180  -27.7350   27.6900 C.ar   50  PHE50      -0.0003
     11  CZ         1.6160  -28.5830   27.5630 C.ar   50  PHE50      -0.0000
     12  N         -0.8730  -21.3470   31.7240 N.3    53  LEU53      -0.1245
     13  CA        -1.3330  -20.8680   30.4310 C.3    53  LEU53       0.1561
     14  C         -2.8530  -20.9160   30.4140 C.2    53  LEU53       0.2260
     15  O         -3.4910  -20.0080   29.8800 O.2    53  LEU53      -0.2867
     16  CB        -0.7930  -21.7250   29.2920 C.3    53  LEU53       0.0270
     17  CG         0.6410  -21.5340   28.8160 C.3    53  LEU53       0.0019
     18  CD1        1.5770  -21.8690   29.9350 C.3    53  LEU53       0.0001
     19  CD2        0.8370  -22.4830   27.6530 C.3    53  LEU53       0.0001
     20  N         -5.9730  -17.5860   30.0290 N.3    57  PHE57      -0.1241
     21  CA        -6.8730  -17.3630   28.9050 C.3    57  PHE57       0.1605
     22  C         -8.3700  -17.2290   29.2880 C.2    57  PHE57       0.2264
     23  O         -9.1470  -16.6300   28.5390 O.2    57  PHE57      -0.2867
     24  CB        -6.6320  -18.3720   27.7700 C.3    57  PHE57       0.0534
     25  CG        -5.2110  -18.3180   27.1570 C.ar   57  PHE57      -0.0203
     26  CD1       -4.3060  -17.3200   27.4930 C.ar   57  PHE57      -0.0042
     27  CD2       -4.8110  -19.2710   26.2240 C.ar   57  PHE57      -0.0042
     28  CE1       -3.0370  -17.2840   26.9340 C.ar   57  PHE57      -0.0003
     29  CE2       -3.5400  -19.2300   25.6610 C.ar   57  PHE57      -0.0003
     30  CZ        -2.6520  -18.2290   26.0140 C.ar   57  PHE57      -0.0000
     31  N        -11.7940   -9.5000   27.2140 N.3    64  LEU64      -0.1245
     32  CA       -12.3710   -9.0970   25.9350 C.3    64  LEU64       0.1561
     33  C        -13.9280   -9.3140   25.8390 C.2    64  LEU64       0.2260
     34  O        -14.5720   -8.9800   24.8140 O.2    64  LEU64      -0.2867
     35  CB       -11.5650   -9.7170   24.7750 C.3    64  LEU64       0.0270
     36  CG       -10.0510   -9.3980   24.8140 C.3    64  LEU64       0.0019
     37  CD1       -9.3180  -10.0720   23.6590 C.3    64  LEU64       0.0001
     38  CD2       -9.7360   -7.8740   24.8930 C.3    64  LEU64       0.0001
     39  N         -6.2270   -3.4990   22.1570 N.3   123  TRP123     -0.1241
     40  CA        -7.2380   -4.1790   21.3500 C.3   123  TRP123      0.1605
     41  C         -7.5990   -3.1660   20.2590 C.2   123  TRP123      0.2264
     42  O         -7.9730   -3.5540   19.1540 O.2   123  TRP123     -0.2867
     43  CB        -8.4790   -4.6220   22.1600 C.3   123  TRP123      0.0550
     44  CG        -9.8120   -4.7750   21.3380 C.ar  123  TRP123      0.0003
     45  CD1      -10.1650   -4.0990   20.1830 C.ar  123  TRP123      0.0946
     46  CD2      -10.9700   -5.5930   21.6680 C.ar  123  TRP123      0.0152
     47  NE1      -11.4310   -4.4710   19.7670 N.ar  123  TRP123     -0.2442
     48  CE2      -11.9510   -5.3810   20.6580 C.ar  123  TRP123      0.0810
     49  CE3      -11.2740   -6.4790   22.7200 C.ar  123  TRP123      0.0012
     50  CZ2      -13.2030   -6.0370   20.6650 C.ar  123  TRP123      0.0191
     51  CZ3      -12.5310   -7.1270   22.7230 C.ar  123  TRP123      0.0001
     52  CH2      -13.4730   -6.8970   21.7040 C.ar  123  TRP123      0.0015
     53  N         -3.4940   -2.3220   17.9400 N.3   126  ILE126     -0.1245
     54  CA        -3.5740   -3.1590   16.7650 C.3   126  ILE126      0.1561
     55  C         -5.0630   -3.0630   16.3380 C.2   126  ILE126      0.2260
     56  O         -5.9580   -3.7010   16.9330 O.2   126  ILE126     -0.2867
     57  CB        -2.9720   -4.6190   16.9370 C.3   126  ILE126      0.0252
     58  CG1       -3.8920   -5.7100   16.3720 C.3   126  ILE126      0.0019
     59  CG2       -2.7020   -4.9630   18.3890 C.3   126  ILE126      0.0019
     60  CD1       -4.0290   -5.7790   14.8880 C.3   126  ILE126      0.0001
     61  N         -8.3100   -3.7010   15.2730 N.3   128  LEU128     -0.1231
     62  CA        -9.4720   -4.2910   15.9990 C.3   128  LEU128      0.1693
     63  C        -10.4970   -3.2210   16.4990 C.2   128  LEU128      0.2591
     64  O        -10.3290   -2.6120   17.5560 O.2   128  LEU128     -0.2718
     65  CB        -8.9580   -5.1780   17.1460 C.3   128  LEU128      0.0284
     66  CG        -9.7300   -6.4180   17.6510 C.3   128  LEU128      0.0019
     67  CD1       -9.1850   -6.8610   19.0350 C.3   128  LEU128      0.0001
     68  CD2      -11.2730   -6.2270   17.6660 C.3   128  LEU128      0.0001
     69  N        -11.5680   -3.0290   15.7340 N.am  129  ARG129     -0.1980
     70  CA       -12.3300   -1.7890   15.7790 C.3   129  ARG129      0.1597
     71  C        -13.8310   -1.9960   15.9150 C.2   129  ARG129      0.2287
     72  O        -14.3820   -1.9220   16.9920 O.2   129  ARG129     -0.2864
     73  CB       -12.1000   -1.0170   14.4700 C.3   129  ARG129      0.0334
     74  CG       -11.0150    0.0120   14.4900 C.3   129  ARG129      0.0492
     75  CD        -9.7930   -0.4060   13.6940 C.3   129  ARG129      0.2205
     76  NE        -8.5800    0.2630   14.2020 N.pl3 129  ARG129     -0.0865
     77  CZ        -8.5180    1.5310   14.6420 C.cat 129  ARG129      0.5346
     78  NH1       -9.5970    2.3260   14.6100 N.pl3 129  ARG129      0.1354
     79  NH2       -7.3630    2.0230   15.0980 N.pl3 129  ARG129      0.1354
     80  N        -18.1020   -5.7220   13.5870 N.3   133  ASP133     -0.1239
     81  CA       -16.8260   -6.3410   13.3130 C.3   133  ASP133      0.1674
     82  C        -16.1600   -6.9280   14.5440 C.2   133  ASP133      0.2266
     83  O        -15.3220   -7.8080   14.4110 O.2   133  ASP133     -0.2867
     84  CB       -15.8290   -5.2990   12.4140 C.3   133  ASP133      0.1410
     85  CG       -14.7720   -6.0120   11.5900 C.2   133  ASP133      0.3668
     86  OD1      -15.0700   -7.1260   11.0440 O.co2 133  ASP133     -0.2456
     87  OD2      -13.6470   -5.4950   11.5550 O.co2 133  ASP133     -0.2456
     88  N        -15.5570  -11.1580   18.7580 N.3   136  THR136     -0.1203
     89  CA       -14.5840  -12.1950   19.0680 C.3   136  THR136      0.1994
     90  C        -13.7050  -11.6810   20.2590 C.2   136  THR136      0.2618
     91  O        -13.7320  -10.4790   20.6400 O.2   136  THR136     -0.2717
     92  CB       -13.7900  -12.7240   17.7880 C.3   136  THR136      0.1784
     93  OG1      -13.4920  -14.1260   17.9310 O.3   136  THR136     -0.2211
     94  CG2      -12.4830  -11.9490   17.5430 C.3   136  THR136      0.0376
     95  N        -12.9700  -12.6260   20.8480 N.am  137  GLY137     -0.1956
     96  CA       -12.2100  -12.4250   22.0690 C.3   137  GLY137      0.1869
     97  C        -12.2260  -13.7740   22.7510 C.2   137  GLY137      0.2309
     98  O        -11.3800  -14.6080   22.4650 O.2   137  GLY137     -0.2863
     99  N        -12.1170  -17.1020   20.4190 N.3   140  PHE140     -0.1227
    100  CA       -10.7800  -17.6820   20.1480 C.3   140  PHE140      0.1736
    101  C        -10.0590  -18.0420   21.4670 C.2   140  PHE140      0.2595
    102  O        -10.1860  -19.1760   21.9550 O.2   140  PHE140     -0.2718
    103  CB        -9.9110  -16.8200   19.1930 C.3   140  PHE140      0.0547
    104  CG        -8.5000  -17.3320   19.0220 C.ar  140  PHE140     -0.0202
    105  CD1       -7.4020  -16.5090   19.2930 C.ar  140  PHE140     -0.0042
    106  CD2       -8.2670  -18.6430   18.6340 C.ar  140  PHE140     -0.0042
    107  CE1       -6.0950  -16.9850   19.1470 C.ar  140  PHE140     -0.0003
    108  CE2       -6.9800  -19.1230   18.5040 C.ar  140  PHE140     -0.0003
    109  CZ        -5.8930  -18.2980   18.7520 C.ar  140  PHE140     -0.0000
    110  N         -9.3450  -17.0710   22.0400 N.am  141  LEU141     -0.1980
    111  CA        -8.6670  -17.2330   23.3140 C.3   141  LEU141      0.1596
    112  C         -9.1600  -18.4010   24.1610 C.2   141  LEU141      0.2287
    113  O         -8.3740  -18.9990   24.8800 O.2   141  LEU141     -0.2864
    114  CB        -8.8320  -15.9800   24.1570 C.3   141  LEU141      0.0297
    115  CG        -7.7280  -14.9230   24.2320 C.3   141  LEU141      0.0022
    116  CD1       -6.3500  -15.5290   23.9340 C.3   141  LEU141      0.0001
    117  CD2       -8.0530  -13.7100   23.3370 C.3   141  LEU141      0.0001
    118  N        -11.3760  -21.0580   22.9650 N.3   143  PHE143     -0.1227
    119  CA       -11.2090  -22.2320   22.0780 C.3   143  PHE143      0.1736
    120  C         -9.6920  -22.4560   21.9460 C.2   143  PHE143      0.2595
    121  O         -9.1860  -23.3170   21.1850 O.2   143  PHE143     -0.2718
    122  CB       -11.9790  -22.0830   20.7490 C.3   143  PHE143      0.0547
    123  CG       -11.1180  -21.7650   19.5310 C.ar  143  PHE143     -0.0202
    124  CD1      -11.3610  -20.5980   18.7860 C.ar  143  PHE143     -0.0042
    125  CD2      -10.1370  -22.6650   19.0710 C.ar  143  PHE143     -0.0042
    126  CE1      -10.6130  -20.2980   17.6390 C.ar  143  PHE143     -0.0003
    127  CE2       -9.3700  -22.3850   17.9290 C.ar  143  PHE143     -0.0003
    128  CZ        -9.6150  -21.2020   17.2010 C.ar  143  PHE143     -0.0000
    129  N         -8.9870  -21.6620   22.7560 N.am  144  LEU144     -0.1980
    130  CA        -7.5790  -21.8370   23.0050 C.3   144  LEU144      0.1596
    131  C         -7.4440  -22.3150   24.4380 C.2   144  LEU144      0.2287
    132  O         -7.0040  -23.4410   24.6790 O.2   144  LEU144     -0.2864
    133  CB        -6.8550  -20.5080   22.7850 C.3   144  LEU144      0.0297
    134  CG        -5.5800  -20.4710   21.9510 C.3   144  LEU144      0.0022
    135  CD1       -4.3770  -20.8070   22.8110 C.3   144  LEU144      0.0001
    136  CD2       -5.7260  -21.4370   20.8090 C.3   144  LEU144      0.0001
    137  N         -7.5340  -26.0340   25.2250 N.3   147  ILE147     -0.1231
    138  CA        -6.4470  -26.8510   24.6720 C.3   147  ILE147      0.1692
    139  C         -5.3640  -26.8270   25.7280 C.2   147  ILE147      0.2592
    140  O         -4.7400  -27.8580   26.0380 O.2   147  ILE147     -0.2718
    141  CB        -5.9040  -26.2340   23.3470 C.3   147  ILE147      0.0266
    142  CG1       -7.0660  -25.9500   22.3750 C.3   147  ILE147      0.0019
    143  CG2       -4.8100  -27.1180   22.7150 C.3   147  ILE147      0.0020
    144  CD1       -6.7720  -24.8200   21.3690 C.3   147  ILE147      0.0001
    145  N         -5.2010  -25.6310   26.3010 N.am  148  SER148     -0.1952
    146  CA        -4.2330  -25.3750   27.3580 C.3   148  SER148      0.1924
    147  C         -4.3290  -26.4220   28.4670 C.2   148  SER148      0.2314
    148  O         -3.3180  -26.7860   29.0590 O.2   148  SER148     -0.2863
    149  CB        -4.4320  -23.9570   27.9080 C.3   148  SER148      0.2116
    150  OG        -3.2940  -23.5200   28.6560 O.3   148  SER148     -0.2180
    151  N          7.9910  -16.2890   17.5020 N.3   185  SER185     -0.1217
    152  CA         6.8940  -15.7290   18.3000 C.3   185  SER185      0.1889
    153  C          6.8430  -14.2460   18.0500 C.2   185  SER185      0.2288
    154  O          5.7690  -13.6620   17.8270 O.2   185  SER185     -0.2866
    155  CB         7.1190  -15.9870   19.7710 C.3   185  SER185      0.2089
    156  OG         5.9270  -15.7300   20.5190 O.3   185  SER185     -0.2183
    157  N          6.1960  -14.0200   13.6120 N.3   188  ALA188     -0.1231
    158  CA         4.7130  -14.1430   13.5370 C.3   188  ALA188      0.1694
    159  C          3.9110  -12.9290   14.0190 C.2   188  ALA188      0.2592
    160  O          2.8620  -12.5940   13.4650 O.2   188  ALA188     -0.2718
    161  CB         4.2330  -15.3930   14.2450 C.3   188  ALA188      0.0304
    162  N          4.3970  -12.2850   15.0710 N.am  189  TRP189     -0.1976
    163  CA         3.8530  -10.9810   15.4690 C.3   189  TRP189      0.1640
    164  C          4.2260   -9.9860   14.3920 C.2   189  TRP189      0.2290
    165  O          3.3350   -9.3750   13.8100 O.2   189  TRP189     -0.2864
    166  CB         4.3720  -10.5380   16.8410 C.3   189  TRP189      0.0576
    167  CG         3.6750   -9.3450   17.4080 C.ar  189  TRP189      0.0006
    168  CD1        4.2670   -8.1800   17.7980 C.ar  189  TRP189      0.0946
    169  CD2        2.2500   -9.1950   17.6850 C.ar  189  TRP189      0.0152
    170  NE1        3.3110   -7.3060   18.3020 N.ar  189  TRP189     -0.2442
    171  CE2        2.0650   -7.8990   18.2300 C.ar  189  TRP189      0.0810
    172  CE3        1.1190  -10.0250   17.5330 C.ar  189  TRP189      0.0012
    173  CZ2        0.7880   -7.4130   18.6140 C.ar  189  TRP189      0.0191
    174  CZ3       -0.1460   -9.5330   17.9240 C.ar  189  TRP189      0.0001
    175  CH2       -0.2940   -8.2460   18.4590 C.ar  189  TRP189      0.0015
    176  N          4.5310  -10.4600   11.7220 N.3   191  GLY191     -0.1210
    177  CA         3.6280  -10.8310   10.6610 C.3   191  GLY191      0.1956
    178  C          2.3850   -9.9800   10.7660 C.2   191  GLY191      0.2611
    179  O          2.0290   -9.2240    9.8590 O.2   191  GLY191     -0.2717
    180  N          1.7630  -10.0770   11.9220 N.am  192  HIS192     -0.1975
    181  CA         0.4040   -9.6160   12.1380 C.3   192  HIS192      0.1656
    182  C          0.2690   -8.1020   12.1250 C.2   192  HIS192      0.2291
    183  O         -0.5620   -7.5360   11.4200 O.2   192  HIS192     -0.2864
    184  CB        -0.0590  -10.1580   13.4710 C.3   192  HIS192      0.0771
    185  CG        -1.3830   -9.6230   13.9040 C.ar  192  HIS192      0.0820
    186  ND1       -1.5100   -8.5090   14.7120 N.ar  192  HIS192     -0.2267
    187  CD2       -2.6510  -10.0370   13.6300 C.ar  192  HIS192      0.1154
    188  CE1       -2.8010   -8.2700   14.9320 C.ar  192  HIS192      0.1986
    189  NE2       -3.5150   -9.1860   14.2920 N.ar  192  HIS192     -0.2212
    190  N          0.5200   -7.0940    8.1000 N.3   195  HIS195     -0.1226
    191  CA        -0.5770   -7.3970    7.1740 C.3   195  HIS195      0.1752
    192  C         -1.9500   -6.8600    7.6330 C.2   195  HIS195      0.2595
    193  O         -2.7800   -6.4140    6.8400 O.2   195  HIS195     -0.2718
    194  CB        -0.7040   -8.9080    6.9510 C.3   195  HIS195      0.0759
    195  CG         0.2740   -9.4630    5.9480 C.ar  195  HIS195      0.0818
    196  ND1        0.5390   -8.8390    4.7450 N.ar  195  HIS195     -0.2268
    197  CD2        1.0350  -10.5990    5.9680 C.ar  195  HIS195      0.1154
    198  CE1        1.4400   -9.5540    4.0800 C.ar  195  HIS195      0.1986
    199  NE2        1.7550  -10.6250    4.7990 N.ar  195  HIS195     -0.2212
    200  N         -2.1700   -6.9090    8.9360 N.am  196  VAL196     -0.1980
    201  CA        -3.4910   -6.7150    9.5450 C.3   196  VAL196      0.1595
    202  C         -3.3030   -5.9290   10.8340 C.2   196  VAL196      0.2287
    203  O         -3.0360   -6.5440   11.8650 O.2   196  VAL196     -0.2864
    204  CB        -4.1200   -8.1220    9.8330 C.3   196  VAL196      0.0276
    205  CG1       -5.1070   -8.1100   11.0210 C.3   196  VAL196      0.0022
    206  CG2       -4.7370   -8.7110    8.5740 C.3   196  VAL196      0.0022
    207  N         -9.8800   -3.9870    6.5760 N.3   206  VAL206     -0.1231
    208  CA        -9.2660   -5.2580    6.0790 C.3   206  VAL206      0.1692
    209  C        -10.3020   -6.3790    5.7490 C.2   206  VAL206      0.2592
    210  O         -9.9360   -7.4940    5.2970 O.2   206  VAL206     -0.2718
    211  CB        -8.0300   -5.7390    6.9880 C.3   206  VAL206      0.0266
    212  CG1       -8.0980   -7.2240    7.4070 C.3   206  VAL206      0.0020
    213  CG2       -6.6890   -5.4140    6.3190 C.3   206  VAL206      0.0020
    214  N        -11.5910   -6.0590    5.9450 N.am  207  ARG207     -0.1966
    215  CA       -12.7090   -7.0100    5.7090 C.3   207  ARG207      0.1729
    216  C        -12.4220   -8.5130    5.9240 C.2   207  ARG207      0.2616
    217  O        -11.5270   -9.1120    5.2930 O.2   207  ARG207     -0.2715
    218  CB       -13.3660   -6.7560    4.3520 C.3   207  ARG207      0.0348
    219  CG       -14.7530   -6.0890    4.4320 C.3   207  ARG207      0.0492
    220  CD       -14.7760   -4.7860    5.2330 C.3   207  ARG207      0.2205
    221  NE       -16.1210   -4.5910    5.7910 N.pl3 207  ARG207     -0.0865
    222  CZ       -16.5320   -5.0580    6.9720 C.cat 207  ARG207      0.5346
    223  NH1      -15.6970   -5.7470    7.7570 N.pl3 207  ARG207      0.1354
    224  NH2      -17.7900   -4.8410    7.3770 N.pl3 207  ARG207      0.1354
    225  N        -13.2300   -9.0750    6.8320 N.am  208  TRP208     -0.1974
    226  CA       -13.1400  -10.4620    7.3450 C.3   208  TRP208      0.1640
    227  C        -13.1170  -11.4850    6.1980 C.2   208  TRP208      0.2290
    228  O        -12.5910  -12.6050    6.3220 O.2   208  TRP208     -0.2864
    229  CB       -14.3090  -10.7100    8.3450 C.3   208  TRP208      0.0576
    230  CG       -14.5940  -12.1580    8.6990 C.ar  208  TRP208      0.0006
    231  CD1      -13.8530  -12.9550    9.5320 C.ar  208  TRP208      0.0946
    232  CD2      -15.7100  -12.9770    8.2440 C.ar  208  TRP208      0.0152
    233  NE1      -14.4270  -14.2180    9.6250 N.ar  208  TRP208     -0.2442
    234  CE2      -15.5650  -14.2610    8.8460 C.ar  208  TRP208      0.0810
    235  CE3      -16.8120  -12.7540    7.3870 C.ar  208  TRP208      0.0012
    236  CZ2      -16.4750  -15.3200    8.6150 C.ar  208  TRP208      0.0191
    237  CZ3      -17.7160  -13.8070    7.1620 C.ar  208  TRP208      0.0001
    238  CH2      -17.5400  -15.0710    7.7730 C.ar  208  TRP208      0.0015
    239  N        -11.7450  -10.7880    2.6810 N.3   210  ASN210     -0.1225
    240  CA       -10.4400  -10.7890    1.9650 C.3   210  ASN210      0.1785
    241  C         -9.1760  -10.5610    2.8150 C.2   210  ASN210      0.2597
    242  O         -9.2030   -9.8150    3.8010 O.2   210  ASN210     -0.2718
    243  CB       -10.4540   -9.8540    0.7300 C.3   210  ASN210      0.1169
    244  CG       -10.5740   -8.3660    1.0870 C.2   210  ASN210      0.2627
    245  OD1       -9.9390   -7.8790    2.0270 O.2   210  ASN210     -0.2716
    246  ND2      -11.3760   -7.6370    0.3120 N.am  210  ASN210     -0.0877
    247  N         -8.0780  -11.1760    2.3540 N.am  211  PHE211     -0.1976
    248  CA        -6.8740  -11.4800    3.1250 C.3   211  PHE211      0.1639
    249  C         -5.7890  -11.7850    2.0720 C.2   211  PHE211      0.2290
    250  O         -4.5750  -11.6600    2.3240 O.2   211  PHE211     -0.2864
    251  CB        -7.1910  -12.6990    3.9980 C.3   211  PHE211      0.0560
    252  CG        -6.0500  -13.1760    4.8730 C.ar  211  PHE211     -0.0200
    253  CD1       -5.8970  -12.6830    6.1620 C.ar  211  PHE211     -0.0042
    254  CD2       -5.1750  -14.1870    4.4390 C.ar  211  PHE211     -0.0042
    255  CE1       -4.8580  -13.1550    6.9830 C.ar  211  PHE211     -0.0003
    256  CE2       -4.1380  -14.6540    5.2660 C.ar  211  PHE211     -0.0003
    257  CZ        -3.9860  -14.1400    6.5350 C.ar  211  PHE211     -0.0000
@<TRIPOS>BOND
     1   246   244   am
     2   243   244    1
     3   243   240    1
     4   244   245    2
     5   240   239    1
     6   240   241    1
     7   249   250    2
     8   249   248    1
     9   247   241   am
    10   247   248    1
    11   241   242    2
    12   248   251    1
    13   251   252    1
    14   198   196   ar
    15   198   199   ar
    16   218   219    1
    17   218   215    1
    18   219   220    1
    19   254   252   ar
    20   254   256   ar
    21   196   195   ar
    22   199   197   ar
    23   252   253   ar
    24   220   221    1
    25   256   257   ar
    26   217   216    2
    27   210   209    2
    28   215   216    1
    29   215   214    1
    30   209   214   am
    31   209   208    1
    32   221   222    2
    33   216   225   am
    34   195   197   ar
    35   195   194    1
    36   208   207    1
    37   208   211    1
    38   253   255   ar
    39   227   228    2
    40   227   226    1
    41   213   211    1
    42   257   255   ar
    43   225   226    1
    44   193   192    2
    45   194   191    1
    46   222   224    1
    47   222   223    1
    48   211   212    1
    49   237   235   ar
    50   237   238   ar
    51   191   192    1
    52   191   190    1
    53   226   229    1
    54   235   232   ar
    55   192   200   am
    56   238   236   ar
    57   232   230   ar
    58   232   234   ar
    59   229   230    1
    60   206   204    1
    61   236   234   ar
    62   230   231   ar
    63   234   233   ar
    64   200   201    1
    65   231   233   ar
    66   201   204    1
    67   201   202    1
    68   204   205    1
    69   179   178    2
    70   177   178    1
    71   177   176    1
    72   178   180   am
    73   202   203    2
    74    86    85   ar
    75   183   182    2
    76    87    85   ar
    77    85    84    1
    78   180   181    1
    79   182   181    1
    80   181   184    1
    81    84    81    1
    82    81    80    1
    83    81    82    1
    84   160   159    2
    85   184   185    1
    86   158   157    1
    87   158   159    1
    88   158   161    1
    89   187   185   ar
    90   187   189   ar
    91    75    76    1
    92    75    74    1
    93   165   164    2
    94   185   186   ar
    95   159   162   am
    96    76    77    2
    97   189   188   ar
    98   164   163    1
    99    83    82    2
   100    73    74    1
   101    73    70    1
   102    78    77    1
   103    77    79    1
   104   186   188   ar
   105    60    58    1
   106   162   163    1
   107    61    62    1
   108   163   166    1
   109    69    70    1
   110    69    63   am
   111    70    71    1
   112    71    72    2
   113    62    63    1
   114    62    65    1
   115    55    54    1
   116    55    56    2
   117    58    57    1
   118    63    64    2
   119    54    57    1
   120    54    53    1
   121   166   167    1
   122    57    59    1
   123    65    66    1
   124   128   126   ar
   125   128   127   ar
   126   167   169   ar
   127   167   168   ar
   128   151   152    1
   129   172   169   ar
   130   172   174   ar
   131    94    92    1
   132   126   124   ar
   133    66    68    1
   134    66    67    1
   135   169   171   ar
   136    92    93    1
   137    92    89    1
   138   168   170   ar
   139   154   153    2
   140   174   175   ar
   141   127   125   ar
   142   153   152    1
   143   171   170   ar
   144   171   173   ar
   145   152   155    1
   146   175   173   ar
   147   108   106   ar
   148   108   109   ar
   149   106   104   ar
   150   109   107   ar
   151    88    89    1
   152   124   123   ar
   153   104   103    1
   154   104   105   ar
   155    89    90    1
   156   125   123   ar
   157   107   105   ar
   158    42    41    2
   159   103   100    1
   160   123   122    1
   161    47    45   ar
   162    47    48   ar
   163   155   156    1
   164   100    99    1
   165   100   101    1
   166    45    44   ar
   167    90    91    2
   168    90    95   am
   169    41    40    1
   170    48    50   ar
   171    48    46   ar
   172    50    52   ar
   173   122   119    1
   174   136   134    1
   175    95    96    1
   176   121   120    2
   177    44    46   ar
   178    44    43    1
   179    40    39    1
   180    40    43    1
   181   144   142    1
   182   101   102    2
   183   101   110   am
   184    46    49   ar
   185    52    51   ar
   186   120   119    1
   187   120   129   am
   188   134   133    1
   189   134   135    1
   190   110   111    1
   191    96    97    1
   192   119   118    1
   193   142   141    1
   194    98    97    2
   195   143   141    1
   196    49    51   ar
   197   129   130    1
   198   133   130    1
   199   130   131    1
   200   111   114    1
   201   111   112    1
   202   117   115    1
   203   141   138    1
   204    37    36    1
   205   116   115    1
   206   114   115    1
   207   112   113    2
   208   131   132    2
   209   138   137    1
   210   138   139    1
   211    35    36    1
   212    35    32    1
   213    34    33    2
   214    36    38    1
   215    29    30   ar
   216    29    27   ar
   217   139   140    2
   218   139   145   am
   219    33    32    1
   220    32    31    1
   221    30    28   ar
   222    27    25   ar
   223   145   146    1
   224    28    26   ar
   225    25    26   ar
   226    25    24    1
   227   146   149    1
   228   146   147    1
   229    11    10   ar
   230    11     9   ar
   231    19    17    1
   232    10     8   ar
   233    24    21    1
   234   149   150    1
   235   147   148    2
   236    23    22    2
   237     9     7   ar
   238    17    16    1
   239    17    18    1
   240    21    22    1
   241    21    20    1
   242     8     6   ar
   243    16    13    1
   244    15    14    2
   245     7     6   ar
   246     6     5    1
   247    14    13    1
   248    13    12    1
   249     5     2    1
   250     4     3    2
   251     2     3    1
   252     2     1    1
