@<TRIPOS>MOLECULE
tmp/2wseF37.pdb
 97 95 0 0 0
SMALL
GASTEIGER

@<TRIPOS>ATOM
      1  N        -16.3140    3.8370   45.6210 N.3   644  VAL644     -0.1245
      2  CA       -15.5820    2.5840   45.6850 C.3   644  VAL644      0.1561
      3  C        -14.2660    2.9060   46.3290 C.2   644  VAL644      0.2260
      4  O        -13.8900    2.3090   47.3360 O.2   644  VAL644     -0.2867
      5  CB       -15.2800    1.9690   44.3030 C.3   644  VAL644      0.0252
      6  CG1      -15.5670    0.4780   44.3370 C.3   644  VAL644      0.0019
      7  CG2      -16.0760    2.6540   43.1920 C.3   644  VAL644      0.0019
      8  N        -13.5810    4.0880   50.2800 N.3   647  TRP647     -0.1227
      9  CA       -13.9640    2.9920   51.1450 C.3   647  TRP647      0.1737
     10  C        -12.8910    1.9250   50.9800 C.2   647  TRP647      0.2595
     11  O        -12.5770    1.2070   51.9280 O.2   647  TRP647     -0.2718
     12  CB       -15.3330    2.4530   50.7380 C.3   647  TRP647      0.0564
     13  CG       -15.8630    1.3930   51.6400 C.ar  647  TRP647      0.0003
     14  CD1      -16.6920    1.5740   52.6970 C.ar  647  TRP647      0.0946
     15  CD2      -15.6190   -0.0210   51.5560 C.ar  647  TRP647      0.0152
     16  NE1      -16.9910    0.3690   53.2890 N.ar  647  TRP647     -0.2442
     17  CE2      -16.3440   -0.6280   52.6100 C.ar  647  TRP647      0.0810
     18  CE3      -14.8610   -0.8380   50.6890 C.ar  647  TRP647      0.0012
     19  CZ2      -16.3370   -2.0130   52.8310 C.ar  647  TRP647      0.0191
     20  CZ3      -14.8470   -2.2190   50.9070 C.ar  647  TRP647      0.0001
     21  CH2      -15.5840   -2.7940   51.9760 C.ar  647  TRP647      0.0015
     22  N        -12.3360    1.8260   49.7740 N.am  648  MET648     -0.1979
     23  CA       -11.1990    0.9470   49.5390 C.3   648  MET648      0.1605
     24  C        -10.0140    1.4730   50.3750 C.2   648  MET648      0.2287
     25  O         -9.2950    0.7320   51.0570 O.2   648  MET648     -0.2864
     26  CB       -10.8360    0.9470   48.0430 C.3   648  MET648      0.0413
     27  CG       -11.3630   -0.2430   47.2260 C.3   648  MET648      0.0598
     28  SD       -10.0310   -1.0370   46.2750 S.3   648  MET648     -0.1393
     29  CE        -9.5500    0.3070   45.1930 C.3   648  MET648      0.0692
     30  N        -10.6370    0.6230   53.7950 N.3   651  PHE651     -0.1241
     31  CA       -10.3750   -0.7880   53.6980 C.3   651  PHE651      0.1605
     32  C         -8.8180   -0.9180   53.6160 C.2   651  PHE651      0.2264
     33  O         -8.2140   -1.8320   54.2200 O.2   651  PHE651     -0.2867
     34  CB       -11.1080   -1.4210   52.4940 C.3   651  PHE651      0.0534
     35  CG       -10.6280   -2.7960   52.1720 C.ar  651  PHE651     -0.0203
     36  CD1       -9.5880   -2.9780   51.2570 C.ar  651  PHE651     -0.0042
     37  CD2      -11.1780   -3.9060   52.8270 C.ar  651  PHE651     -0.0042
     38  CE1       -9.1190   -4.2160   50.9770 C.ar  651  PHE651     -0.0003
     39  CE2      -10.7250   -5.1760   52.5520 C.ar  651  PHE651     -0.0003
     40  CZ        -9.6840   -5.3310   51.6250 C.ar  651  PHE651     -0.0000
     41  N         -1.2680   -7.3430   64.6570 N.3   661  MET661     -0.1245
     42  CA        -1.5770   -8.4870   65.5270 C.3   661  MET661      0.1570
     43  C         -0.5430   -9.5480   65.1790 C.2   661  MET661      0.2261
     44  O          0.5870   -9.5880   65.7160 O.2   661  MET661     -0.2867
     45  CB        -2.9870   -9.0230   65.2000 C.3   661  MET661      0.0387
     46  CG        -3.7790   -9.7260   66.3090 C.3   661  MET661      0.0595
     47  SD        -5.4170   -8.9260   66.4180 S.3   661  MET661     -0.1393
     48  CE        -6.3260  -10.0340   67.4710 C.3   661  MET661      0.0692
     49  N         -2.0990  -16.1840   72.3150 N.3   670  TRP670     -0.1241
     50  CA        -3.3690  -16.4390   71.6700 C.3   670  TRP670      0.1605
     51  C         -3.9180  -17.8070   72.0530 C.2   670  TRP670      0.2264
     52  O         -5.0500  -17.9490   72.4980 O.2   670  TRP670     -0.2867
     53  CB        -3.2010  -16.2220   70.1530 C.3   670  TRP670      0.0550
     54  CG        -3.1460  -14.7520   69.8920 C.ar  670  TRP670      0.0003
     55  CD1       -2.0450  -13.9940   69.5520 C.ar  670  TRP670      0.0946
     56  CD2       -4.2400  -13.8400   70.0560 C.ar  670  TRP670      0.0152
     57  NE1       -2.4060  -12.6670   69.4800 N.ar  670  TRP670     -0.2442
     58  CE2       -3.7530  -12.5520   69.7850 C.ar  670  TRP670      0.0810
     59  CE3       -5.5860  -13.9890   70.4200 C.ar  670  TRP670      0.0012
     60  CZ2       -4.5720  -11.4270   69.8560 C.ar  670  TRP670      0.0191
     61  CZ3       -6.3880  -12.8850   70.4720 C.ar  670  TRP670      0.0001
     62  CH2       -5.8870  -11.6230   70.1930 C.ar  670  TRP670      0.0015
     63  N         -5.3330  -18.1050   75.9100 N.3   673  LEU673     -0.1231
     64  CA        -6.6880  -17.7720   76.2630 C.3   673  LEU673      0.1693
     65  C         -7.6850  -18.6110   75.4880 C.2   673  LEU673      0.2591
     66  O         -8.8420  -18.6590   75.8460 O.2   673  LEU673     -0.2718
     67  CB        -6.9720  -16.2660   76.2280 C.3   673  LEU673      0.0284
     68  CG        -7.5150  -15.5110   75.0260 C.3   673  LEU673      0.0019
     69  CD1       -8.7500  -16.1770   74.3820 C.3   673  LEU673      0.0001
     70  CD2       -7.8360  -14.0580   75.4370 C.3   673  LEU673      0.0001
     71  N         -7.2400  -19.3000   74.4460 N.am  674  ILE674     -0.1980
     72  CA        -8.1100  -20.2490   73.7170 C.3   674  ILE674      0.1595
     73  C         -8.2140  -21.5630   74.5010 C.2   674  ILE674      0.2287
     74  O         -9.1910  -22.3040   74.3620 O.2   674  ILE674     -0.2864
     75  CB        -7.6470  -20.4150   72.2250 C.3   674  ILE674      0.0276
     76  CG1       -7.9190  -19.0960   71.4700 C.3   674  ILE674      0.0022
     77  CG2       -8.3120  -21.6280   71.5180 C.3   674  ILE674      0.0022
     78  CD1       -7.7500  -19.1700   69.9420 C.3   674  ILE674      0.0001
     79  N        -10.8300  -20.3110   76.6360 N.3   677  LEU677     -0.1245
     80  CA       -12.0010  -20.0400   75.8200 C.3   677  LEU677      0.1561
     81  C        -12.5880  -21.3190   75.2200 C.2   677  LEU677      0.2260
     82  O        -13.7540  -21.3220   74.7590 O.2   677  LEU677     -0.2867
     83  CB       -11.6800  -18.9970   74.7640 C.3   677  LEU677      0.0270
     84  CG       -12.7750  -17.9290   74.6580 C.3   677  LEU677      0.0019
     85  CD1      -13.0690  -17.2940   76.0010 C.3   677  LEU677      0.0001
     86  CD2      -12.3650  -16.8800   73.6170 C.3   677  LEU677      0.0001
     87  N         -3.3920   -2.0690   48.4340 N.3   718  PHE718     -0.1241
     88  CA        -4.7790   -1.7880   48.0860 C.3   718  PHE718      0.1605
     89  C         -5.0540   -0.3580   48.5040 C.2   718  PHE718      0.2264
     90  O         -6.1460    0.1550   48.2240 O.2   718  PHE718     -0.2867
     91  CB        -5.7660   -2.7410   48.8050 C.3   718  PHE718      0.0534
     92  CG        -6.4800   -3.7330   47.9060 C.ar  718  PHE718     -0.0203
     93  CD1       -7.7250   -3.4510   47.3920 C.ar  718  PHE718     -0.0042
     94  CD2       -5.9320   -4.9790   47.6250 C.ar  718  PHE718     -0.0042
     95  CE1       -8.4060   -4.3840   46.5810 C.ar  718  PHE718     -0.0003
     96  CE2       -6.6160   -5.9090   46.8070 C.ar  718  PHE718     -0.0003
     97  CZ        -7.8490   -5.6000   46.2980 C.ar  718  PHE718     -0.0000
@<TRIPOS>BOND
     1     7     5    1
     2     5     6    1
     3     5     2    1
     4    29    28    1
     5     1     2    1
     6     2     3    1
     7    28    27    1
     8    97    95   ar
     9    97    96   ar
    10     3     4    2
    11    95    93   ar
    12    96    94   ar
    13    27    26    1
    14    93    92   ar
    15    94    92   ar
    16    92    91    1
    17    26    23    1
    18    88    87    1
    19    88    89    1
    20    88    91    1
    21    90    89    2
    22    23    22    1
    23    23    24    1
    24    22    10   am
    25     8     9    1
    26    24    25    2
    27    18    20   ar
    28    18    15   ar
    29    12     9    1
    30    12    13    1
    31    20    21   ar
    32    38    36   ar
    33    38    40   ar
    34    10     9    1
    35    10    11    2
    36    36    35   ar
    37    15    13   ar
    38    15    17   ar
    39    40    39   ar
    40    13    14   ar
    41    21    19   ar
    42    35    34    1
    43    35    37   ar
    44    34    31    1
    45    39    37   ar
    46    17    19   ar
    47    17    16   ar
    48    14    16   ar
    49    32    31    1
    50    32    33    2
    51    31    30    1
    52    41    42    1
    53    43    42    1
    54    43    44    2
    55    45    42    1
    56    45    46    1
    57    46    47    1
    58    47    48    1
    59    57    55   ar
    60    57    58   ar
    61    55    54   ar
    62    58    60   ar
    63    58    56   ar
    64    60    62   ar
    65    54    56   ar
    66    54    53    1
    67    78    76    1
    68    56    59   ar
    69    53    50    1
    70    62    61   ar
    71    59    61   ar
    72    76    75    1
    73    77    75    1
    74    50    51    1
    75    50    49    1
    76    51    52    2
    77    75    72    1
    78    86    84    1
    79    72    71    1
    80    72    73    1
    81    74    73    2
    82    69    68    1
    83    71    65   am
    84    84    83    1
    85    84    85    1
    86    82    81    2
    87    83    80    1
    88    68    70    1
    89    68    67    1
    90    81    80    1
    91    65    66    2
    92    65    64    1
    93    80    79    1
    94    63    64    1
    95    67    64    1
