@<TRIPOS>MOLECULE
tmp/2wseF03.pdb
 162 159 0 0 0
SMALL
GASTEIGER

@<TRIPOS>ATOM
      1  N          4.7790  -29.9500   35.7770 N.3    46  PHE46      -0.1241
      2  CA         4.5900  -29.7810   34.3310 C.3    46  PHE46       0.1605
      3  C          3.1110  -29.6980   33.9340 C.2    46  PHE46       0.2264
      4  O          2.6510  -28.6960   33.3970 O.2    46  PHE46      -0.2867
      5  CB         5.3730  -30.8260   33.5090 C.3    46  PHE46       0.0534
      6  CG         5.2980  -30.5940   32.0340 C.ar   46  PHE46      -0.0203
      7  CD1        4.7960  -31.5640   31.2000 C.ar   46  PHE46      -0.0042
      8  CD2        5.6920  -29.3770   31.4900 C.ar   46  PHE46      -0.0042
      9  CE1        4.6840  -31.3360   29.8610 C.ar   46  PHE46      -0.0003
     10  CE2        5.5830  -29.1420   30.1460 C.ar   46  PHE46      -0.0003
     11  CZ         5.0820  -30.1280   29.3290 C.ar   46  PHE46      -0.0000
     12  N          1.5840  -26.2560   35.7680 N.3    49  HIS49      -0.1226
     13  CA         1.5340  -25.0660   34.9290 C.3    49  HIS49       0.1752
     14  C          1.2970  -25.3160   33.4190 C.2    49  HIS49       0.2596
     15  O          1.8060  -24.5860   32.5600 O.2    49  HIS49      -0.2718
     16  CB         2.7480  -24.1810   35.1770 C.3    49  HIS49       0.0759
     17  CG         4.0190  -24.7220   34.6050 C.ar   49  HIS49       0.0818
     18  ND1        4.1670  -26.0470   34.2420 N.ar   49  HIS49      -0.2268
     19  CD2        5.2180  -24.1220   34.3710 C.ar   49  HIS49       0.1154
     20  CE1        5.4010  -26.2350   33.7880 C.ar   49  HIS49       0.1986
     21  NE2        6.0610  -25.0850   33.8610 N.ar   49  HIS49      -0.2212
     22  N          0.5140  -26.3610   33.1420 N.am   50  PHE50      -0.1976
     23  CA        -0.2450  -26.5050   31.9210 C.3    50  PHE50       0.1639
     24  C         -1.6770  -26.2120   32.4380 C.2    50  PHE50       0.2290
     25  O         -2.5710  -25.7620   31.7210 O.2    50  PHE50      -0.2864
     26  CB        -0.1360  -27.9550   31.4420 C.3    50  PHE50       0.0560
     27  CG         0.4910  -28.1370   30.0640 C.ar   50  PHE50      -0.0200
     28  CD1        1.5960  -29.0000   29.8960 C.ar   50  PHE50      -0.0042
     29  CD2       -0.0490  -27.5200   28.9410 C.ar   50  PHE50      -0.0042
     30  CE1        2.1520  -29.2170   28.6720 C.ar   50  PHE50      -0.0003
     31  CE2        0.5180  -27.7350   27.6900 C.ar   50  PHE50      -0.0003
     32  CZ         1.6160  -28.5830   27.5630 C.ar   50  PHE50      -0.0000
     33  N         -0.8730  -21.3470   31.7240 N.3    53  LEU53      -0.1245
     34  CA        -1.3330  -20.8680   30.4310 C.3    53  LEU53       0.1561
     35  C         -2.8530  -20.9160   30.4140 C.2    53  LEU53       0.2260
     36  O         -3.4910  -20.0080   29.8800 O.2    53  LEU53      -0.2867
     37  CB        -0.7930  -21.7250   29.2920 C.3    53  LEU53       0.0270
     38  CG         0.6410  -21.5340   28.8160 C.3    53  LEU53       0.0019
     39  CD1        1.5770  -21.8690   29.9350 C.3    53  LEU53       0.0001
     40  CD2        0.8370  -22.4830   27.6530 C.3    53  LEU53       0.0001
     41  N         14.1940  -36.6660   30.0670 N.3   166  TRP166     -0.1227
     42  CA        13.9990  -35.5810   29.0590 C.3   166  TRP166      0.1737
     43  C         13.7060  -34.1550   29.5610 C.2   166  TRP166      0.2595
     44  O         13.4890  -33.2260   28.7720 O.2   166  TRP166     -0.2718
     45  CB        12.8600  -36.0390   28.1300 C.3   166  TRP166      0.0564
     46  CG        12.2430  -34.9940   27.2170 C.ar  166  TRP166      0.0003
     47  CD1       12.5160  -34.8020   25.8870 C.ar  166  TRP166      0.0946
     48  CD2       11.2220  -34.0350   27.5570 C.ar  166  TRP166      0.0152
     49  NE1       11.7420  -33.7730   25.3850 N.ar  166  TRP166     -0.2442
     50  CE2       10.9410  -33.2850   26.3910 C.ar  166  TRP166      0.0810
     51  CE3       10.5420  -33.7140   28.7350 C.ar  166  TRP166      0.0012
     52  CZ2        9.9920  -32.2450   26.3730 C.ar  166  TRP166      0.0191
     53  CZ3        9.5990  -32.6800   28.7120 C.ar  166  TRP166      0.0001
     54  CH2        9.3320  -31.9600   27.5390 C.ar  166  TRP166      0.0015
     55  N         13.7020  -33.9930   30.8780 N.am  167  PHE167     -0.1976
     56  CA        13.4200  -32.7060   31.5330 C.3   167  PHE167      0.1639
     57  C         14.6790  -31.9930   32.0300 C.2   167  PHE167      0.2290
     58  O         14.5690  -30.8950   32.6110 O.2   167  PHE167     -0.2864
     59  CB        12.4780  -32.9230   32.7190 C.3   167  PHE167      0.0560
     60  CG        11.0150  -32.6820   32.4180 C.ar  167  PHE167     -0.0200
     61  CD1       10.4850  -31.3960   32.4840 C.ar  167  PHE167     -0.0042
     62  CD2       10.1700  -33.7480   32.1390 C.ar  167  PHE167     -0.0042
     63  CE1        9.1410  -31.1770   32.2470 C.ar  167  PHE167     -0.0003
     64  CE2        8.8230  -33.5450   31.9000 C.ar  167  PHE167     -0.0003
     65  CZ         8.3010  -32.2590   31.9410 C.ar  167  PHE167     -0.0000
     66  N         17.5440  -31.6120   29.8290 N.3   169  ASN169     -0.1240
     67  CA        18.4340  -31.4220   28.7000 C.3   169  ASN169      0.1653
     68  C         18.9960  -30.0240   28.8240 C.2   169  ASN169      0.2266
     69  O         20.0370  -29.8220   29.4600 O.2   169  ASN169     -0.2867
     70  CB        17.7250  -31.6230   27.3380 C.3   169  ASN169      0.1155
     71  CG        18.4290  -32.6970   26.4260 C.2   169  ASN169      0.2627
     72  OD1       19.5420  -33.1970   26.7090 O.2   169  ASN169     -0.2716
     73  ND2       17.7430  -33.0700   25.3540 N.am  169  ASN169     -0.0877
     74  N         19.1420  -28.8690   23.4080 N.3   172  SER172     -0.1202
     75  CA        17.8700  -29.1880   22.6940 C.3   172  SER172      0.2020
     76  C         16.7890  -28.1080   22.8730 C.2   172  SER172      0.2618
     77  O         16.4940  -27.3750   21.9260 O.2   172  SER172     -0.2717
     78  CB        17.3070  -30.5630   23.1150 C.3   172  SER172      0.2103
     79  OG        16.1860  -30.9640   22.3280 O.3   172  SER172     -0.2182
     80  N         16.2140  -28.0270   24.0860 N.am  173  ARG173     -0.1979
     81  CA        15.3400  -26.9090   24.5350 C.3   173  ARG173      0.1597
     82  C         16.1680  -25.7020   24.9110 C.2   173  ARG173      0.2287
     83  O         17.2310  -25.8490   25.5220 O.2   173  ARG173     -0.2864
     84  CB        14.5110  -27.2730   25.7550 C.3   173  ARG173      0.0334
     85  CG        14.0180  -26.0290   26.4940 C.3   173  ARG173      0.0492
     86  CD        12.8110  -26.2860   27.4240 C.3   173  ARG173      0.2205
     87  NE        12.9570  -27.5100   28.2130 N.pl3 173  ARG173     -0.0865
     88  CZ        13.8580  -27.6530   29.1770 C.cat 173  ARG173      0.5346
     89  NH1       14.6640  -26.6410   29.4650 N.pl3 173  ARG173      0.1354
     90  NH2       13.9500  -28.7920   29.8430 N.pl3 173  ARG173      0.1354
     91  N         15.9900  -24.8300   21.3380 N.3   176  HIS176     -0.1226
     92  CA        14.7000  -24.8100   20.6440 C.3   176  HIS176      0.1752
     93  C         13.9610  -23.4780   20.8100 C.2   176  HIS176      0.2596
     94  O         13.7550  -22.7230   19.8450 O.2   176  HIS176     -0.2718
     95  CB        13.7880  -25.9690   21.0870 C.3   176  HIS176      0.0759
     96  CG        13.1710  -26.6930   19.9430 C.ar  176  HIS176      0.0818
     97  ND1       12.4600  -26.0330   18.9590 N.ar  176  HIS176     -0.2268
     98  CD2       13.2030  -28.0030   19.5820 C.ar  176  HIS176      0.1154
     99  CE1       12.0540  -26.9090   18.0600 C.ar  176  HIS176      0.1986
    100  NE2       12.4870  -28.1140   18.4160 N.ar  176  HIS176     -0.2212
    101  N         13.5590  -23.2210   22.0440 N.am  177  HIS177     -0.1975
    102  CA        13.0020  -21.9460   22.4920 C.3   177  HIS177      0.1656
    103  C         13.5130  -20.6730   21.8220 C.2   177  HIS177      0.2291
    104  O         12.8270  -20.1110   20.9700 O.2   177  HIS177     -0.2864
    105  CB        13.2410  -21.8470   23.9800 C.3   177  HIS177      0.0771
    106  CG        12.2430  -22.6200   24.7660 C.ar  177  HIS177      0.0820
    107  ND1       11.5720  -23.7050   24.2400 N.ar  177  HIS177     -0.2267
    108  CD2       11.7660  -22.4590   26.0170 C.ar  177  HIS177      0.1154
    109  CE1       10.7260  -24.1840   25.1370 C.ar  177  HIS177      0.1986
    110  NE2       10.8190  -23.4420   26.2200 N.ar  177  HIS177     -0.2212
    111  N         12.6330  -21.3500   18.0050 N.3   180  GLY180     -0.1210
    112  CA        11.2560  -21.8150   17.8640 C.3   180  GLY180      0.1956
    113  C         10.2920  -20.8300   18.4900 C.2   180  GLY180      0.2612
    114  O          9.4870  -20.2030   17.7860 O.2   180  GLY180     -0.2717
    115  N         10.4030  -20.6820   19.8170 N.am  181  LEU181     -0.1965
    116  CA         9.5410  -19.7840   20.6290 C.3   181  LEU181      0.1728
    117  C          9.7280  -18.3120   20.2600 C.2   181  LEU181      0.2616
    118  O          9.2990  -17.8870   19.1810 O.2   181  LEU181     -0.2715
    119  CB         9.8000  -20.0140   22.1210 C.3   181  LEU181      0.0311
    120  CG         9.0620  -19.2200   23.2080 C.3   181  LEU181      0.0022
    121  CD1        7.5570  -19.3150   23.1150 C.3   181  LEU181      0.0001
    122  CD2        9.4900  -19.6910   24.5810 C.3   181  LEU181      0.0001
    123  N         10.3710  -17.5470   21.1500 N.am  182  PHE182     -0.1974
    124  CA        10.6560  -16.1140   20.9510 C.3   182  PHE182      0.1639
    125  C         10.7520  -15.6550   19.4910 C.2   182  PHE182      0.2290
    126  O          9.9810  -14.7840   19.0700 O.2   182  PHE182     -0.2864
    127  CB        11.9970  -15.7520   21.5770 C.3   182  PHE182      0.0560
    128  CG        11.9810  -15.6240   23.0570 C.ar  182  PHE182     -0.0200
    129  CD1       11.2580  -14.6030   23.6700 C.ar  182  PHE182     -0.0042
    130  CD2       12.7710  -16.4700   23.8330 C.ar  182  PHE182     -0.0042
    131  CE1       11.2630  -14.4590   25.0470 C.ar  182  PHE182     -0.0003
    132  CE2       12.7950  -16.3320   25.2170 C.ar  182  PHE182     -0.0003
    133  CZ        12.0270  -15.3230   25.8280 C.ar  182  PHE182     -0.0000
    134  N          7.9910  -16.2890   17.5020 N.3   185  SER185     -0.1217
    135  CA         6.8940  -15.7290   18.3000 C.3   185  SER185      0.1889
    136  C          6.8430  -14.2460   18.0500 C.2   185  SER185      0.2288
    137  O          5.7690  -13.6620   17.8270 O.2   185  SER185     -0.2866
    138  CB         7.1190  -15.9870   19.7710 C.3   185  SER185      0.2089
    139  OG         5.9270  -15.7300   20.5190 O.3   185  SER185     -0.2183
    140  N         13.2620  -11.7570   34.6010 N.3   340  LEU340     -0.1245
    141  CA        11.8610  -11.3410   34.6250 C.3   340  LEU340      0.1561
    142  C         11.7670  -10.1670   35.5810 C.2   340  LEU340      0.2260
    143  O         11.2490   -9.1340   35.2460 O.2   340  LEU340     -0.2867
    144  CB        10.9280  -12.5130   35.0240 C.3   340  LEU340      0.0270
    145  CG         9.6030  -12.7380   34.2430 C.3   340  LEU340      0.0019
    146  CD1        9.8010  -12.9110   32.7340 C.3   340  LEU340      0.0001
    147  CD2        8.8330  -13.9280   34.7730 C.3   340  LEU340      0.0001
    148  N         13.6460   -7.2030   34.2140 N.3   343  ILE343     -0.1245
    149  CA        12.9470   -6.7380   32.9770 C.3   343  ILE343      0.1561
    150  C         11.4700   -6.3190   33.1520 C.2   343  ILE343      0.2260
    151  O         10.9260   -5.6290   32.3060 O.2   343  ILE343     -0.2867
    152  CB        13.0670   -7.7130   31.7380 C.3   343  ILE343      0.0252
    153  CG1       12.2870   -9.0280   31.9190 C.3   343  ILE343      0.0019
    154  CG2       14.5430   -7.9660   31.3130 C.3   343  ILE343      0.0019
    155  CD1       10.8590   -8.9820   31.4420 C.3   343  ILE343      0.0001
    156  N         10.4240   -3.1960   31.2690 N.3   347  VAL347     -0.1245
    157  CA         9.0750   -3.1310   30.6670 C.3   347  VAL347      0.1561
    158  C          8.4090   -1.8490   31.1180 C.2   347  VAL347      0.2260
    159  O          8.1240   -0.9680   30.3210 O.2   347  VAL347     -0.2867
    160  CB         8.1520   -4.3640   31.0740 C.3   347  VAL347      0.0252
    161  CG1        6.7420   -3.9240   31.4330 C.3   347  VAL347      0.0019
    162  CG2        8.1060   -5.3920   29.9750 C.3   347  VAL347      0.0019
@<TRIPOS>BOND
     1   134   135    1
     2   114   113    2
     3   137   136    2
     4   112   111    1
     5   112   113    1
     6   136   135    1
     7    99   100   ar
     8    99    97   ar
     9   135   138    1
    10   100    98   ar
    11   113   115   am
    12    97    96   ar
    13   126   125    2
    14   118   117    2
    15   125   124    1
    16    98    96   ar
    17   138   139    1
    18   115   116    1
    19    94    93    2
    20    96    95    1
    21   117   116    1
    22   117   123   am
    23   116   119    1
    24    92    93    1
    25    92    95    1
    26    92    91    1
    27    93   101   am
    28   124   123    1
    29   124   127    1
    30   104   103    2
    31   127   128    1
    32   103   102    1
    33    77    76    2
    34   101   102    1
    35   119   120    1
    36    79    78    1
    37   102   105    1
    38    75    76    1
    39    75    78    1
    40    75    74    1
    41    76    80   am
    42   128   129   ar
    43   128   130   ar
    44   121   120    1
    45   120   122    1
    46   129   131   ar
    47   130   132   ar
    48   105   106    1
    49    80    81    1
    50   107   106   ar
    51   107   109   ar
    52    81    82    1
    53    81    84    1
    54   106   108   ar
    55    82    83    2
    56   131   133   ar
    57   109   110   ar
    58   132   133   ar
    59    73    71   am
    60    49    47   ar
    61    49    50   ar
    62    84    85    1
    63    47    46   ar
    64   108   110   ar
    65    52    50   ar
    66    52    54   ar
    67    50    48   ar
    68    71    72    2
    69    71    70    1
    70    85    86    1
    71    46    48   ar
    72    46    45    1
    73    70    67    1
    74    86    87    1
    75    54    53   ar
    76    48    51   ar
    77    32    31   ar
    78    32    30   ar
    79    40    38    1
    80    31    29   ar
    81    45    42    1
    82    87    88    2
    83    30    28   ar
    84    67    68    1
    85    67    66    1
    86    53    51   ar
    87    44    43    2
    88    38    37    1
    89    38    39    1
    90    68    69    2
    91    29    27   ar
    92    42    43    1
    93    42    41    1
    94    88    89    1
    95    88    90    1
    96    37    34    1
    97    11     9   ar
    98    11    10   ar
    99    43    55   am
   100     9     7   ar
   101    36    35    2
   102    28    27   ar
   103   162   160    1
   104    27    26    1
   105    10     8   ar
   106   159   158    2
   107    35    34    1
   108    34    33    1
   109   157   160    1
   110   157   158    1
   111   157   156    1
   112    55    56    1
   113   160   161    1
   114     7     6   ar
   115   154   152    1
   116    26    23    1
   117   155   153    1
   118     8     6   ar
   119    56    57    1
   120    56    59    1
   121    25    24    2
   122   152   153    1
   123   152   149    1
   124    64    65   ar
   125    64    62   ar
   126    23    24    1
   127    23    22    1
   128    65    63   ar
   129    57    58    2
   130     6     5    1
   131    62    60   ar
   132    63    61   ar
   133   151   150    2
   134    60    61   ar
   135    60    59    1
   136    15    14    2
   137   146   145    1
   138   149   150    1
   139   149   148    1
   140    22    14   am
   141     4     3    2
   142    14    13    1
   143     5     2    1
   144    20    21   ar
   145    20    18   ar
   146    21    19   ar
   147     3     2    1
   148    18    17   ar
   149   145   147    1
   150   145   144    1
   151     2     1    1
   152    19    17   ar
   153   140   141    1
   154    17    16    1
   155   141   144    1
   156   141   142    1
   157    13    16    1
   158    13    12    1
   159   143   142    2
