@<TRIPOS>MOLECULE
tmp/2wseF16.pdb
 112 108 0 0 0
SMALL
GASTEIGER

@<TRIPOS>ATOM
      1  N         16.7220  -17.9040   38.4910 N.3   335  LEU335     -0.1245
      2  CA        17.4400  -17.2270   37.4260 C.3   335  LEU335      0.1561
      3  C         16.3320  -16.9110   36.4340 C.2   335  LEU335      0.2260
      4  O         16.4090  -15.9240   35.6970 O.2   335  LEU335     -0.2867
      5  CB        18.5190  -18.1460   36.8470 C.3   335  LEU335      0.0270
      6  CG        19.8790  -17.9200   37.4960 C.3   335  LEU335      0.0019
      7  CD1       20.6950  -19.1720   37.4450 C.3   335  LEU335      0.0001
      8  CD2       20.5410  -16.8300   36.7120 C.3   335  LEU335      0.0001
      9  N         13.7370  -12.7800   38.4600 N.3   338  ALA338     -0.1231
     10  CA        14.8540  -11.8850   38.0480 C.3   338  ALA338      0.1694
     11  C         15.1710  -12.2500   36.6080 C.2   338  ALA338      0.2592
     12  O         14.8550  -13.3530   36.1570 O.2   338  ALA338     -0.2718
     13  CB        16.0970  -12.0450   38.9150 C.3   338  ALA338      0.0304
     14  N         15.8090  -11.3430   35.8710 N.am  339  SER339     -0.1952
     15  CA        15.6500  -11.3530   34.4260 C.3   339  SER339      0.1924
     16  C         14.2170  -10.8860   34.2760 C.2   339  SER339      0.2314
     17  O         13.9710   -9.7320   33.9590 O.2   339  SER339     -0.2863
     18  CB        15.8430  -12.7520   33.8290 C.3   339  SER339      0.2116
     19  OG        16.8990  -13.4480   34.4780 O.3   339  SER339     -0.2180
     20  N         14.2340   -8.0520   36.8750 N.3   342  VAL342     -0.1231
     21  CA        14.9270   -6.8990   36.3340 C.3   342  VAL342      0.1692
     22  C         14.1740   -6.3340   35.1070 C.2   342  VAL342      0.2591
     23  O         14.0410   -5.1010   35.0190 O.2   342  VAL342     -0.2718
     24  CB        16.4180   -7.2310   36.0640 C.3   342  VAL342      0.0266
     25  CG1       16.9850   -6.4410   34.9060 C.3   342  VAL342      0.0020
     26  CG2       17.2250   -6.9920   37.2970 C.3   342  VAL342      0.0020
     27  N         13.6460   -7.2030   34.2140 N.am  343  ILE343     -0.1980
     28  CA        12.9470   -6.7380   32.9770 C.3   343  ILE343      0.1595
     29  C         11.4700   -6.3190   33.1520 C.2   343  ILE343      0.2287
     30  O         10.9260   -5.6290   32.3060 O.2   343  ILE343     -0.2864
     31  CB        13.0670   -7.7130   31.7380 C.3   343  ILE343      0.0276
     32  CG1       12.2870   -9.0280   31.9190 C.3   343  ILE343      0.0022
     33  CG2       14.5430   -7.9660   31.3130 C.3   343  ILE343      0.0022
     34  CD1       10.8590   -8.9820   31.4420 C.3   343  ILE343      0.0001
     35  N         10.4530   -4.3170   35.2070 N.3   345  SER345     -0.1202
     36  CA        10.5040   -2.8720   35.4330 C.3   345  SER345      0.2020
     37  C         11.0230   -2.1220   34.2310 C.2   345  SER345      0.2618
     38  O         10.5620   -1.0170   33.9610 O.2   345  SER345     -0.2717
     39  CB        11.3620   -2.5200   36.6390 C.3   345  SER345      0.2103
     40  OG        11.3320   -1.1050   36.8350 O.3   345  SER345     -0.2182
     41  N         12.0140   -2.7150   33.5500 N.am  346  LEU346     -0.1979
     42  CA        12.4770   -2.2680   32.2200 C.3   346  LEU346      0.1596
     43  C         11.3060   -2.1860   31.2080 C.2   346  LEU346      0.2287
     44  O         11.2180   -1.2450   30.4110 O.2   346  LEU346     -0.2864
     45  CB        13.5870   -3.2170   31.7160 C.3   346  LEU346      0.0297
     46  CG        14.6240   -2.7850   30.6690 C.3   346  LEU346      0.0022
     47  CD1       14.0660   -2.9070   29.2590 C.3   346  LEU346      0.0001
     48  CD2       15.1240   -1.3840   30.9320 C.3   346  LEU346      0.0001
     49  N          9.1230    0.7340   33.0900 N.3   349  GLN349     -0.1231
     50  CA         9.7370    2.0810   33.1440 C.3   349  GLN349      0.1698
     51  C          9.9780    2.6030   31.7660 C.2   349  GLN349      0.2592
     52  O         10.1250    3.7980   31.5910 O.2   349  GLN349     -0.2718
     53  CB        11.0710    2.0760   33.8700 C.3   349  GLN349      0.0381
     54  CG        11.0670    3.0040   35.0330 C.3   349  GLN349      0.0905
     55  CD        12.0450    2.5530   36.0930 C.2   349  GLN349      0.2608
     56  OE1       11.9480    1.4440   36.6410 O.2   349  GLN349     -0.2717
     57  NE2       13.0090    3.4150   36.3890 N.am  349  GLN349     -0.0878
     58  N         10.0490    1.6870   30.8010 N.am  350  HIS350     -0.1976
     59  CA        10.0790    2.0590   29.3940 C.3   350  HIS350      0.1656
     60  C          8.6790    2.2510   28.8460 C.2   350  HIS350      0.2291
     61  O          8.4790    3.0240   27.9470 O.2   350  HIS350     -0.2864
     62  CB        10.7810    0.9950   28.5630 C.3   350  HIS350      0.0771
     63  CG        12.2810    1.0450   28.6470 C.ar  350  HIS350      0.0820
     64  ND1       13.0480   -0.0680   28.9530 N.ar  350  HIS350     -0.2267
     65  CD2       13.1560    2.0710   28.4780 C.ar  350  HIS350      0.1154
     66  CE1       14.3330    0.2720   28.9560 C.ar  350  HIS350      0.1986
     67  NE2       14.4240    1.5670   28.6890 N.ar  350  HIS350     -0.2212
     68  N          6.5560    3.8830   29.8840 N.3   352  TYR352     -0.1227
     69  CA         6.2870    5.3470   29.9240 C.3   352  TYR352      0.1736
     70  C          7.4620    6.0410   29.2490 C.2   352  TYR352      0.2596
     71  O          8.5330    5.4430   29.0750 O.2   352  TYR352     -0.2718
     72  CB         6.0740    5.8920   31.3590 C.3   352  TYR352      0.0548
     73  CG         7.3330    6.5030   32.0060 C.ar  352  TYR352     -0.0200
     74  CD1        8.4140    5.7040   32.4030 C.ar  352  TYR352     -0.0009
     75  CD2        7.4370    7.8660   32.2250 C.ar  352  TYR352     -0.0009
     76  CE1        9.5540    6.2540   32.9790 C.ar  352  TYR352      0.0417
     77  CE2        8.5920    8.4150   32.8260 C.ar  352  TYR352      0.0417
     78  CZ         9.6330    7.6040   33.1910 C.ar  352  TYR352      0.1957
     79  OH        10.7650    8.1430   33.7650 O.3   352  TYR352     -0.2866
     80  N          7.2790    7.3130   28.9090 N.am  353  SER353     -0.1938
     81  CA         8.2410    7.9880   28.0560 C.3   353  SER353      0.2055
     82  C          8.3380    7.2670   26.6690 C.2   353  SER353      0.2642
     83  O          8.7010    7.8690   25.6510 O.2   353  SER353     -0.2714
     84  CB         9.5940    8.0880   28.7470 C.3   353  SER353      0.2130
     85  OG        10.0220    6.7970   29.0740 O.3   353  SER353     -0.2179
     86  N          7.9820    5.9880   26.6240 N.am  354  LEU354     -0.1977
     87  CA         7.8110    5.3360   25.3700 C.3   354  LEU354      0.1596
     88  C          6.5960    4.4330   25.4680 C.2   354  LEU354      0.2287
     89  O          6.7290    3.2200   25.3850 O.2   354  LEU354     -0.2864
     90  CB         9.0490    4.5180   25.0230 C.3   354  LEU354      0.0297
     91  CG        10.3200    5.1880   24.4840 C.3   354  LEU354      0.0022
     92  CD1        9.9270    6.3890   23.6490 C.3   354  LEU354      0.0001
     93  CD2       11.2740    5.6040   25.5670 C.3   354  LEU354      0.0001
     94  N          9.6570   12.8620   27.4390 N.3   507  LEU507     -0.1231
     95  CA        10.4240   11.6480   27.7450 C.3   507  LEU507      0.1693
     96  C         11.2700   11.9010   28.9770 C.2   507  LEU507      0.2592
     97  O         10.9860   11.3770   30.0740 O.2   507  LEU507     -0.2718
     98  CB        11.3370   11.2150   26.5820 C.3   507  LEU507      0.0284
     99  CG        10.8570   10.4240   25.3680 C.3   507  LEU507      0.0019
    100  CD1        9.3440   10.5210   25.1200 C.3   507  LEU507      0.0001
    101  CD2       11.6400   10.9200   24.1360 C.3   507  LEU507      0.0001
    102  N         12.3170   12.7080   28.8090 N.am  508  PHE508     -0.1976
    103  CA        13.2190   12.9800   29.9190 C.3   508  PHE508      0.1639
    104  C         12.7350   14.2800   30.6090 C.2   508  PHE508      0.2290
    105  O         12.6200   15.3470   29.9520 O.2   508  PHE508     -0.2864
    106  CB        14.7100   13.0910   29.4820 C.3   508  PHE508      0.0560
    107  CG        15.2280   11.9420   28.6140 C.ar  508  PHE508     -0.0200
    108  CD1       16.5110   11.4280   28.8260 C.ar  508  PHE508     -0.0042
    109  CD2       14.4780   11.4270   27.5670 C.ar  508  PHE508     -0.0042
    110  CE1       17.0350   10.4000   28.0320 C.ar  508  PHE508     -0.0003
    111  CE2       14.9850   10.3940   26.7640 C.ar  508  PHE508     -0.0003
    112  CZ        16.2700    9.8760   27.0000 C.ar  508  PHE508     -0.0000
@<TRIPOS>BOND
     1    92    91    1
     2   101    99    1
     3    91    90    1
     4    91    93    1
     5    90    87    1
     6   100    99    1
     7    99    98    1
     8    87    88    1
     9    87    86    1
    10    89    88    2
    11    83    82    2
    12    98    95    1
    13    86    82   am
    14    82    81    1
    15   111   112   ar
    16   111   109   ar
    17   112   110   ar
    18    94    95    1
    19   109   107   ar
    20    95    96    1
    21    61    60    2
    22   110   108   ar
    23    81    84    1
    24    81    80    1
    25    65    63   ar
    26    65    67   ar
    27    62    63    1
    28    62    59    1
    29   107   108   ar
    30   107   106    1
    31    63    64   ar
    32    67    66   ar
    33    84    85    1
    34   102    96   am
    35   102   103    1
    36    60    59    1
    37    80    70   am
    38    64    66   ar
    39    96    97    2
    40    71    70    2
    41    70    69    1
    42    47    46    1
    43    59    58    1
    44   106   103    1
    45    68    69    1
    46   103   104    1
    47    69    72    1
    48   105   104    2
    49    44    43    2
    50    46    48    1
    51    46    45    1
    52    58    51   am
    53    43    42    1
    54    33    31    1
    55    72    73    1
    56    34    32    1
    57    52    51    2
    58    45    42    1
    59    31    32    1
    60    31    28    1
    61    51    50    1
    62    73    75   ar
    63    73    74   ar
    64    42    41    1
    65    75    77   ar
    66    30    29    2
    67    74    76   ar
    68    77    78   ar
    69    28    29    1
    70    28    27    1
    71    76    78   ar
    72    49    50    1
    73    50    53    1
    74    78    79    1
    75    41    37   am
    76    18    15    1
    77    18    19    1
    78    53    54    1
    79    17    16    2
    80    38    37    2
    81    27    22   am
    82    37    36    1
    83    16    15    1
    84    15    14    1
    85    25    24    1
    86    23    22    2
    87    54    55    1
    88    22    21    1
    89    35    36    1
    90    36    39    1
    91     4     3    2
    92    14    11   am
    93    24    21    1
    94    24    26    1
    95    55    57   am
    96    55    56    2
    97    12    11    2
    98    21    20    1
    99     3     2    1
   100    11    10    1
   101    39    40    1
   102     8     6    1
   103     5     2    1
   104     5     6    1
   105     2     1    1
   106     7     6    1
   107    10     9    1
   108    10    13    1
