@<TRIPOS>MOLECULE
tmp/2wseF45.pdb
 90 90 0 0 0
SMALL
GASTEIGER

@<TRIPOS>ATOM
      1  N        -10.8300  -20.3110   76.6360 N.3   677  LEU677     -0.1245
      2  CA       -12.0010  -20.0400   75.8200 C.3   677  LEU677      0.1561
      3  C        -12.5880  -21.3190   75.2200 C.2   677  LEU677      0.2260
      4  O        -13.7540  -21.3220   74.7590 O.2   677  LEU677     -0.2867
      5  CB       -11.6800  -18.9970   74.7640 C.3   677  LEU677      0.0270
      6  CG       -12.7750  -17.9290   74.6580 C.3   677  LEU677      0.0019
      7  CD1      -13.0690  -17.2940   76.0010 C.3   677  LEU677      0.0001
      8  CD2      -12.3650  -16.8800   73.6170 C.3   677  LEU677      0.0001
      9  N        -12.7770  -23.8190   77.4000 N.3   679  TRP679     -0.1227
     10  CA       -13.3760  -24.4110   78.6060 C.3   679  TRP679      0.1737
     11  C        -14.8560  -23.9870   78.6490 C.2   679  TRP679      0.2595
     12  O        -15.6700  -24.6000   79.3550 O.2   679  TRP679     -0.2718
     13  CB       -12.6120  -24.0210   79.8710 C.3   679  TRP679      0.0564
     14  CG       -13.4210  -24.0560   81.1420 C.ar  679  TRP679      0.0003
     15  CD1      -13.4680  -25.0720   82.0420 C.ar  679  TRP679      0.0946
     16  CD2      -14.2710  -23.0090   81.6610 C.ar  679  TRP679      0.0152
     17  NE1      -14.2950  -24.7310   83.0970 N.ar  679  TRP679     -0.2442
     18  CE2      -14.8090  -23.4740   82.8800 C.ar  679  TRP679      0.0810
     19  CE3      -14.6460  -21.7300   81.2040 C.ar  679  TRP679      0.0012
     20  CZ2      -15.7080  -22.7100   83.6510 C.ar  679  TRP679      0.0191
     21  CZ3      -15.5360  -20.9600   81.9760 C.ar  679  TRP679      0.0001
     22  CH2      -16.0550  -21.4570   83.1870 C.ar  679  TRP679      0.0015
     23  N        -15.1890  -22.9480   77.8710 N.am  680  ALA680     -0.1966
     24  CA       -16.5910  -22.5620   77.6090 C.3   680  ALA680      0.1728
     25  C        -17.3230  -23.7780   77.0400 C.2   680  ALA680      0.2616
     26  O        -17.2930  -24.8290   77.6590 O.2   680  ALA680     -0.2715
     27  CB       -16.6530  -21.3670   76.6670 C.3   680  ALA680      0.0334
     28  N        -17.9390  -23.6640   75.8680 N.am  681  HIS681     -0.1973
     29  CA       -18.6580  -24.8060   75.2450 C.3   681  HIS681      0.1656
     30  C        -18.7740  -26.0870   76.0870 C.2   681  HIS681      0.2291
     31  O        -19.8630  -26.4770   76.5770 O.2   681  HIS681     -0.2864
     32  CB       -17.9900  -25.2040   73.9440 C.3   681  HIS681      0.0771
     33  CG       -17.1780  -24.1160   73.3430 C.ar  681  HIS681      0.0820
     34  ND1      -15.8210  -23.9740   73.5960 N.ar  681  HIS681     -0.2267
     35  CD2      -17.5200  -23.0980   72.5150 C.ar  681  HIS681      0.1154
     36  CE1      -15.3540  -22.9250   72.9340 C.ar  681  HIS681      0.1986
     37  NE2      -16.3660  -22.3720   72.2720 N.ar  681  HIS681     -0.2212
     38  N        -20.8060  -25.3020   79.0270 N.3   684  THR684     -0.1218
     39  CA       -21.9950  -24.4920   78.8720 C.3   684  THR684      0.1862
     40  C        -23.1200  -25.2320   78.1370 C.2   684  THR684      0.2287
     41  O        -22.8560  -25.9350   77.1560 O.2   684  THR684     -0.2866
     42  CB       -21.6030  -23.1580   78.2450 C.3   684  THR684      0.1770
     43  OG1      -21.4020  -22.2090   79.3030 O.3   684  THR684     -0.2211
     44  CG2      -22.6750  -22.6390   77.2540 C.3   684  THR684      0.0375
     45  N        -26.8700  -25.9040   76.0750 N.3   686  LEU686     -0.1231
     46  CA       -27.2850  -25.6050   74.6900 C.3   686  LEU686      0.1693
     47  C        -26.1130  -25.4560   73.7060 C.2   686  LEU686      0.2591
     48  O        -26.3030  -24.8890   72.6500 O.2   686  LEU686     -0.2718
     49  CB       -28.2730  -24.4130   74.6160 C.3   686  LEU686      0.0284
     50  CG       -29.5070  -24.4130   75.5440 C.3   686  LEU686      0.0019
     51  CD1      -30.3970  -23.2080   75.3270 C.3   686  LEU686      0.0001
     52  CD2      -30.3150  -25.6560   75.3750 C.3   686  LEU686      0.0001
     53  N        -24.9280  -25.9740   74.0800 N.am  687  ALA687     -0.1980
     54  CA       -23.6570  -25.9770   73.2850 C.3   687  ALA687      0.1597
     55  C        -22.6370  -27.0170   73.8490 C.2   687  ALA687      0.2287
     56  O        -21.4300  -26.7720   73.9240 O.2   687  ALA687     -0.2864
     57  CB       -23.0220  -24.5900   73.2520 C.3   687  ALA687      0.0319
     58  N        -21.9010  -31.4190   71.1340 N.3   690  ILE690     -0.1231
     59  CA       -21.4580  -30.6220   69.9690 C.3   690  ILE690      0.1692
     60  C        -19.9340  -30.5530   69.8600 C.2   690  ILE690      0.2592
     61  O        -19.2450  -29.7120   70.4500 O.2   690  ILE690     -0.2718
     62  CB       -22.1240  -29.1910   69.9160 C.3   690  ILE690      0.0266
     63  CG1      -23.5800  -29.2760   69.4080 C.3   690  ILE690      0.0019
     64  CG2      -21.3040  -28.2160   69.0660 C.3   690  ILE690      0.0020
     65  CD1      -23.7700  -28.9020   67.9540 C.3   690  ILE690      0.0001
     66  N        -19.4400  -31.4750   69.0560 N.am  691  ARG691     -0.1966
     67  CA       -18.0360  -31.7010   68.8980 C.3   691  ARG691      0.1729
     68  C        -17.5230  -30.9300   67.6670 C.2   691  ARG691      0.2616
     69  O        -18.2020  -30.9270   66.6200 O.2   691  ARG691     -0.2715
     70  CB       -17.7980  -33.2360   68.7960 C.3   691  ARG691      0.0348
     71  CG       -18.6790  -33.9990   67.7450 C.3   691  ARG691      0.0492
     72  CD       -18.2920  -35.5020   67.5910 C.3   691  ARG691      0.2205
     73  NE       -16.8580  -35.7600   67.8320 N.pl3 691  ARG691     -0.0865
     74  CZ       -15.8480  -35.2140   67.1300 C.cat 691  ARG691      0.5346
     75  NH1      -14.5600  -35.4770   67.4290 N.pl3 691  ARG691      0.1354
     76  NH2      -16.1060  -34.3740   66.1310 N.pl3 691  ARG691      0.1354
     77  N        -16.3750  -30.2340   67.8370 N.am  692  TRP692     -0.1974
     78  CA       -15.4850  -29.9000   66.7310 C.3   692  TRP692      0.1640
     79  C        -14.8630  -31.2100   66.2040 C.2   692  TRP692      0.2290
     80  O        -14.8090  -32.2480   66.8970 O.2   692  TRP692     -0.2864
     81  CB       -14.2570  -29.0780   67.1300 C.3   692  TRP692      0.0576
     82  CG       -14.3450  -28.0550   68.1780 C.ar  692  TRP692      0.0006
     83  CD1      -14.8360  -26.7810   68.0480 C.ar  692  TRP692      0.0946
     84  CD2      -13.8150  -28.1460   69.5100 C.ar  692  TRP692      0.0152
     85  NE1      -14.6890  -26.0860   69.2290 N.ar  692  TRP692     -0.2442
     86  CE2      -14.0630  -26.9040   70.1390 C.ar  692  TRP692      0.0810
     87  CE3      -13.1950  -29.1570   70.2320 C.ar  692  TRP692      0.0012
     88  CZ2      -13.7160  -26.6630   71.4420 C.ar  692  TRP692      0.0191
     89  CZ3      -12.8430  -28.9030   71.4990 C.ar  692  TRP692      0.0001
     90  CH2      -13.1060  -27.6730   72.1030 C.ar  692  TRP692      0.0015
@<TRIPOS>BOND
     1    76    74    1
     2    79    78    1
     3    79    80    2
     4    69    68    2
     5    78    81    1
     6    78    77    1
     7    74    75    1
     8    74    73    2
     9    81    82    1
    10    72    71    1
    11    72    73    1
    12    68    77   am
    13    68    67    1
    14    71    70    1
    15    65    63    1
    16    83    82   ar
    17    83    85   ar
    18    82    84   ar
    19    70    67    1
    20    67    66    1
    21    66    60   am
    22    64    62    1
    23    85    86   ar
    24    63    62    1
    25    84    86   ar
    26    84    87   ar
    27    60    59    1
    28    60    61    2
    29    62    59    1
    30    59    58    1
    31    86    88   ar
    32    87    89   ar
    33    88    90   ar
    34    89    90   ar
    35    37    35   ar
    36    37    36   ar
    37    35    33   ar
    38    48    47    2
    39    36    34   ar
    40    57    54    1
    41    54    55    1
    42    54    53    1
    43    33    34   ar
    44    33    32    1
    45     8     6    1
    46    47    53   am
    47    47    46    1
    48    55    56    2
    49    32    29    1
    50    49    46    1
    51    49    50    1
    52     6     5    1
    53     6     7    1
    54    46    45    1
    55     4     3    2
    56     5     2    1
    57     3     2    1
    58    29    28    1
    59    29    30    1
    60    51    50    1
    61    52    50    1
    62     2     1    1
    63    28    25   am
    64    30    31    2
    65    27    24    1
    66    25    24    1
    67    25    26    2
    68    41    40    2
    69    44    42    1
    70     9    10    1
    71    24    23    1
    72    23    11   am
    73    40    39    1
    74    42    39    1
    75    42    43    1
    76    10    11    1
    77    10    13    1
    78    11    12    2
    79    39    38    1
    80    13    14    1
    81    14    16   ar
    82    14    15   ar
    83    19    16   ar
    84    19    21   ar
    85    16    18   ar
    86    21    22   ar
    87    15    17   ar
    88    18    17   ar
    89    18    20   ar
    90    22    20   ar
