@<TRIPOS>MOLECULE
tmp/2wseP04.pdb
 77 76 0 0 0
SMALL
GASTEIGER

@<TRIPOS>ATOM
      1  N        -39.3070  -16.2480   65.9660 N.3    59  LEU59      -0.1231
      2  CA       -38.2870  -15.1940   66.2620 C.3    59  LEU59       0.1693
      3  C        -38.0320  -14.5020   64.9500 C.2    59  LEU59       0.2591
      4  O        -38.9570  -14.3240   64.1550 O.2    59  LEU59      -0.2718
      5  CB       -36.9370  -15.7600   66.7700 C.3    59  LEU59       0.0284
      6  CG       -35.8180  -14.8780   67.4230 C.3    59  LEU59       0.0019
      7  CD1      -34.4300  -15.3410   67.0630 C.3    59  LEU59       0.0001
      8  CD2      -35.8860  -13.4000   67.1590 C.3    59  LEU59       0.0001
      9  N        -36.7650  -14.1550   64.6920 N.am   60  LEU60      -0.1980
     10  CA       -36.3430  -13.6070   63.4000 C.3    60  LEU60       0.1596
     11  C        -37.5460  -13.1530   62.5810 C.2    60  LEU60       0.2287
     12  O        -37.8300  -13.7270   61.5180 O.2    60  LEU60      -0.2864
     13  CB       -35.5600  -14.6530   62.5980 C.3    60  LEU60       0.0297
     14  CG       -34.3820  -15.4280   63.1980 C.3    60  LEU60       0.0022
     15  CD1      -34.4430  -16.8890   62.7070 C.3    60  LEU60       0.0001
     16  CD2      -33.0620  -14.7160   62.8650 C.3    60  LEU60       0.0001
     17  N        -36.7920   -8.6480   63.9270 N.3    63  PRO63      -0.2102
     18  CA       -35.3660   -8.5160   63.6160 C.3    63  PRO63       0.1504
     19  C        -35.1050   -8.2510   62.1450 C.2    63  PRO63       0.2575
     20  O        -34.3540   -7.3390   61.8210 O.2    63  PRO63      -0.2718
     21  CB       -34.7720   -9.8640   64.0650 C.3    63  PRO63       0.0282
     22  CG       -35.8950  -10.7600   64.1320 C.3    63  PRO63       0.0208
     23  CD       -37.0550   -9.9520   64.5640 C.3    63  PRO63       0.0893
     24  N        -35.7070   -9.0320   61.2570 N.am   64  PHE64      -0.1977
     25  CA       -35.6830   -8.6490   59.8490 C.3    64  PHE64       0.1639
     26  C        -37.0850   -8.4140   59.1880 C.2    64  PHE64       0.2290
     27  O        -37.4300   -9.0480   58.1690 O.2    64  PHE64      -0.2864
     28  CB       -34.5290   -9.3020   58.9830 C.3    64  PHE64       0.0560
     29  CG       -34.3310  -10.8250   59.1320 C.ar   64  PHE64      -0.0200
     30  CD1      -34.9290  -11.5740   60.1400 C.ar   64  PHE64      -0.0042
     31  CD2      -33.4770  -11.4940   58.2440 C.ar   64  PHE64      -0.0042
     32  CE1      -34.6930  -12.9680   60.2380 C.ar   64  PHE64      -0.0003
     33  CE2      -33.2510  -12.8820   58.3270 C.ar   64  PHE64      -0.0003
     34  CZ       -33.8570  -13.6140   59.3220 C.ar   64  PHE64      -0.0000
     35  N        -36.2350   -4.3780   61.7680 N.3    67  ALA67      -0.1231
     36  CA       -34.8850   -3.8540   61.4770 C.3    67  ALA67       0.1694
     37  C        -34.3600   -4.1460   60.0370 C.2    67  ALA67       0.2593
     38  O        -33.1740   -3.9180   59.7040 O.2    67  ALA67      -0.2718
     39  CB       -33.8850   -4.2970   62.5330 C.3    67  ALA67       0.0304
     40  N        -35.2820   -4.6500   59.2070 N.am   68  GLY68      -0.1943
     41  CA       -35.0680   -4.8690   57.7820 C.3    68  GLY68       0.1998
     42  C        -34.3660   -3.7330   57.0480 C.2    68  GLY68       0.2481
     43  O        -34.3870   -2.5860   57.5120 O.2    68  GLY68      -0.2729
     44  N        -33.8130   -4.0440   55.8500 N.am   69  PRO69      -0.2715
     45  CA       -32.6450   -3.3510   55.2860 C.3    69  PRO69       0.1536
     46  C        -33.0280   -1.9370   54.8590 C.2    69  PRO69       0.2598
     47  O        -32.2740   -0.9670   55.0980 O.2    69  PRO69      -0.2715
     48  CB       -32.2400   -4.2370   54.1030 C.3    69  PRO69       0.0310
     49  CG       -33.4580   -4.8800   53.7030 C.3    69  PRO69       0.0237
     50  CD       -34.3480   -5.0420   54.9060 C.3    69  PRO69       0.0939
     51  N        -34.2010   -1.8250   54.2440 N.am   70  LEU70      -0.1964
     52  CA       -34.9050   -0.5650   54.2500 C.3    70  LEU70       0.1728
     53  C        -36.1550   -0.9340   55.0480 C.2    70  LEU70       0.2616
     54  O        -37.0110   -1.6600   54.5420 O.2    70  LEU70      -0.2715
     55  CB       -35.1970   -0.1240   52.8190 C.3    70  LEU70       0.0311
     56  CG       -34.0770    0.3850   51.8550 C.3    70  LEU70       0.0022
     57  CD1      -32.6030    0.0590   52.1920 C.3    70  LEU70       0.0001
     58  CD2      -34.3800   -0.0890   50.4290 C.3    70  LEU70       0.0001
     59  N        -36.2190   -0.4950   56.3130 N.am   71  ARG71      -0.1977
     60  CA       -37.1570   -1.0260   57.3500 C.3    71  ARG71       0.1597
     61  C        -38.6880   -0.8050   57.1720 C.2    71  ARG71       0.2287
     62  O        -39.2130   -0.9170   56.0770 O.2    71  ARG71      -0.2864
     63  CB       -36.7190   -0.5440   58.7450 C.3    71  ARG71       0.0334
     64  CG       -36.5560    0.9940   58.8510 C.3    71  ARG71       0.0492
     65  CD       -36.0870    1.4550   60.2150 C.3    71  ARG71       0.2205
     66  NE       -37.2180    1.6080   61.1330 N.pl3  71  ARG71      -0.0865
     67  CZ       -37.1030    1.8480   62.4320 C.cat  71  ARG71       0.5346
     68  NH1      -38.2010    1.9630   63.1710 N.pl3  71  ARG71       0.1354
     69  NH2      -35.8980    1.9600   62.9930 N.pl3  71  ARG71       0.1354
     70  N        -33.1480  -17.8620   56.5320 N.3    87  LEU87      -0.1245
     71  CA       -32.2110  -18.1660   57.6230 C.3    87  LEU87       0.1561
     72  C        -32.3770  -19.6230   57.9680 C.2    87  LEU87       0.2260
     73  O        -31.4340  -20.4100   57.7450 O.2    87  LEU87      -0.2867
     74  CB       -32.3700  -17.2630   58.8630 C.3    87  LEU87       0.0270
     75  CG       -31.0190  -16.7860   59.4790 C.3    87  LEU87       0.0019
     76  CD1      -30.3520  -15.6870   58.6380 C.3    87  LEU87       0.0001
     77  CD2      -31.1090  -16.2810   60.9130 C.3    87  LEU87       0.0001
@<TRIPOS>BOND
     1    58    56    1
     2    56    57    1
     3    56    55    1
     4    55    52    1
     5    49    48    1
     6    49    50    1
     7    48    45    1
     8    51    52    1
     9    51    46   am
    10    52    53    1
    11    54    53    2
    12    46    47    2
    13    46    45    1
    14    50    44    1
    15    53    59   am
    16    45    44    1
    17    44    42   am
    18    62    61    2
    19    59    60    1
    20    70    71    1
    21    42    43    2
    22    42    41    1
    23    61    60    1
    24    60    63    1
    25    71    72    1
    26    71    74    1
    27    73    72    2
    28    41    40    1
    29    27    26    2
    30    31    33   ar
    31    31    29   ar
    32    33    34   ar
    33    76    75    1
    34    63    64    1
    35    64    65    1
    36    74    75    1
    37    28    29    1
    38    28    25    1
    39    29    30   ar
    40    26    25    1
    41    40    37   am
    42    34    32   ar
    43    75    77    1
    44    38    37    2
    45    25    24    1
    46    37    36    1
    47    30    32   ar
    48    65    66    1
    49    66    67    2
    50    24    19   am
    51    36    35    1
    52    36    39    1
    53    12    11    2
    54    20    19    2
    55    19    18    1
    56    67    69    1
    57    67    68    1
    58    11    10    1
    59    13    14    1
    60    13    10    1
    61    15    14    1
    62    16    14    1
    63    10     9    1
    64    18    17    1
    65    18    21    1
    66    17    23    1
    67    21    22    1
    68    22    23    1
    69     4     3    2
    70     9     3   am
    71     3     2    1
    72     1     2    1
    73     2     5    1
    74     5     6    1
    75     7     6    1
    76     8     6    1
