@<TRIPOS>MOLECULE
tmp/2wseF28.pdb
 121 119 0 0 0
SMALL
GASTEIGER

@<TRIPOS>ATOM
      1  N         15.3320  -14.1530   44.8080 N.3   386  PHE386     -0.1241
      2  CA        16.4030  -14.1500   45.7750 C.3   386  PHE386      0.1605
      3  C         16.0800  -15.1990   46.7860 C.2   386  PHE386      0.2264
      4  O         16.9640  -15.5910   47.5460 O.2   386  PHE386     -0.2867
      5  CB        16.4310  -12.8040   46.4740 C.3   386  PHE386      0.0534
      6  CG        17.5760  -11.9360   46.0860 C.ar  386  PHE386     -0.0203
      7  CD1       18.8850  -12.4120   46.1680 C.ar  386  PHE386     -0.0042
      8  CD2       17.3530  -10.6060   45.6870 C.ar  386  PHE386     -0.0042
      9  CE1       19.9480  -11.5900   45.8370 C.ar  386  PHE386     -0.0003
     10  CE2       18.3990   -9.7650   45.3800 C.ar  386  PHE386     -0.0003
     11  CZ        19.6980  -10.2630   45.4500 C.ar  386  PHE386     -0.0000
     12  N         31.0210  -10.2620   51.8800 N.3   417  ILE417     -0.1245
     13  CA        29.9380   -9.9260   50.9460 C.3   417  ILE417      0.1561
     14  C         28.7760   -9.1450   51.6210 C.2   417  ILE417      0.2260
     15  O         28.4420   -8.0480   51.1620 O.2   417  ILE417     -0.2867
     16  CB        29.5020  -11.1300   50.0280 C.3   417  ILE417      0.0252
     17  CG1       29.7670  -10.7600   48.5780 C.3   417  ILE417      0.0019
     18  CG2       28.0090  -11.5420   50.2420 C.3   417  ILE417      0.0019
     19  CD1       29.0270  -11.6390   47.6490 C.3   417  ILE417      0.0001
     20  N         30.5770   -5.0630   53.0210 N.3   420  HIS420     -0.1226
     21  CA        30.6600   -4.3050   51.7650 C.3   420  HIS420      0.1752
     22  C         29.3220   -4.2140   50.9940 C.2   420  HIS420      0.2595
     23  O         29.2670   -3.6580   49.8800 O.2   420  HIS420     -0.2718
     24  CB        31.7270   -4.9200   50.8840 C.3   420  HIS420      0.0759
     25  CG        33.1050   -4.6200   51.3550 C.ar  420  HIS420      0.0818
     26  ND1       33.6850   -5.2840   52.4100 N.ar  420  HIS420     -0.2268
     27  CD2       34.0020   -3.6810   50.9640 C.ar  420  HIS420      0.1154
     28  CE1       34.9010   -4.7930   52.6250 C.ar  420  HIS420      0.1986
     29  NE2       35.1170   -3.8210   51.7580 N.ar  420  HIS420     -0.2212
     30  N         28.2700   -4.8000   51.5860 N.am  421  LEU421     -0.1980
     31  CA        26.8950   -4.5180   51.2080 C.3   421  LEU421      0.1596
     32  C         26.3840   -3.6210   52.2680 C.2   421  LEU421      0.2287
     33  O         25.9020   -2.5510   51.9430 O.2   421  LEU421     -0.2864
     34  CB        26.0270   -5.7800   51.1600 C.3   421  LEU421      0.0297
     35  CG        25.8440   -6.4920   49.8250 C.3   421  LEU421      0.0022
     36  CD1       25.8090   -7.9900   50.0610 C.3   421  LEU421      0.0001
     37  CD2       24.5560   -6.0360   49.2750 C.3   421  LEU421      0.0001
     38  N         27.8710   -1.7500   54.3460 N.3   423  TRP423     -0.1227
     39  CA        28.5670   -0.4750   54.3340 C.3   423  TRP423      0.1737
     40  C         27.9460    0.4970   53.3180 C.2   423  TRP423      0.2595
     41  O         28.0420    1.7310   53.4860 O.2   423  TRP423     -0.2718
     42  CB        30.0670   -0.6560   54.0570 C.3   423  TRP423      0.0564
     43  CG        30.6550    0.6110   53.6680 C.ar  423  TRP423      0.0003
     44  CD1       31.2000    1.5390   54.4880 C.ar  423  TRP423      0.0946
     45  CD2       30.6950    1.1620   52.3470 C.ar  423  TRP423      0.0152
     46  NE1       31.5980    2.6350   53.7730 N.ar  423  TRP423     -0.2442
     47  CE2       31.2960    2.4360   52.4510 C.ar  423  TRP423      0.0810
     48  CE3       30.2670    0.7030   51.0830 C.ar  423  TRP423      0.0012
     49  CZ2       31.5000    3.2700   51.3320 C.ar  423  TRP423      0.0191
     50  CZ3       30.4720    1.5140   49.9800 C.ar  423  TRP423      0.0001
     51  CH2       31.0880    2.7880   50.1100 C.ar  423  TRP423      0.0015
     52  N         27.3420   -0.0440   52.2560 N.am  424  ALA424     -0.1980
     53  CA        26.6240    0.7880   51.2860 C.3   424  ALA424      0.1597
     54  C         25.4280    1.4170   51.9490 C.2   424  ALA424      0.2287
     55  O         25.2740    2.6360   51.9190 O.2   424  ALA424     -0.2864
     56  CB        26.1740   -0.0310   50.0980 C.3   424  ALA424      0.0319
     57  N         16.3020    9.5500   44.2290 N.3   519  HIS519     -0.1226
     58  CA        17.2670    8.7770   43.4350 C.3   519  HIS519      0.1752
     59  C         18.4490    8.2370   44.2430 C.2   519  HIS519      0.2596
     60  O         19.1610    7.3590   43.7710 O.2   519  HIS519     -0.2718
     61  CB        17.8220    9.6240   42.2690 C.3   519  HIS519      0.0759
     62  CG        17.1900    9.3230   40.9420 C.ar  519  HIS519      0.0818
     63  ND1       16.0720    9.9980   40.4790 N.ar  519  HIS519     -0.2268
     64  CD2       17.5300    8.4280   39.9790 C.ar  519  HIS519      0.1154
     65  CE1       15.7380    9.5170   39.2950 C.ar  519  HIS519      0.1986
     66  NE2       16.6110    8.5670   38.9660 N.ar  519  HIS519     -0.2212
     67  N         18.6830    8.7620   45.4350 N.am  520  HIS520     -0.1975
     68  CA        19.6520    8.1190   46.3160 C.3   520  HIS520      0.1656
     69  C         18.9490    7.2750   47.3800 C.2   520  HIS520      0.2291
     70  O         19.5820    6.4760   48.0830 O.2   520  HIS520     -0.2864
     71  CB        20.6230    9.1480   46.8930 C.3   520  HIS520      0.0771
     72  CG        21.8540    9.3510   46.0460 C.ar  520  HIS520      0.0820
     73  ND1       21.9350    8.8980   44.7470 N.ar  520  HIS520     -0.2267
     74  CD2       23.0520    9.9470   46.3100 C.ar  520  HIS520      0.1154
     75  CE1       23.1200    9.2170   44.2510 C.ar  520  HIS520      0.1986
     76  NE2       23.8230    9.8420   45.1790 N.ar  520  HIS520     -0.2212
     77  N         15.9490    5.4440   46.4810 N.3   522  ILE522     -0.1231
     78  CA        15.6440    4.1920   45.7750 C.3   522  ILE522      0.1692
     79  C         16.9340    3.3620   45.7810 C.2   522  ILE522      0.2591
     80  O         16.8680    2.1410   45.7120 O.2   522  ILE522     -0.2718
     81  CB        15.2340    4.4130   44.2810 C.3   522  ILE522      0.0266
     82  CG1       14.1300    5.4760   44.1270 C.3   522  ILE522      0.0019
     83  CG2       14.8010    3.0880   43.6200 C.3   522  ILE522      0.0020
     84  CD1       13.9410    6.0030   42.7150 C.3   522  ILE522      0.0001
     85  N         18.0970    4.0350   45.8560 N.am  523  ALA523     -0.1980
     86  CA        19.4090    3.3500   45.9060 C.3   523  ALA523      0.1597
     87  C         19.7410    2.7690   47.2890 C.2   523  ALA523      0.2287
     88  O         20.3440    1.6750   47.3870 O.2   523  ALA523     -0.2864
     89  CB        20.5260    4.2440   45.4110 C.3   523  ALA523      0.0319
     90  N         17.0710   -1.0960   47.2630 N.3   526  LEU526     -0.1231
     91  CA        17.7740   -2.2780   46.6820 C.3   526  LEU526      0.1693
     92  C         19.3060   -2.2770   46.9480 C.2   526  LEU526      0.2592
     93  O         20.1080   -1.8130   46.1220 O.2   526  LEU526     -0.2718
     94  CB        17.4820   -2.4600   45.1790 C.3   526  LEU526      0.0284
     95  CG        17.3050   -1.2750   44.2260 C.3   526  LEU526      0.0019
     96  CD1       15.8560   -0.7980   44.2220 C.3   526  LEU526      0.0001
     97  CD2       18.2680   -0.1330   44.5650 C.3   526  LEU526      0.0001
     98  N         19.6760   -2.8150   48.1140 N.am  527  HIS527     -0.1976
     99  CA        20.9900   -2.6200   48.7560 C.3   527  HIS527      0.1656
    100  C         20.7990   -3.0990   50.1680 C.2   527  HIS527      0.2291
    101  O         21.4280   -4.0620   50.6200 O.2   527  HIS527     -0.2864
    102  CB        21.4220   -1.1240   48.7900 C.3   527  HIS527      0.0771
    103  CG        22.6170   -0.8210   47.9330 C.ar  527  HIS527      0.0820
    104  ND1       23.5950   -1.7650   47.6500 N.ar  527  HIS527     -0.2267
    105  CD2       23.0050    0.3140   47.3100 C.ar  527  HIS527      0.1154
    106  CE1       24.5290   -1.2250   46.8850 C.ar  527  HIS527      0.1986
    107  NE2       24.1930    0.0370   46.6610 N.ar  527  HIS527     -0.2212
    108  N         18.6570   -6.1500   49.8680 N.3   530  THR530     -0.1218
    109  CA        19.4090   -7.2340   49.3030 C.3   530  THR530      0.1862
    110  C         20.5510   -7.6520   50.2170 C.2   530  THR530      0.2287
    111  O         21.0420   -8.7740   50.0900 O.2   530  THR530     -0.2866
    112  CB        19.9440   -6.8450   47.9080 C.3   530  THR530      0.1770
    113  OG1       21.1890   -6.1520   48.0400 O.3   530  THR530     -0.2211
    114  CG2       18.9340   -5.9320   47.1840 C.3   530  THR530      0.0375
    115  N         20.6000  -11.2270   49.9420 N.3   534  VAL534     -0.1245
    116  CA        21.9970  -11.7620   49.9090 C.3   534  VAL534      0.1561
    117  C         22.3500  -12.5590   51.1800 C.2   534  VAL534      0.2260
    118  O         22.6770  -13.7520   51.1120 O.2   534  VAL534     -0.2867
    119  CB        23.0990  -10.6750   49.6560 C.3   534  VAL534      0.0252
    120  CG1       23.2550   -9.8070   50.8050 C.3   534  VAL534      0.0019
    121  CG2       24.4410  -11.3190   49.5300 C.3   534  VAL534      0.0019
@<TRIPOS>BOND
     1    66    65   ar
     2    66    64   ar
     3    65    63   ar
     4    64    62   ar
     5    63    62   ar
     6    62    61    1
     7    61    58    1
     8    84    82    1
     9    58    57    1
    10    58    59    1
    11    83    81    1
    12    60    59    2
    13    82    81    1
    14    96    95    1
    15    95    97    1
    16    95    94    1
    17    59    67   am
    18    75    73   ar
    19    75    76   ar
    20    81    78    1
    21    73    72   ar
    22     1     2    1
    23    94    91    1
    24    76    74   ar
    25    10    11   ar
    26    10     8   ar
    27    89    86    1
    28    67    68    1
    29    11     9   ar
    30     8     6   ar
    31    80    79    2
    32    78    79    1
    33    78    77    1
    34     2     5    1
    35     2     3    1
    36    79    85   am
    37     9     7   ar
    38    85    86    1
    39    86    87    1
    40    72    74   ar
    41    72    71    1
    42     6     7   ar
    43     6     5    1
    44    93    92    2
    45    68    71    1
    46    68    69    1
    47   107   106   ar
    48   107   105   ar
    49    91    92    1
    50    91    90    1
    51     3     4    2
    52   106   104   ar
    53    92    98   am
    54   114   112    1
    55    87    88    2
    56   105   103   ar
    57    69    70    2
    58    19    17    1
    59   104   103   ar
    60   112   113    1
    61   112   109    1
    62   103   102    1
    63    98    99    1
    64    17    16    1
    65    99   102    1
    66    99   100    1
    67    37    35    1
    68   109   108    1
    69   109   110    1
    70   121   119    1
    71   119   116    1
    72   119   120    1
    73    35    36    1
    74    35    34    1
    75    23    22    2
    76   116   115    1
    77   116   117    1
    78    50    51   ar
    79    50    48   ar
    80    16    18    1
    81    16    13    1
    82   111   110    2
    83    56    53    1
    84    51    49   ar
    85   100   101    2
    86    24    25    1
    87    24    21    1
    88    13    14    1
    89    13    12    1
    90    27    25   ar
    91    27    29   ar
    92    22    30   am
    93    22    21    1
    94    48    45   ar
    95   118   117    2
    96    34    31    1
    97    15    14    2
    98    31    30    1
    99    31    32    1
   100    53    54    1
   101    53    52    1
   102    49    47   ar
   103    25    26   ar
   104    29    28   ar
   105    21    20    1
   106    55    54    2
   107    33    32    2
   108    52    40   am
   109    45    47   ar
   110    45    43   ar
   111    26    28   ar
   112    47    46   ar
   113    40    41    2
   114    40    39    1
   115    43    42    1
   116    43    44   ar
   117    46    44   ar
   118    42    39    1
   119    39    38    1
