@<TRIPOS>MOLECULE
tmp/2wseF11.pdb
 80 78 0 0 0
SMALL
GASTEIGER

@<TRIPOS>ATOM
      1  N         19.0700  -16.7920   14.8150 N.3   285  ILE285     -0.1231
      2  CA        20.5140  -16.9550   14.5760 C.3   285  ILE285      0.1692
      3  C         21.1300  -17.4620   15.8370 C.2   285  ILE285      0.2592
      4  O         22.0720  -18.2380   15.8170 O.2   285  ILE285     -0.2718
      5  CB        21.2270  -15.6430   14.1590 C.3   285  ILE285      0.0266
      6  CG1       20.4960  -14.9670   12.9970 C.3   285  ILE285      0.0019
      7  CG2       22.6620  -15.9240   13.6920 C.3   285  ILE285      0.0020
      8  CD1       21.0460  -13.5900   12.5870 C.3   285  ILE285      0.0001
      9  N         20.5610  -17.0040   16.9400 N.am  286  GLY286     -0.1957
     10  CA        20.8840  -17.4870   18.2780 C.3   286  GLY286      0.1869
     11  C         20.4100  -18.9120   18.4790 C.2   286  GLY286      0.2309
     12  O         21.2330  -19.8060   18.7100 O.2   286  GLY286     -0.2863
     13  N         19.6150  -22.4660   17.3290 N.3   288  LEU288     -0.1231
     14  CA        20.7480  -23.0530   16.5890 C.3   288  LEU288      0.1693
     15  C         21.9800  -22.3540   17.1690 C.2   288  LEU288      0.2591
     16  O         22.4360  -21.3290   16.6400 O.2   288  LEU288     -0.2718
     17  CB        20.6780  -22.8060   15.0740 C.3   288  LEU288      0.0284
     18  CG        19.5180  -23.1760   14.1170 C.3   288  LEU288      0.0019
     19  CD1       18.5150  -22.0440   13.8420 C.3   288  LEU288      0.0001
     20  CD2       20.1610  -23.5280   12.8560 C.3   288  LEU288      0.0001
     21  N         22.4260  -22.8640   18.3280 N.am  289  MET289     -0.1979
     22  CA        23.6870  -22.4720   19.0460 C.3   289  MET289      0.1605
     23  C         24.2320  -23.6710   19.8280 C.2   289  MET289      0.2287
     24  O         25.4290  -23.7260   20.2010 O.2   289  MET289     -0.2864
     25  CB        23.5390  -21.2650   20.0110 C.3   289  MET289      0.0413
     26  CG        24.9170  -20.8710   20.6150 C.3   289  MET289      0.0598
     27  SD        25.0310  -19.9640   22.1850 S.3   289  MET289     -0.1393
     28  CE        26.8080  -19.6960   22.3210 C.3   289  MET289      0.0692
     29  N         26.3720  -30.4660   15.1970 N.3   296  ILE296     -0.1231
     30  CA        27.0240  -29.1780   15.0070 C.3   296  ILE296      0.1692
     31  C         27.1170  -28.5190   16.3490 C.2   296  ILE296      0.2593
     32  O         26.9760  -29.1790   17.3820 O.2   296  ILE296     -0.2718
     33  CB        26.2400  -28.2270   14.0810 C.3   296  ILE296      0.0266
     34  CG1       24.7800  -28.7110   13.8920 C.3   296  ILE296      0.0019
     35  CG2       27.0050  -28.0850   12.7520 C.3   296  ILE296      0.0020
     36  CD1       23.7770  -27.6240   13.7520 C.3   296  ILE296      0.0001
     37  N         27.3650  -27.2120   16.3410 N.am  297  GLY297     -0.1942
     38  CA        27.3280  -26.4250   17.5650 C.3   297  GLY297      0.2014
     39  C         27.9740  -27.0020   18.8190 C.2   297  GLY297      0.2638
     40  O         29.0890  -27.5590   18.7700 O.2   297  GLY297     -0.2714
     41  N         27.2380  -26.8890   19.9290 N.am  298  HIS298     -0.1973
     42  CA        27.8490  -26.7950   21.2540 C.3   298  HIS298      0.1656
     43  C         27.3220  -27.7060   22.3470 C.2   298  HIS298      0.2291
     44  O         26.1070  -27.9840   22.4240 O.2   298  HIS298     -0.2864
     45  CB        27.7040  -25.3670   21.7620 C.3   298  HIS298      0.0771
     46  CG        28.9970  -24.6000   21.7710 C.ar  298  HIS298      0.0820
     47  ND1       29.0620  -23.2400   21.5080 N.ar  298  HIS298     -0.2267
     48  CD2       30.2750  -24.9990   22.0150 C.ar  298  HIS298      0.1154
     49  CE1       30.3210  -22.8320   21.5950 C.ar  298  HIS298      0.1986
     50  NE2       31.0790  -23.8800   21.8980 N.ar  298  HIS298     -0.2212
     51  N         32.1930  -27.6080   28.7070 N.3   302  TYR302     -0.1227
     52  CA        33.2770  -27.6390   27.7280 C.3   302  TYR302      0.1736
     53  C         33.3970  -26.2420   27.1440 C.2   302  TYR302      0.2595
     54  O         34.3290  -25.9770   26.3480 O.2   302  TYR302     -0.2718
     55  CB        32.9700  -28.6140   26.5880 C.3   302  TYR302      0.0548
     56  CG        33.6070  -30.0100   26.6410 C.ar  302  TYR302     -0.0200
     57  CD1       33.1660  -30.9750   27.5520 C.ar  302  TYR302     -0.0009
     58  CD2       34.6060  -30.3870   25.7330 C.ar  302  TYR302     -0.0009
     59  CE1       33.7260  -32.2470   27.5780 C.ar  302  TYR302      0.0417
     60  CE2       35.1650  -31.6500   25.7550 C.ar  302  TYR302      0.0417
     61  CZ        34.7210  -32.5800   26.6800 C.ar  302  TYR302      0.1957
     62  OH        35.2730  -33.8570   26.7270 O.3   302  TYR302     -0.2866
     63  N         32.4230  -25.3710   27.4950 N.am  303  ILE303     -0.1980
     64  CA        32.5230  -23.8990   27.2910 C.3   303  ILE303      0.1595
     65  C         32.0930  -23.1510   28.5530 C.2   303  ILE303      0.2287
     66  O         31.9950  -21.9130   28.5920 O.2   303  ILE303     -0.2864
     67  CB        31.7530  -23.3710   26.0600 C.3   303  ILE303      0.0276
     68  CG1       30.2250  -23.5380   26.2300 C.3   303  ILE303      0.0022
     69  CG2       32.2790  -24.0360   24.7940 C.3   303  ILE303      0.0022
     70  CD1       29.4230  -23.0900   25.0160 C.3   303  ILE303      0.0001
     71  N         36.4150  -23.1070   30.4270 N.3   307  HIS307     -0.1241
     72  CA        36.2260  -21.8250   29.7300 C.3   307  HIS307      0.1621
     73  C         36.9510  -20.7560   30.5170 C.2   307  HIS307      0.2264
     74  O         38.1790  -20.6510   30.4320 O.2   307  HIS307     -0.2867
     75  CB        34.7420  -21.3990   29.5930 C.3   307  HIS307      0.0745
     76  CG        34.5600  -20.1820   28.7210 C.ar  307  HIS307      0.0817
     77  ND1       34.9690  -18.9180   29.1090 N.ar  307  HIS307     -0.2268
     78  CD2       34.0720  -20.0460   27.4620 C.ar  307  HIS307      0.1154
     79  CE1       34.7290  -18.0540   28.1370 C.ar  307  HIS307      0.1986
     80  NE2       34.1850  -18.7110   27.1280 N.ar  307  HIS307     -0.2212
@<TRIPOS>BOND
     1     8     6    1
     2    35    33    1
     3    20    18    1
     4     6     5    1
     5     7     5    1
     6    36    34    1
     7    19    18    1
     8    34    33    1
     9    33    30    1
    10    18    17    1
    11     5     2    1
    12     2     1    1
    13     2     3    1
    14    30    29    1
    15    30    31    1
    16    17    14    1
    17     4     3    2
    18     3     9   am
    19    37    31   am
    20    37    38    1
    21    31    32    2
    22    14    15    1
    23    14    13    1
    24    16    15    2
    25     9    10    1
    26    15    21   am
    27    38    39    1
    28    10    11    1
    29    21    22    1
    30    11    12    2
    31    40    39    2
    32    39    41   am
    33    22    23    1
    34    22    25    1
    35    23    24    2
    36    41    42    1
    37    25    26    1
    38    26    27    1
    39    42    45    1
    40    42    43    1
    41    47    49   ar
    42    47    46   ar
    43    49    50   ar
    44    45    46    1
    45    46    48   ar
    46    50    48   ar
    47    27    28    1
    48    43    44    2
    49    69    67    1
    50    70    68    1
    51    58    60   ar
    52    58    56   ar
    53    60    61   ar
    54    67    68    1
    55    67    64    1
    56    54    53    2
    57    55    56    1
    58    55    52    1
    59    56    57   ar
    60    61    62    1
    61    61    59   ar
    62    80    78   ar
    63    80    79   ar
    64    53    63   am
    65    53    52    1
    66    64    63    1
    67    64    65    1
    68    78    76   ar
    69    57    59   ar
    70    52    51    1
    71    79    77   ar
    72    65    66    2
    73    76    77   ar
    74    76    75    1
    75    75    72    1
    76    72    71    1
    77    72    73    1
    78    74    73    2
