@<TRIPOS>MOLECULE
tmp/2wseF13.pdb
 116 112 0 0 0
SMALL
GASTEIGER

@<TRIPOS>ATOM
      1  N         32.4230  -25.3710   27.4950 N.3   303  ILE303     -0.1231
      2  CA        32.5230  -23.8990   27.2910 C.3   303  ILE303      0.1692
      3  C         32.0930  -23.1510   28.5530 C.2   303  ILE303      0.2591
      4  O         31.9950  -21.9130   28.5920 O.2   303  ILE303     -0.2718
      5  CB        31.7530  -23.3710   26.0600 C.3   303  ILE303      0.0266
      6  CG1       30.2250  -23.5380   26.2300 C.3   303  ILE303      0.0019
      7  CG2       32.2790  -24.0360   24.7940 C.3   303  ILE303      0.0020
      8  CD1       29.4230  -23.0900   25.0160 C.3   303  ILE303      0.0001
      9  N         31.7940  -23.9420   29.5760 N.am  304  LEU304     -0.1980
     10  CA        32.0650  -23.5280   30.9310 C.3   304  LEU304      0.1596
     11  C         33.3160  -24.3840   31.2090 C.2   304  LEU304      0.2287
     12  O         34.4030  -24.0800   30.6850 O.2   304  LEU304     -0.2864
     13  CB        30.8810  -23.8040   31.8840 C.3   304  LEU304      0.0297
     14  CG        29.4070  -23.5630   31.4570 C.3   304  LEU304      0.0022
     15  CD1       28.4880  -23.4410   32.6410 C.3   304  LEU304      0.0001
     16  CD2       29.2090  -22.3490   30.5730 C.3   304  LEU304      0.0001
     17  N         36.4150  -23.1070   30.4270 N.3   307  HIS307     -0.1226
     18  CA        36.2260  -21.8250   29.7300 C.3   307  HIS307      0.1752
     19  C         36.9510  -20.7560   30.5170 C.2   307  HIS307      0.2596
     20  O         38.1790  -20.6510   30.4320 O.2   307  HIS307     -0.2718
     21  CB        34.7420  -21.3990   29.5930 C.3   307  HIS307      0.0759
     22  CG        34.5600  -20.1820   28.7210 C.ar  307  HIS307      0.0818
     23  ND1       34.9690  -18.9180   29.1090 N.ar  307  HIS307     -0.2268
     24  CD2       34.0720  -20.0460   27.4620 C.ar  307  HIS307      0.1154
     25  CE1       34.7290  -18.0540   28.1370 C.ar  307  HIS307      0.1986
     26  NE2       34.1850  -18.7110   27.1280 N.ar  307  HIS307     -0.2212
     27  N         36.1700  -19.9590   31.2640 N.am  308  ILE308     -0.1966
     28  CA        36.6730  -19.0390   32.3290 C.3   308  ILE308      0.1712
     29  C         37.6730  -17.9020   31.8710 C.2   308  ILE308      0.2458
     30  O         38.7160  -18.1420   31.2280 O.2   308  ILE308     -0.2730
     31  CB        37.0940  -19.8580   33.6470 C.3   308  ILE308      0.0289
     32  CG1       38.6130  -20.1930   33.7000 C.3   308  ILE308      0.0022
     33  CG2       36.2470  -21.1490   33.7690 C.3   308  ILE308      0.0023
     34  CD1       39.0750  -20.8800   35.0140 C.3   308  ILE308      0.0001
     35  N         37.3290  -16.6480   32.1980 N.am  309  PRO309     -0.2716
     36  CA        37.9370  -15.5020   31.5340 C.3   309  PRO309      0.1521
     37  C         39.1080  -14.9440   32.3540 C.2   309  PRO309      0.2440
     38  O         40.2520  -15.1560   31.9770 O.2   309  PRO309     -0.2731
     39  CB        36.7420  -14.5260   31.3980 C.3   309  PRO309      0.0310
     40  CG        35.8010  -14.8900   32.5560 C.3   309  PRO309      0.0237
     41  CD        36.3400  -16.2020   33.1920 C.3   309  PRO309      0.0939
     42  N         38.8290  -14.1830   33.4240 N.am  310  PRO310     -0.2727
     43  CA        39.7050  -14.2650   34.5940 C.3   310  PRO310      0.1402
     44  C         39.5290  -15.5210   35.5260 C.2   310  PRO310      0.2269
     45  O         39.0590  -15.4110   36.6720 O.2   310  PRO310     -0.2865
     46  CB        39.3910  -12.9550   35.3480 C.3   310  PRO310      0.0296
     47  CG        38.0560  -12.5680   34.9270 C.3   310  PRO310      0.0237
     48  CD        37.8180  -13.1120   33.5740 C.3   310  PRO310      0.0939
     49  N         35.8530  -24.0630   38.1140 N.3   318  HIS318     -0.1241
     50  CA        34.5210  -23.8580   37.4520 C.3   318  HIS318      0.1621
     51  C         33.6110  -25.1100   37.2530 C.2   318  HIS318      0.2264
     52  O         32.5460  -24.9960   36.5990 O.2   318  HIS318     -0.2867
     53  CB        34.6780  -23.0980   36.1150 C.3   318  HIS318      0.0745
     54  CG        33.5370  -22.1510   35.8020 C.ar  318  HIS318      0.0817
     55  ND1       32.2190  -22.5700   35.6940 N.ar  318  HIS318     -0.2268
     56  CD2       33.5260  -20.8100   35.5570 C.ar  318  HIS318      0.1154
     57  CE1       31.4470  -21.5250   35.4140 C.ar  318  HIS318      0.1986
     58  NE2       32.2140  -20.4440   35.3210 N.ar  318  HIS318     -0.2212
     59  N         28.9000  -26.5610   36.9360 N.3   321  LEU321     -0.1245
     60  CA        27.8480  -25.5880   37.1880 C.3   321  LEU321      0.1561
     61  C         26.5450  -26.0020   36.4980 C.2   321  LEU321      0.2260
     62  O         25.4690  -25.6920   36.9820 O.2   321  LEU321     -0.2867
     63  CB        28.2900  -24.1900   36.7700 C.3   321  LEU321      0.0270
     64  CG        28.7910  -23.2190   37.8530 C.3   321  LEU321      0.0019
     65  CD1       28.5510  -21.7830   37.3990 C.3   321  LEU321      0.0001
     66  CD2       28.1750  -23.4260   39.2520 C.3   321  LEU321      0.0001
     67  N         22.9110  -26.3990   38.3100 N.3   325  ILE325     -0.1245
     68  CA        21.8290  -25.5200   37.8790 C.3   325  ILE325      0.1561
     69  C         20.7510  -26.3860   37.2650 C.2   325  ILE325      0.2260
     70  O         19.6090  -25.9610   37.1540 O.2   325  ILE325     -0.2867
     71  CB        22.2920  -24.4860   36.7940 C.3   325  ILE325      0.0252
     72  CG1       21.1040  -23.6140   36.3290 C.3   325  ILE325      0.0019
     73  CG2       22.8700  -25.1780   35.5820 C.3   325  ILE325      0.0019
     74  CD1       21.1100  -23.2470   34.8500 C.3   325  ILE325      0.0001
     75  N         17.7880  -23.0680   41.5100 N.3   331  PHE331     -0.1241
     76  CA        18.6710  -22.2670   40.7090 C.3   331  PHE331      0.1605
     77  C         17.7960  -21.9120   39.5080 C.2   331  PHE331      0.2264
     78  O         17.6180  -20.7170   39.1910 O.2   331  PHE331     -0.2867
     79  CB        19.8700  -23.1060   40.2710 C.3   331  PHE331      0.0534
     80  CG        21.1820  -22.4350   40.4700 C.ar  331  PHE331     -0.0203
     81  CD1       22.2880  -23.1560   40.8730 C.ar  331  PHE331     -0.0042
     82  CD2       21.3160  -21.0770   40.2660 C.ar  331  PHE331     -0.0042
     83  CE1       23.5140  -22.5410   41.0530 C.ar  331  PHE331     -0.0003
     84  CE2       22.5430  -20.4420   40.4400 C.ar  331  PHE331     -0.0003
     85  CZ        23.6410  -21.1720   40.8390 C.ar  331  PHE331     -0.0000
     86  N         16.7220  -17.9040   38.4910 N.3   335  LEU335     -0.1245
     87  CA        17.4400  -17.2270   37.4260 C.3   335  LEU335      0.1561
     88  C         16.3320  -16.9110   36.4340 C.2   335  LEU335      0.2260
     89  O         16.4090  -15.9240   35.6970 O.2   335  LEU335     -0.2867
     90  CB        18.5190  -18.1460   36.8470 C.3   335  LEU335      0.0270
     91  CG        19.8790  -17.9200   37.4960 C.3   335  LEU335      0.0019
     92  CD1       20.6950  -19.1720   37.4450 C.3   335  LEU335      0.0001
     93  CD2       20.5410  -16.8300   36.7120 C.3   335  LEU335      0.0001
     94  N         33.4000  -21.9170   41.5590 N.3   406  VAL406     -0.1231
     95  CA        33.0880  -20.5190   41.7770 C.3   406  VAL406      0.1692
     96  C         31.7050  -20.1950   42.3820 C.2   406  VAL406      0.2591
     97  O         31.4780  -19.0780   42.7960 O.2   406  VAL406     -0.2718
     98  CB        33.4350  -19.7350   40.5150 C.3   406  VAL406      0.0266
     99  CG1       33.2390  -20.6360   39.2580 C.3   406  VAL406      0.0020
    100  CG2       32.6880  -18.4230   40.4400 C.3   406  VAL406      0.0020
    101  N         30.8070  -21.1730   42.4860 N.am  407  LEU407     -0.1980
    102  CA        29.5710  -21.0020   43.2720 C.3   407  LEU407      0.1596
    103  C         29.9120  -21.0560   44.7630 C.2   407  LEU407      0.2287
    104  O         29.3820  -20.2900   45.5900 O.2   407  LEU407     -0.2864
    105  CB        28.5500  -22.0990   42.9130 C.3   407  LEU407      0.0297
    106  CG        27.1000  -22.1070   43.4410 C.3   407  LEU407      0.0022
    107  CD1       26.5760  -20.7110   43.5620 C.3   407  LEU407      0.0001
    108  CD2       26.2260  -22.8900   42.4880 C.3   407  LEU407      0.0001
    109  N         32.0130  -18.1710   46.7380 N.3   410  MET410     -0.1245
    110  CA        30.9090  -17.2350   46.8890 C.3   410  MET410      0.1570
    111  C         30.2930  -17.3990   48.2430 C.2   410  MET410      0.2261
    112  O         30.0330  -16.4080   48.9250 O.2   410  MET410     -0.2867
    113  CB        29.8360  -17.5130   45.8690 C.3   410  MET410      0.0387
    114  CG        28.8970  -16.3590   45.7610 C.3   410  MET410      0.0595
    115  SD        29.9780  -14.9540   45.6100 S.3   410  MET410     -0.1393
    116  CE        30.7300  -15.3820   44.0420 C.3   410  MET410      0.0692
@<TRIPOS>BOND
     1     7     5    1
     2     8     6    1
     3     5     6    1
     4     5     2    1
     5    26    24   ar
     6    26    25   ar
     7     2     1    1
     8     2     3    1
     9    24    22   ar
    10    25    23   ar
    11     3     4    2
    12     3     9   am
    13    22    23   ar
    14    22    21    1
    15     9    10    1
    16    21    18    1
    17    18    17    1
    18    18    19    1
    19    20    19    2
    20    19    27   am
    21    16    14    1
    22    12    11    2
    23    10    11    1
    24    10    13    1
    25    30    29    2
    26    27    28    1
    27    39    36    1
    28    39    40    1
    29    14    13    1
    30    14    15    1
    31    36    35    1
    32    36    37    1
    33    29    35   am
    34    29    28    1
    35    38    37    2
    36    35    41    1
    37    28    31    1
    38    37    42   am
    39    40    41    1
    40    42    48    1
    41    42    43    1
    42    48    47    1
    43    31    32    1
    44    31    33    1
    45    32    34    1
    46    43    46    1
    47    43    44    1
    48    74    72    1
    49    47    46    1
    50    58    57   ar
    51    58    56   ar
    52    57    55   ar
    53    44    45    2
    54    56    54   ar
    55    73    71    1
    56    55    54   ar
    57    89    88    2
    58    54    53    1
    59    53    50    1
    60    72    71    1
    61    88    87    1
    62    61    62    2
    63    61    60    1
    64    52    51    2
    65    93    91    1
    66    63    60    1
    67    63    64    1
    68    71    68    1
    69    90    87    1
    70    90    91    1
    71    59    60    1
    72    70    69    2
    73    51    50    1
    74    69    68    1
    75    65    64    1
    76    87    86    1
    77    92    91    1
    78    50    49    1
    79    64    66    1
    80    68    67    1
    81    78    77    2
    82    99    98    1
    83    77    76    1
    84    82    84   ar
    85    82    80   ar
    86    79    80    1
    87    79    76    1
    88   100    98    1
    89    84    85   ar
    90    80    81   ar
    91    98    95    1
    92    76    75    1
    93    85    83   ar
    94    81    83   ar
    95    94    95    1
    96    95    96    1
    97    96   101   am
    98    96    97    2
    99   101   102    1
   100   108   106    1
   101   105   102    1
   102   105   106    1
   103   102   103    1
   104   106   107    1
   105   116   115    1
   106   103   104    2
   107   115   114    1
   108   114   113    1
   109   113   110    1
   110   109   110    1
   111   110   111    1
   112   111   112    2
