@<TRIPOS>MOLECULE
tmp/2wseF50.pdb
 128 123 0 0 0
SMALL
GASTEIGER

@<TRIPOS>ATOM
      1  N         -4.8200  -35.8580   51.4550 N.3     6  ARG6       -0.1231
      2  CA        -4.2670  -36.8120   50.5090 C.3     6  ARG6        0.1694
      3  C         -3.0340  -36.2240   49.8480 C.2     6  ARG6        0.2592
      4  O         -3.0880  -35.7860   48.6930 O.2     6  ARG6       -0.2718
      5  CB        -5.3270  -37.2210   49.4670 C.3     6  ARG6        0.0321
      6  CG        -6.7770  -37.1630   49.9800 C.3     6  ARG6        0.0489
      7  CD        -6.9240  -38.0830   51.1240 C.3     6  ARG6        0.2205
      8  NE        -7.2980  -39.4120   50.6750 N.pl3   6  ARG6       -0.0865
      9  CZ        -6.4530  -40.4210   50.4980 C.cat   6  ARG6        0.5346
     10  NH1       -5.1530  -40.2390   50.7180 N.pl3   6  ARG6        0.1354
     11  NH2       -6.9260  -41.6080   50.0990 N.pl3   6  ARG6        0.1354
     12  N         -1.9650  -36.1440   50.6490 N.am    7  PHE7       -0.1976
     13  CA        -0.5640  -36.1500   50.1930 C.3     7  PHE7        0.1639
     14  C          0.4180  -36.2670   51.3370 C.2     7  PHE7        0.2290
     15  O          1.1790  -37.2230   51.3680 O.2     7  PHE7       -0.2864
     16  CB        -0.1770  -34.9990   49.2490 C.3     7  PHE7        0.0560
     17  CG        -0.5040  -33.6190   49.7390 C.ar    7  PHE7       -0.0200
     18  CD1       -1.7070  -32.9970   49.3660 C.ar    7  PHE7       -0.0042
     19  CD2        0.4210  -32.9050   50.4950 C.ar    7  PHE7       -0.0042
     20  CE1       -2.0060  -31.6970   49.7690 C.ar    7  PHE7       -0.0003
     21  CE2        0.1410  -31.6070   50.9110 C.ar    7  PHE7       -0.0003
     22  CZ        -1.0790  -30.9900   50.5510 C.ar    7  PHE7       -0.0000
     23  N         -2.6510  -27.4970   55.3690 N.3    23  GLY23      -0.1210
     24  CA        -3.0320  -28.2810   54.1980 C.3    23  GLY23       0.1956
     25  C         -2.9600  -27.2760   53.0720 C.2    23  GLY23       0.2611
     26  O         -2.1750  -27.4420   52.1240 O.2    23  GLY23      -0.2717
     27  N         -3.7430  -26.1970   53.2200 N.am   24  ILE24      -0.1979
     28  CA        -3.8920  -25.1950   52.1570 C.3    24  ILE24       0.1595
     29  C         -2.7190  -24.2410   52.1560 C.2    24  ILE24       0.2287
     30  O         -2.8820  -23.0440   52.4510 O.2    24  ILE24      -0.2864
     31  CB        -5.2780  -24.4740   52.1910 C.3    24  ILE24       0.0276
     32  CG1       -5.8490  -24.3920   53.6030 C.3    24  ILE24       0.0022
     33  CG2       -6.2700  -25.2700   51.3930 C.3    24  ILE24       0.0022
     34  CD1       -5.7490  -23.0370   54.2260 C.3    24  ILE24       0.0001
     35  N          0.3340  -27.8370   49.5790 N.3    27  ALA27      -0.1231
     36  CA        -0.0880  -28.2170   48.2570 C.3    27  ALA27       0.1694
     37  C          1.0360  -28.0200   47.2590 C.2    27  ALA27       0.2592
     38  O          1.5140  -28.9860   46.7050 O.2    27  ALA27      -0.2718
     39  CB        -1.3070  -27.4180   47.8500 C.3    27  ALA27       0.0304
     40  N          1.4970  -26.7920   47.0520 N.am   28  HIS28      -0.1976
     41  CA         2.3740  -26.5630   45.9020 C.3    28  HIS28       0.1656
     42  C          3.8810  -26.9370   46.1040 C.2    28  HIS28       0.2291
     43  O          4.7180  -26.8330   45.1820 O.2    28  HIS28      -0.2864
     44  CB         2.1480  -25.1430   45.3200 C.3    28  HIS28       0.0771
     45  CG         0.7080  -24.8610   44.9730 C.ar   28  HIS28       0.0820
     46  ND1        0.0780  -23.6710   45.2900 N.ar   28  HIS28      -0.2267
     47  CD2       -0.2320  -25.6330   44.3570 C.ar   28  HIS28       0.1154
     48  CE1       -1.1820  -23.7150   44.8690 C.ar   28  HIS28       0.1986
     49  NE2       -1.3970  -24.8910   44.2950 N.ar   28  HIS28      -0.2212
     50  N          5.7010  -29.6260   45.9430 N.3    30  PHE30      -0.1241
     51  CA         5.9420  -31.0120   45.4780 C.3    30  PHE30       0.1605
     52  C          7.2850  -31.5880   46.0010 C.2    30  PHE30       0.2264
     53  O          7.2760  -32.5210   46.8080 O.2    30  PHE30      -0.2867
     54  CB         5.8220  -31.1680   43.9480 C.3    30  PHE30       0.0534
     55  CG         4.5530  -30.5720   43.3600 C.ar   30  PHE30      -0.0203
     56  CD1        4.6220  -29.4150   42.5840 C.ar   30  PHE30      -0.0042
     57  CD2        3.3010  -31.1650   43.5750 C.ar   30  PHE30      -0.0042
     58  CE1        3.4680  -28.8520   42.0420 C.ar   30  PHE30      -0.0003
     59  CE2        2.1250  -30.6060   43.0280 C.ar   30  PHE30      -0.0003
     60  CZ         2.2120  -29.4450   42.2650 C.ar   30  PHE30      -0.0000
     61  N          7.2290  -34.0820   49.4620 N.3    33  HIS33      -0.1241
     62  CA         6.0800  -34.3510   50.3720 C.3    33  HIS33       0.1621
     63  C          5.3610  -35.6250   49.9190 C.2    33  HIS33       0.2264
     64  O          4.9370  -35.7070   48.7650 O.2    33  HIS33      -0.2867
     65  CB         5.1050  -33.1470   50.5650 C.3    33  HIS33       0.0745
     66  CG         4.2220  -32.8320   49.3890 C.ar   33  HIS33       0.0817
     67  ND1        2.9590  -33.3710   49.2330 N.ar   33  HIS33      -0.2268
     68  CD2        4.4050  -31.9900   48.3440 C.ar   33  HIS33       0.1154
     69  CE1        2.4180  -32.9070   48.1220 C.ar   33  HIS33       0.1986
     70  NE2        3.2730  -32.0650   47.5650 N.ar   33  HIS33      -0.2212
     71  N          4.0170  -37.8410   48.2940 N.3    35  ASP35      -0.1239
     72  CA         3.6340  -38.3900   47.0300 C.3    35  ASP35       0.1674
     73  C          4.7000  -38.3720   45.9190 C.2    35  ASP35       0.2266
     74  O          4.3510  -38.6540   44.7620 O.2    35  ASP35      -0.2867
     75  CB         2.3510  -37.6780   46.5700 C.3    35  ASP35       0.1410
     76  CG         1.1130  -38.0940   47.3740 C.2    35  ASP35       0.3668
     77  OD1        0.0480  -37.4260   47.2140 O.co2  35  ASP35      -0.2456
     78  OD2        1.1970  -39.0860   48.1460 O.co2  35  ASP35      -0.2456
     79  N          4.9540  -33.2520   37.8920 N.3    44  ASN44      -0.1240
     80  CA         3.9400  -32.7730   38.8280 C.3    44  ASN44       0.1653
     81  C          4.0410  -31.2670   39.0080 C.2    44  ASN44       0.2266
     82  O          3.2980  -30.6770   39.7740 O.2    44  ASN44      -0.2867
     83  CB         4.0630  -33.4930   40.1550 C.3    44  ASN44       0.1155
     84  CG         2.7360  -33.9750   40.6510 C.2    44  ASN44       0.2627
     85  OD1        1.7800  -33.2030   40.6750 O.2    44  ASN44      -0.2716
     86  ND2        2.6470  -35.2530   41.0370 N.am   44  ASN44      -0.0877
     87  N          2.3430  -30.7280   34.2360 N.3    47  ALA47      -0.1231
     88  CA         0.9070  -30.6280   34.0130 C.3    47  ALA47       0.1694
     89  C          0.2130  -29.7710   35.1050 C.2    47  ALA47       0.2593
     90  O         -1.0240  -29.6190   35.1190 O.2    47  ALA47      -0.2718
     91  CB         0.2780  -32.0250   33.8720 C.3    47  ALA47       0.0304
     92  N          1.0330  -29.2190   36.0160 N.am   48  SER48      -0.1938
     93  CA         0.5940  -28.1410   36.9260 C.3    48  SER48       0.2055
     94  C          0.4550  -26.8840   36.0840 C.2    48  SER48       0.2643
     95  O         -0.6480  -26.5120   35.6880 O.2    48  SER48      -0.2714
     96  CB         1.6080  -27.8660   38.0690 C.3    48  SER48       0.2130
     97  OG         1.7300  -28.9490   38.9830 O.3    48  SER48      -0.2179
     98  N          1.5840  -26.2560   35.7680 N.am   49  HIS49      -0.1973
     99  CA         1.5340  -25.0660   34.9290 C.3    49  HIS49       0.1656
    100  C          1.2970  -25.3160   33.4190 C.2    49  HIS49       0.2291
    101  O          1.8060  -24.5860   32.5600 O.2    49  HIS49      -0.2864
    102  CB         2.7480  -24.1810   35.1770 C.3    49  HIS49       0.0771
    103  CG         4.0190  -24.7220   34.6050 C.ar   49  HIS49       0.0820
    104  ND1        4.1670  -26.0470   34.2420 N.ar   49  HIS49      -0.2267
    105  CD2        5.2180  -24.1220   34.3710 C.ar   49  HIS49       0.1154
    106  CE1        5.4010  -26.2350   33.7880 C.ar   49  HIS49       0.1986
    107  NE2        6.0610  -25.0850   33.8610 N.ar   49  HIS49      -0.2212
    108  N         -1.8640  -26.4660   33.7220 N.3    51  GLY51      -0.1210
    109  CA        -2.9850  -25.9180   34.4470 C.3    51  GLY51       0.1956
    110  C         -2.6750  -24.4360   34.4400 C.2    51  GLY51       0.2611
    111  O         -3.5660  -23.5890   34.6610 O.2    51  GLY51      -0.2717
    112  N         -1.4080  -24.1030   34.1840 N.am   52  GLN52      -0.1979
    113  CA        -1.1300  -22.7510   33.7210 C.3    52  GLN52       0.1601
    114  C         -1.2270  -22.5480   32.1940 C.2    52  GLN52       0.2287
    115  O         -1.6530  -23.4540   31.4690 O.2    52  GLN52      -0.2864
    116  CB         0.1230  -22.1210   34.3480 C.3    52  GLN52       0.0394
    117  CG        -0.2700  -21.1750   35.4270 C.3    52  GLN52       0.0908
    118  CD        -1.7740  -21.0470   35.4500 C.2    52  GLN52       0.2608
    119  OE1       -2.3880  -20.4660   34.5520 O.2    52  GLN52      -0.2717
    120  NE2       -2.3940  -21.6490   36.4580 N.am   52  GLN52      -0.0878
    121  N         -5.3100  -20.8410   32.8260 N.3    55  ILE55      -0.1245
    122  CA        -6.0750  -19.8940   33.6350 C.3    55  ILE55       0.1561
    123  C         -5.8170  -18.4820   33.1620 C.2    55  ILE55       0.2260
    124  O         -6.5190  -17.5640   33.5450 O.2    55  ILE55      -0.2867
    125  CB        -5.6640  -19.9920   35.1380 C.3    55  ILE55       0.0252
    126  CG1       -5.6590  -21.4770   35.6620 C.3    55  ILE55       0.0019
    127  CG2       -6.4820  -19.0170   35.9970 C.3    55  ILE55       0.0019
    128  CD1       -6.9760  -22.3370   35.5040 C.3    55  ILE55       0.0001
@<TRIPOS>BOND
     1   115   114    2
     2   114   113    1
     3   101   100    2
     4   121   122    1
     5   123   124    2
     6   123   122    1
     7   100    99    1
     8   122   125    1
     9   113   112    1
    10   113   116    1
    11   108   109    1
    12   106   107   ar
    13   106   104   ar
    14   107   105   ar
    15    91    88    1
    16    88    87    1
    17    88    89    1
    18   112   110   am
    19   104   103   ar
    20   116   117    1
    21   105   103   ar
    22   110   109    1
    23   110   111    2
    24   119   118    2
    25   103   102    1
    26    99   102    1
    27    99    98    1
    28    89    90    2
    29    89    92   am
    30   125   126    1
    31   125   127    1
    32   117   118    1
    33   118   120   am
    34   128   126    1
    35    95    94    2
    36    98    94   am
    37    92    93    1
    38    94    93    1
    39    93    96    1
    40    79    80    1
    41    96    97    1
    42    80    81    1
    43    80    83    1
    44    81    82    2
    45    83    84    1
    46    84    85    2
    47    84    86   am
    48    58    60   ar
    49    58    56   ar
    50    60    59   ar
    51    56    55   ar
    52    59    57   ar
    53    55    57   ar
    54    55    54    1
    55    54    51    1
    56    49    47   ar
    57    49    48   ar
    58    47    45   ar
    59    74    73    2
    60    48    46   ar
    61    45    46   ar
    62    45    44    1
    63    43    42    2
    64    44    41    1
    65    51    50    1
    66    51    52    1
    67    41    42    1
    68    41    40    1
    69    73    72    1
    70    52    53    2
    71    75    72    1
    72    75    76    1
    73    38    37    2
    74    72    71    1
    75    40    37   am
    76    77    76   ar
    77    37    36    1
    78    76    78   ar
    79    70    69   ar
    80    70    68   ar
    81    39    36    1
    82    69    67   ar
    83    36    35    1
    84    68    66   ar
    85     4     3    2
    86    64    63    2
    87    67    66   ar
    88    16    17    1
    89    16    13    1
    90    18    17   ar
    91    18    20   ar
    92    66    65    1
    93    61    62    1
    94     5     6    1
    95     5     2    1
    96    17    19   ar
    97    20    22   ar
    98     3     2    1
    99     3    12   am
   100    63    62    1
   101     6     7    1
   102    11     9    1
   103    13    12    1
   104    13    14    1
   105    62    65    1
   106    19    21   ar
   107     9     8    2
   108     9    10    1
   109     2     1    1
   110    22    21   ar
   111     8     7    1
   112    14    15    2
   113    33    31    1
   114    26    25    2
   115    29    28    1
   116    29    30    2
   117    28    31    1
   118    28    27    1
   119    31    32    1
   120    25    27   am
   121    25    24    1
   122    32    34    1
   123    24    23    1
