@<TRIPOS>MOLECULE
tmp/2wseF41.pdb
 87 85 0 0 0
SMALL
GASTEIGER

@<TRIPOS>ATOM
      1  N         -7.2960   -0.4200   57.0980 N.3   654  LEU654     -0.1245
      2  CA        -7.5960   -1.5040   58.0620 C.3   654  LEU654      0.1561
      3  C         -6.8400   -2.7970   57.8200 C.2   654  LEU654      0.2260
      4  O         -6.0980   -3.2330   58.6660 O.2   654  LEU654     -0.2867
      5  CB        -9.1000   -1.8130   58.1500 C.3   654  LEU654      0.0270
      6  CG        -9.5980   -2.5360   59.4360 C.3   654  LEU654      0.0019
      7  CD1      -11.0320   -2.0890   59.7690 C.3   654  LEU654      0.0001
      8  CD2       -9.5500   -4.0600   59.3140 C.3   654  LEU654      0.0001
      9  N         -3.0900   -2.0700   59.1490 N.3   657  ALA657     -0.1231
     10  CA        -3.1050   -2.0380   60.6340 C.3   657  ALA657      0.1694
     11  C         -3.3200   -3.4030   61.2400 C.2   657  ALA657      0.2592
     12  O         -2.5060   -3.8520   62.0420 O.2   657  ALA657     -0.2718
     13  CB        -4.1910   -1.0580   61.1700 C.3   657  ALA657      0.0304
     14  N         -4.4100   -4.0580   60.8320 N.am  658  THR658     -0.1953
     15  CA        -4.7460   -5.3860   61.2900 C.3   658  THR658      0.1897
     16  C         -3.6780   -6.4320   60.8670 C.2   658  THR658      0.2313
     17  O         -3.7430   -7.6040   61.2430 O.2   658  THR658     -0.2863
     18  CB        -6.1740   -5.7620   60.8550 C.3   658  THR658      0.1794
     19  OG1       -6.7690   -6.5750   61.8580 O.3   658  THR658     -0.2208
     20  CG2       -6.1840   -6.5240   59.5520 C.3   658  THR658      0.0378
     21  N         -0.5320   -5.9990   61.9560 N.3   660  PHE660     -0.1227
     22  CA         0.1550   -5.9170   63.2720 C.3   660  PHE660      0.1736
     23  C         -0.0170   -6.9720   64.3500 C.2   660  PHE660      0.2595
     24  O          0.9750   -7.3880   64.9230 O.2   660  PHE660     -0.2718
     25  CB        -0.1090   -4.5340   63.9090 C.3   660  PHE660      0.0547
     26  CG         0.5600   -3.3840   63.2000 C.ar  660  PHE660     -0.0202
     27  CD1        1.7700   -2.8870   63.6470 C.ar  660  PHE660     -0.0042
     28  CD2       -0.0220   -2.8130   62.0980 C.ar  660  PHE660     -0.0042
     29  CE1        2.3720   -1.8470   63.0180 C.ar  660  PHE660     -0.0003
     30  CE2        0.5930   -1.7670   61.4630 C.ar  660  PHE660     -0.0003
     31  CZ         1.8000   -1.2780   61.9310 C.ar  660  PHE660     -0.0000
     32  N         -1.2680   -7.3430   64.6570 N.am  661  MET661     -0.1979
     33  CA        -1.5770   -8.4870   65.5270 C.3   661  MET661      0.1605
     34  C         -0.5430   -9.5480   65.1790 C.2   661  MET661      0.2287
     35  O          0.5870   -9.5880   65.7160 O.2   661  MET661     -0.2864
     36  CB        -2.9870   -9.0230   65.2000 C.3   661  MET661      0.0413
     37  CG        -3.7790   -9.7260   66.3090 C.3   661  MET661      0.0598
     38  SD        -5.4170   -8.9260   66.4180 S.3   661  MET661     -0.1393
     39  CE        -6.3260  -10.0340   67.4710 C.3   661  MET661      0.0692
     40  N          2.9220   -8.3870   66.1520 N.3   664  ILE664     -0.1231
     41  CA         3.2930   -8.0610   67.5540 C.3   664  ILE664      0.1692
     42  C          2.5420   -9.0050   68.5100 C.2   664  ILE664      0.2592
     43  O          2.3080   -8.7030   69.6770 O.2   664  ILE664     -0.2718
     44  CB         2.9980   -6.5850   67.9740 C.3   664  ILE664      0.0266
     45  CG1        3.1390   -5.5940   66.8130 C.3   664  ILE664      0.0019
     46  CG2        3.9210   -6.1960   69.0800 C.3   664  ILE664      0.0020
     47  CD1        3.2960   -4.1380   67.2360 C.3   664  ILE664      0.0001
     48  N          2.1350  -10.1620   68.0150 N.am  665  SER665     -0.1952
     49  CA         1.3860  -11.0240   68.8800 C.3   665  SER665      0.1924
     50  C          2.0490  -12.3850   69.2050 C.2   665  SER665      0.2314
     51  O          2.2310  -12.7290   70.3780 O.2   665  SER665     -0.2863
     52  CB        -0.0880  -11.0580   68.4580 C.3   665  SER665      0.2116
     53  OG        -0.5910   -9.7300   68.5470 O.3   665  SER665     -0.2180
     54  N          0.3610  -15.9990   73.3980 N.3   669  TYR669     -0.1227
     55  CA        -0.7390  -15.3050   74.0940 C.3   669  TYR669      0.1736
     56  C         -2.0950  -15.7290   73.5440 C.2   669  TYR669      0.2595
     57  O         -3.1240  -15.6470   74.2110 O.2   669  TYR669     -0.2718
     58  CB        -0.5830  -13.7640   74.0160 C.3   669  TYR669      0.0548
     59  CG        -1.9280  -13.0160   74.0920 C.ar  669  TYR669     -0.0200
     60  CD1       -2.8680  -13.1600   73.0850 C.ar  669  TYR669     -0.0009
     61  CD2       -2.2660  -12.1860   75.1660 C.ar  669  TYR669     -0.0009
     62  CE1       -4.0840  -12.5320   73.1220 C.ar  669  TYR669      0.0417
     63  CE2       -3.5150  -11.5390   75.2010 C.ar  669  TYR669      0.0417
     64  CZ        -4.4090  -11.7260   74.1500 C.ar  669  TYR669      0.1957
     65  OH        -5.6470  -11.1220   74.0650 O.3   669  TYR669     -0.2866
     66  N         -2.0990  -16.1840   72.3150 N.am  670  TRP670     -0.1976
     67  CA        -3.3690  -16.4390   71.6700 C.3   670  TRP670      0.1640
     68  C         -3.9180  -17.8070   72.0530 C.2   670  TRP670      0.2290
     69  O         -5.0500  -17.9490   72.4980 O.2   670  TRP670     -0.2864
     70  CB        -3.2010  -16.2220   70.1530 C.3   670  TRP670      0.0576
     71  CG        -3.1460  -14.7520   69.8920 C.ar  670  TRP670      0.0006
     72  CD1       -2.0450  -13.9940   69.5520 C.ar  670  TRP670      0.0946
     73  CD2       -4.2400  -13.8400   70.0560 C.ar  670  TRP670      0.0152
     74  NE1       -2.4060  -12.6670   69.4800 N.ar  670  TRP670     -0.2442
     75  CE2       -3.7530  -12.5520   69.7850 C.ar  670  TRP670      0.0810
     76  CE3       -5.5860  -13.9890   70.4200 C.ar  670  TRP670      0.0012
     77  CZ2       -4.5720  -11.4270   69.8560 C.ar  670  TRP670      0.0191
     78  CZ3       -6.3880  -12.8850   70.4720 C.ar  670  TRP670      0.0001
     79  CH2       -5.8870  -11.6230   70.1930 C.ar  670  TRP670      0.0015
     80  N         -5.3330  -18.1050   75.9100 N.3   673  LEU673     -0.1245
     81  CA        -6.6880  -17.7720   76.2630 C.3   673  LEU673      0.1561
     82  C         -7.6850  -18.6110   75.4880 C.2   673  LEU673      0.2260
     83  O         -8.8420  -18.6590   75.8460 O.2   673  LEU673     -0.2867
     84  CB        -6.9720  -16.2660   76.2280 C.3   673  LEU673      0.0270
     85  CG        -7.5150  -15.5110   75.0260 C.3   673  LEU673      0.0019
     86  CD1       -8.7500  -16.1770   74.3820 C.3   673  LEU673      0.0001
     87  CD2       -7.8360  -14.0580   75.4370 C.3   673  LEU673      0.0001
@<TRIPOS>BOND
     1     1     2    1
     2     3     2    1
     3     3     4    2
     4     2     5    1
     5     5     6    1
     6     9    10    1
     7     8     6    1
     8     6     7    1
     9    20    18    1
    10    10    13    1
    11    10    11    1
    12    14    11   am
    13    14    15    1
    14    18    15    1
    15    18    19    1
    16    16    17    2
    17    16    15    1
    18    11    12    2
    19    30    31   ar
    20    30    28   ar
    21    31    29   ar
    22    21    22    1
    23    28    26   ar
    24    29    27   ar
    25    26    27   ar
    26    26    25    1
    27    22    25    1
    28    22    23    1
    29    23    32   am
    30    23    24    2
    31    32    33    1
    32    34    33    1
    33    34    35    2
    34    36    33    1
    35    36    37    1
    36    40    41    1
    37    37    38    1
    38    38    39    1
    39    45    47    1
    40    45    44    1
    41    41    44    1
    42    41    42    1
    43    44    46    1
    44    48    42   am
    45    48    49    1
    46    52    53    1
    47    52    49    1
    48    42    43    2
    49    49    50    1
    50    50    51    2
    51    74    72   ar
    52    74    75   ar
    53    72    71   ar
    54    75    77   ar
    55    75    73   ar
    56    77    79   ar
    57    71    73   ar
    58    71    70    1
    59    73    76   ar
    60    70    67    1
    61    79    78   ar
    62    76    78   ar
    63    67    68    1
    64    67    66    1
    65    68    69    2
    66    66    56   am
    67    60    62   ar
    68    60    59   ar
    69    62    64   ar
    70    54    55    1
    71    56    55    1
    72    56    57    2
    73    58    59    1
    74    58    55    1
    75    65    64    1
    76    59    61   ar
    77    64    63   ar
    78    86    85    1
    79    85    87    1
    80    85    84    1
    81    61    63   ar
    82    82    83    2
    83    82    81    1
    84    80    81    1
    85    84    81    1
