@<TRIPOS>MOLECULE
tmp/2wseF14.pdb
 179 171 0 0 0
SMALL
GASTEIGER

@<TRIPOS>ATOM
      1  N         18.2580  -29.0540   28.2800 N.3   170  ALA170     -0.1245
      2  CA        18.8500  -27.7870   27.7960 C.3   170  ALA170      0.1562
      3  C         19.7070  -28.1270   26.5690 C.2   170  ALA170      0.2260
      4  O         19.8600  -29.3020   26.2080 O.2   170  ALA170     -0.2867
      5  CB        19.6680  -27.0540   28.8880 C.3   170  ALA170      0.0290
      6  N         16.2140  -28.0270   24.0860 N.3   173  ARG173     -0.1231
      7  CA        15.3400  -26.9090   24.5350 C.3   173  ARG173      0.1694
      8  C         16.1680  -25.7020   24.9110 C.2   173  ARG173      0.2591
      9  O         17.2310  -25.8490   25.5220 O.2   173  ARG173     -0.2718
     10  CB        14.5110  -27.2730   25.7550 C.3   173  ARG173      0.0321
     11  CG        14.0180  -26.0290   26.4940 C.3   173  ARG173      0.0489
     12  CD        12.8110  -26.2860   27.4240 C.3   173  ARG173      0.2205
     13  NE        12.9570  -27.5100   28.2130 N.pl3 173  ARG173     -0.0865
     14  CZ        13.8580  -27.6530   29.1770 C.cat 173  ARG173      0.5346
     15  NH1       14.6640  -26.6410   29.4650 N.pl3 173  ARG173      0.1354
     16  NH2       13.9500  -28.7920   29.8430 N.pl3 173  ARG173      0.1354
     17  N         15.6610  -24.5070   24.5940 N.am  174  LEU174     -0.1980
     18  CA        16.4680  -23.2920   24.7120 C.3   174  LEU174      0.1596
     19  C         17.4780  -23.2360   23.5470 C.2   174  LEU174      0.2287
     20  O         17.9920  -22.1600   23.1980 O.2   174  LEU174     -0.2864
     21  CB        17.1570  -23.2350   26.0780 C.3   174  LEU174      0.0297
     22  CG        18.5800  -22.7070   26.2040 C.3   174  LEU174      0.0022
     23  CD1       18.5450  -21.3970   26.9650 C.3   174  LEU174      0.0001
     24  CD2       19.4550  -23.7720   26.8670 C.3   174  LEU174      0.0001
     25  N         13.5590  -23.2210   22.0440 N.3   177  HIS177     -0.1226
     26  CA        13.0020  -21.9460   22.4920 C.3   177  HIS177      0.1752
     27  C         13.5130  -20.6730   21.8220 C.2   177  HIS177      0.2595
     28  O         12.8270  -20.1110   20.9700 O.2   177  HIS177     -0.2718
     29  CB        13.2410  -21.8470   23.9800 C.3   177  HIS177      0.0759
     30  CG        12.2430  -22.6200   24.7660 C.ar  177  HIS177      0.0818
     31  ND1       11.5720  -23.7050   24.2400 N.ar  177  HIS177     -0.2268
     32  CD2       11.7660  -22.4590   26.0170 C.ar  177  HIS177      0.1154
     33  CE1       10.7260  -24.1840   25.1370 C.ar  177  HIS177      0.1986
     34  NE2       10.8190  -23.4420   26.2200 N.ar  177  HIS177     -0.2212
     35  N         14.7030  -20.2090   22.2220 N.am  178  LEU178     -0.1980
     36  CA        15.2060  -18.9340   21.7470 C.3   178  LEU178      0.1596
     37  C         15.4800  -18.9920   20.2710 C.2   178  LEU178      0.2287
     38  O         16.4620  -18.4250   19.7750 O.2   178  LEU178     -0.2864
     39  CB        16.4420  -18.5100   22.5290 C.3   178  LEU178      0.0297
     40  CG        17.4890  -19.5790   22.7920 C.3   178  LEU178      0.0022
     41  CD1       18.4430  -19.6900   21.6340 C.3   178  LEU178      0.0001
     42  CD2       18.2300  -19.1470   24.0020 C.3   178  LEU178      0.0001
     43  N         10.4030  -20.6820   19.8170 N.3   181  LEU181     -0.1231
     44  CA         9.5410  -19.7840   20.6290 C.3   181  LEU181      0.1693
     45  C          9.7280  -18.3120   20.2600 C.2   181  LEU181      0.2592
     46  O          9.2990  -17.8870   19.1810 O.2   181  LEU181     -0.2718
     47  CB         9.8000  -20.0140   22.1210 C.3   181  LEU181      0.0284
     48  CG         9.0620  -19.2200   23.2080 C.3   181  LEU181      0.0019
     49  CD1        7.5570  -19.3150   23.1150 C.3   181  LEU181      0.0001
     50  CD2        9.4900  -19.6910   24.5810 C.3   181  LEU181      0.0001
     51  N         10.3710  -17.5470   21.1500 N.am  182  PHE182     -0.1976
     52  CA        10.6560  -16.1140   20.9510 C.3   182  PHE182      0.1639
     53  C         10.7520  -15.6550   19.4910 C.2   182  PHE182      0.2290
     54  O          9.9810  -14.7840   19.0700 O.2   182  PHE182     -0.2864
     55  CB        11.9970  -15.7520   21.5770 C.3   182  PHE182      0.0560
     56  CG        11.9810  -15.6240   23.0570 C.ar  182  PHE182     -0.0200
     57  CD1       11.2580  -14.6030   23.6700 C.ar  182  PHE182     -0.0042
     58  CD2       12.7710  -16.4700   23.8330 C.ar  182  PHE182     -0.0042
     59  CE1       11.2630  -14.4590   25.0470 C.ar  182  PHE182     -0.0003
     60  CE2       12.7950  -16.3320   25.2170 C.ar  182  PHE182     -0.0003
     61  CZ        12.0270  -15.3230   25.8280 C.ar  182  PHE182     -0.0000
     62  N         17.6950  -13.9580   17.3170 N.3   283  PHE283     -0.1241
     63  CA        17.2450  -15.1130   18.1470 C.3   283  PHE283      0.1605
     64  C         17.1820  -16.4460   17.3770 C.2   283  PHE283      0.2264
     65  O         17.5540  -17.5130   17.9060 O.2   283  PHE283     -0.2867
     66  CB        15.8530  -14.8360   18.7410 C.3   283  PHE283      0.0534
     67  CG        15.8760  -14.2500   20.1320 C.ar  283  PHE283     -0.0203
     68  CD1       17.0520  -13.7490   20.6910 C.ar  283  PHE283     -0.0042
     69  CD2       14.7020  -14.1670   20.8710 C.ar  283  PHE283     -0.0042
     70  CE1       17.0470  -13.2010   21.9960 C.ar  283  PHE283     -0.0003
     71  CE2       14.6980  -13.6270   22.1530 C.ar  283  PHE283     -0.0003
     72  CZ        15.8700  -13.1440   22.7090 C.ar  283  PHE283     -0.0000
     73  N         26.9330  -27.7290   26.4270 N.3   300  ILE300     -0.1245
     74  CA        26.7490  -26.6230   27.3780 C.3   300  ILE300      0.1561
     75  C         27.6860  -26.6800   28.5820 C.2   300  ILE300      0.2260
     76  O         27.6360  -25.8170   29.4440 O.2   300  ILE300     -0.2867
     77  CB        25.2510  -26.4570   27.7520 C.3   300  ILE300      0.0252
     78  CG1       24.5710  -25.5360   26.7370 C.3   300  ILE300      0.0019
     79  CG2       25.1020  -25.9840   29.1570 C.3   300  ILE300      0.0019
     80  CD1       23.4970  -24.6530   27.2710 C.3   300  ILE300      0.0001
     81  N         31.7940  -23.9420   29.5760 N.3   304  LEU304     -0.1245
     82  CA        32.0650  -23.5280   30.9310 C.3   304  LEU304      0.1561
     83  C         33.3160  -24.3840   31.2090 C.2   304  LEU304      0.2260
     84  O         34.4030  -24.0800   30.6850 O.2   304  LEU304     -0.2867
     85  CB        30.8810  -23.8040   31.8840 C.3   304  LEU304      0.0270
     86  CG        29.4070  -23.5630   31.4570 C.3   304  LEU304      0.0019
     87  CD1       28.4880  -23.4410   32.6410 C.3   304  LEU304      0.0001
     88  CD2       29.2090  -22.3490   30.5730 C.3   304  LEU304      0.0001
     89  N         28.9000  -26.5610   36.9360 N.3   321  LEU321     -0.1231
     90  CA        27.8480  -25.5880   37.1880 C.3   321  LEU321      0.1693
     91  C         26.5450  -26.0020   36.4980 C.2   321  LEU321      0.2592
     92  O         25.4690  -25.6920   36.9820 O.2   321  LEU321     -0.2718
     93  CB        28.2900  -24.1900   36.7700 C.3   321  LEU321      0.0284
     94  CG        28.7910  -23.2190   37.8530 C.3   321  LEU321      0.0019
     95  CD1       28.5510  -21.7830   37.3990 C.3   321  LEU321      0.0001
     96  CD2       28.1750  -23.4260   39.2520 C.3   321  LEU321      0.0001
     97  N         26.6750  -26.7290   35.3880 N.am  322  TYR322     -0.1976
     98  CA        25.5650  -27.3950   34.6670 C.3   322  TYR322      0.1639
     99  C         24.7940  -28.4420   35.4840 C.2   322  TYR322      0.2290
    100  O         23.6360  -28.2150   35.7850 O.2   322  TYR322     -0.2864
    101  CB        26.1130  -28.0370   33.3910 C.3   322  TYR322      0.0560
    102  CG        25.0900  -28.6040   32.4450 C.ar  322  TYR322     -0.0198
    103  CD1       24.0510  -27.8280   31.9700 C.ar  322  TYR322     -0.0009
    104  CD2       25.2110  -29.9070   31.9750 C.ar  322  TYR322     -0.0009
    105  CE1       23.1110  -28.3530   31.0730 C.ar  322  TYR322      0.0417
    106  CE2       24.2910  -30.4410   31.0770 C.ar  322  TYR322      0.0417
    107  CZ        23.2420  -29.6640   30.6270 C.ar  322  TYR322      0.1957
    108  OH        22.3260  -30.1700   29.7330 O.3   322  TYR322     -0.2866
    109  N         22.9110  -26.3990   38.3100 N.3   325  ILE325     -0.1231
    110  CA        21.8290  -25.5200   37.8790 C.3   325  ILE325      0.1692
    111  C         20.7510  -26.3860   37.2650 C.2   325  ILE325      0.2592
    112  O         19.6090  -25.9610   37.1540 O.2   325  ILE325     -0.2718
    113  CB        22.2920  -24.4860   36.7940 C.3   325  ILE325      0.0266
    114  CG1       21.1040  -23.6140   36.3290 C.3   325  ILE325      0.0019
    115  CG2       22.8700  -25.1780   35.5820 C.3   325  ILE325      0.0020
    116  CD1       21.1100  -23.2470   34.8500 C.3   325  ILE325      0.0001
    117  N         21.1310  -27.6010   36.8670 N.am  326  ASN326     -0.1974
    118  CA        20.2500  -28.5410   36.1580 C.3   326  ASN326      0.1688
    119  C         19.6450  -29.5430   37.1290 C.2   326  ASN326      0.2292
    120  O         18.4240  -29.7650   37.1640 O.2   326  ASN326     -0.2864
    121  CB        21.1030  -29.3100   35.1530 C.3   326  ASN326      0.1181
    122  CG        20.3020  -29.9030   34.0350 C.2   326  ASN326      0.2629
    123  OD1       20.4800  -31.0930   33.7110 O.2   326  ASN326     -0.2716
    124  ND2       19.4390  -29.0850   33.4140 N.am  326  ASN326     -0.0877
    125  N         17.7880  -23.0680   41.5100 N.3   331  PHE331     -0.1227
    126  CA        18.6710  -22.2670   40.7090 C.3   331  PHE331      0.1736
    127  C         17.7960  -21.9120   39.5080 C.2   331  PHE331      0.2595
    128  O         17.6180  -20.7170   39.1910 O.2   331  PHE331     -0.2718
    129  CB        19.8700  -23.1060   40.2710 C.3   331  PHE331      0.0547
    130  CG        21.1820  -22.4350   40.4700 C.ar  331  PHE331     -0.0202
    131  CD1       22.2880  -23.1560   40.8730 C.ar  331  PHE331     -0.0042
    132  CD2       21.3160  -21.0770   40.2660 C.ar  331  PHE331     -0.0042
    133  CE1       23.5140  -22.5410   41.0530 C.ar  331  PHE331     -0.0003
    134  CE2       22.5430  -20.4420   40.4400 C.ar  331  PHE331     -0.0003
    135  CZ        23.6410  -21.1720   40.8390 C.ar  331  PHE331     -0.0000
    136  N         17.1960  -22.9480   38.8930 N.am  332  GLN332     -0.1979
    137  CA        16.2910  -22.7620   37.7510 C.3   332  GLN332      0.1601
    138  C         15.2240  -21.6990   38.0290 C.2   332  GLN332      0.2287
    139  O         15.2960  -20.5940   37.4960 O.2   332  GLN332     -0.2864
    140  CB        15.6970  -24.0990   37.2770 C.3   332  GLN332      0.0394
    141  CG        16.6140  -24.7950   36.2440 C.3   332  GLN332      0.0908
    142  CD        16.3580  -26.3030   36.0610 C.2   332  GLN332      0.2608
    143  OE1       17.2500  -27.0320   35.5830 O.2   332  GLN332     -0.2717
    144  NE2       15.1480  -26.7760   36.4320 N.am  332  GLN332     -0.0878
    145  N         16.7220  -17.9040   38.4910 N.3   335  LEU335     -0.1231
    146  CA        17.4400  -17.2270   37.4260 C.3   335  LEU335      0.1693
    147  C         16.3320  -16.9110   36.4340 C.2   335  LEU335      0.2591
    148  O         16.4090  -15.9240   35.6970 O.2   335  LEU335     -0.2718
    149  CB        18.5190  -18.1460   36.8470 C.3   335  LEU335      0.0284
    150  CG        19.8790  -17.9200   37.4960 C.3   335  LEU335      0.0019
    151  CD1       20.6950  -19.1720   37.4450 C.3   335  LEU335      0.0001
    152  CD2       20.5410  -16.8300   36.7120 C.3   335  LEU335      0.0001
    153  N         15.2890  -17.7590   36.4750 N.am  336  ALA336     -0.1980
    154  CA        14.0030  -17.4750   35.8810 C.3   336  ALA336      0.1597
    155  C         13.5120  -16.1770   36.4950 C.2   336  ALA336      0.2287
    156  O         13.4820  -15.1480   35.7920 O.2   336  ALA336     -0.2864
    157  CB        13.0260  -18.5980   36.1440 C.3   336  ALA336      0.0319
    158  N         15.8090  -11.3430   35.8710 N.3   339  SER339     -0.1202
    159  CA        15.6500  -11.3530   34.4260 C.3   339  SER339      0.2020
    160  C         14.2170  -10.8860   34.2760 C.2   339  SER339      0.2618
    161  O         13.9710   -9.7320   33.9590 O.2   339  SER339     -0.2717
    162  CB        15.8430  -12.7520   33.8290 C.3   339  SER339      0.2103
    163  OG        16.8990  -13.4480   34.4780 O.3   339  SER339     -0.2182
    164  N         13.2620  -11.7570   34.6010 N.am  340  LEU340     -0.1979
    165  CA        11.8610  -11.3410   34.6250 C.3   340  LEU340      0.1596
    166  C         11.7670  -10.1670   35.5810 C.2   340  LEU340      0.2287
    167  O         11.2490   -9.1340   35.2460 O.2   340  LEU340     -0.2864
    168  CB        10.9280  -12.5130   35.0240 C.3   340  LEU340      0.0297
    169  CG         9.6030  -12.7380   34.2430 C.3   340  LEU340      0.0022
    170  CD1        9.8010  -12.9110   32.7340 C.3   340  LEU340      0.0001
    171  CD2        8.8330  -13.9280   34.7730 C.3   340  LEU340      0.0001
    172  N         13.6460   -7.2030   34.2140 N.3   343  ILE343     -0.1245
    173  CA        12.9470   -6.7380   32.9770 C.3   343  ILE343      0.1561
    174  C         11.4700   -6.3190   33.1520 C.2   343  ILE343      0.2260
    175  O         10.9260   -5.6290   32.3060 O.2   343  ILE343     -0.2867
    176  CB        13.0670   -7.7130   31.7380 C.3   343  ILE343      0.0252
    177  CG1       12.2870   -9.0280   31.9190 C.3   343  ILE343      0.0019
    178  CG2       14.5430   -7.9660   31.3130 C.3   343  ILE343      0.0019
    179  CD1       10.8590   -8.9820   31.4420 C.3   343  ILE343      0.0001
@<TRIPOS>BOND
     1    62    63    1
     2    64    65    2
     3    64    63    1
     4    63    66    1
     5    66    67    1
     6    54    53    2
     7    46    45    2
     8    53    52    1
     9    38    37    2
    10    43    44    1
    11    67    68   ar
    12    67    69   ar
    13    45    44    1
    14    45    51   am
    15    37    36    1
    16    44    47    1
    17    68    70   ar
    18    69    71   ar
    19    52    51    1
    20    52    55    1
    21    28    27    2
    22    55    56    1
    23    41    40    1
    24    36    35    1
    25    36    39    1
    26    27    35   am
    27    27    26    1
    28    70    72   ar
    29    25    26    1
    30    47    48    1
    31    71    72   ar
    32    26    29    1
    33    39    40    1
    34    40    42    1
    35    56    57   ar
    36    56    58   ar
    37    49    48    1
    38    20    19    2
    39    48    50    1
    40    19    18    1
    41    57    59   ar
    42    58    60   ar
    43    29    30    1
    44     6     7    1
    45    31    30   ar
    46    31    33   ar
    47     7     8    1
    48     7    10    1
    49    17    18    1
    50    17     8   am
    51    18    21    1
    52    30    32   ar
    53     8     9    2
    54    59    61   ar
    55    33    34   ar
    56    60    61   ar
    57    10    11    1
    58    32    34   ar
    59    21    22    1
    60    22    24    1
    61    22    23    1
    62     4     3    2
    63    73    74    1
    64    11    12    1
    65     3     2    1
    66    78    80    1
    67    78    77    1
    68    74    77    1
    69    74    75    1
    70    12    13    1
    71    77    79    1
    72     2     1    1
    73     2     5    1
    74    13    14    2
    75    75    76    2
    76    14    15    1
    77    14    16    1
    78    81    82    1
    79   108   107    1
    80    88    86    1
    81   107   105   ar
    82   107   106   ar
    83    84    83    2
    84    82    83    1
    85    82    85    1
    86   105   103   ar
    87   106   104   ar
    88   178   176    1
    89   179   177    1
    90    86    85    1
    91    86    87    1
    92   176   177    1
    93   176   173    1
    94   103   102   ar
    95   104   102   ar
    96   175   174    2
    97   102   101    1
    98   170   169    1
    99   173   174    1
   100   173   172    1
   101   101    98    1
   102   124   122   am
   103   123   122    2
   104   162   159    1
   105   162   163    1
   106   161   160    2
   107   122   121    1
   108   169   171    1
   109   169   168    1
   110   160   159    1
   111   160   164   am
   112   159   158    1
   113   164   165    1
   114   165   168    1
   115   165   166    1
   116    98    97    1
   117    98    99    1
   118   116   114    1
   119   121   118    1
   120   167   166    2
   121    97    91   am
   122    99   100    2
   123   115   113    1
   124   143   142    2
   125   148   147    2
   126   156   155    2
   127   154   157    1
   128   154   153    1
   129   154   155    1
   130   142   141    1
   131   142   144   am
   132   118   117    1
   133   118   119    1
   134   141   140    1
   135   114   113    1
   136   147   153   am
   137   147   146    1
   138    91    92    2
   139    91    90    1
   140   152   150    1
   141    93    90    1
   142    93    94    1
   143   113   110    1
   144   149   146    1
   145   149   150    1
   146   117   111   am
   147    89    90    1
   148   119   120    2
   149   112   111    2
   150   111   110    1
   151   140   137    1
   152    95    94    1
   153   146   145    1
   154   151   150    1
   155   139   138    2
   156   137   138    1
   157   137   136    1
   158    94    96    1
   159   110   109    1
   160   136   127   am
   161   128   127    2
   162   127   126    1
   163   132   134   ar
   164   132   130   ar
   165   129   130    1
   166   129   126    1
   167   134   135   ar
   168   130   131   ar
   169   126   125    1
   170   135   133   ar
   171   131   133   ar
