@<TRIPOS>MOLECULE
tmp/2wseD08.pdb
 131 129 0 0 0
SMALL
GASTEIGER

@<TRIPOS>ATOM
      1  N         62.1160    5.9360   55.6500 N.3    11  PHE11      -0.1241
      2  CA        62.0730    7.3490   55.4150 C.3    11  PHE11       0.1605
      3  C         63.0870    8.2860   55.9960 C.2    11  PHE11       0.2264
      4  O         62.9200    9.5160   56.0290 O.2    11  PHE11      -0.2867
      5  CB        60.7260    7.8470   54.9580 C.3    11  PHE11       0.0534
      6  CG        60.2790    7.2090   53.6780 C.ar   11  PHE11      -0.0203
      7  CD1       60.8790    6.0840   53.2370 C.ar   11  PHE11      -0.0042
      8  CD2       59.2640    7.7410   52.9360 C.ar   11  PHE11      -0.0042
      9  CE1       60.4720    5.5190   52.0980 C.ar   11  PHE11      -0.0003
     10  CE2       58.8740    7.1580   51.7940 C.ar   11  PHE11      -0.0003
     11  CZ        59.4700    6.0600   51.3780 C.ar   11  PHE11      -0.0000
     12  N         65.7150    8.2600   54.1900 N.3    13  GLN13      -0.1231
     13  CA        66.0110    8.8170   52.9080 C.3    13  GLN13       0.1698
     14  C         64.8190    9.6670   52.5780 C.2    13  GLN13       0.2592
     15  O         64.9430   10.7370   52.0030 O.2    13  GLN13      -0.2718
     16  CB        66.2140    7.7370   51.8780 C.3    13  GLN13       0.0381
     17  CG        66.9310    8.2200   50.6830 C.3    13  GLN13       0.0905
     18  CD        68.3360    7.7420   50.6120 C.2    13  GLN13       0.2608
     19  OE1       68.8800    7.2350   51.5620 O.2    13  GLN13      -0.2717
     20  NE2       68.9310    7.8810   49.4730 N.am   13  GLN13      -0.0878
     21  N         63.6440    9.2200   53.0020 N.am   14  ALA14      -0.1980
     22  CA        62.5300   10.1680   53.0590 C.3    14  ALA14       0.1597
     23  C         62.9780   11.6320   53.1930 C.2    14  ALA14       0.2287
     24  O         62.6350   12.4740   52.3940 O.2    14  ALA14      -0.2864
     25  CB        61.6260    9.8010   54.1660 C.3    14  ALA14       0.0319
     26  N         66.1140   14.3110   51.0270 N.3    17  VAL17      -0.1231
     27  CA        65.5580   14.8380   49.7600 C.3    17  VAL17       0.1692
     28  C         64.6600   16.0570   49.9890 C.2    17  VAL17       0.2592
     29  O         64.5920   16.9760   49.1480 O.2    17  VAL17      -0.2718
     30  CB        64.7220   13.7860   49.0030 C.3    17  VAL17       0.0266
     31  CG1       64.6840   14.1180   47.5310 C.3    17  VAL17       0.0020
     32  CG2       65.2960   12.4090   49.1960 C.3    17  VAL17       0.0020
     33  N         63.9650   16.0520   51.1270 N.am   18  ASN18      -0.1974
     34  CA        63.2390   17.2440   51.5720 C.3    18  ASN18       0.1688
     35  C         64.2980   18.2950   51.9190 C.2    18  ASN18       0.2292
     36  O         64.3910   19.3570   51.2800 O.2    18  ASN18      -0.2864
     37  CB        62.3540   16.9400   52.7960 C.3    18  ASN18       0.1181
     38  CG        61.1370   16.1290   52.4610 C.2    18  ASN18       0.2629
     39  OD1       61.0700   14.9470   52.7710 O.2    18  ASN18      -0.2716
     40  ND2       60.1680   16.7510   51.8080 N.am   18  ASN18      -0.0877
     41  N         66.3580   19.6610   48.9500 N.3    21  TRP21      -0.1241
     42  CA        65.4890   20.4760   48.0680 C.3    21  TRP21       0.1605
     43  C         64.8140   21.7390   48.6970 C.2    21  TRP21       0.2264
     44  O         64.5060   22.7120   47.9870 O.2    21  TRP21      -0.2867
     45  CB        64.4800   19.6220   47.2640 C.3    21  TRP21       0.0550
     46  CG        64.9380   19.5180   45.8370 C.ar   21  TRP21       0.0003
     47  CD1       65.6140   20.4850   45.1140 C.ar   21  TRP21       0.0946
     48  CD2       64.7800   18.4000   44.9550 C.ar   21  TRP21       0.0152
     49  NE1       65.8960   20.0270   43.8510 N.ar   21  TRP21      -0.2442
     50  CE2       65.3990   18.7510   43.7260 C.ar   21  TRP21       0.0810
     51  CE3       64.1930   17.1350   45.0840 C.ar   21  TRP21       0.0012
     52  CZ2       65.4460   17.8860   42.6510 C.ar   21  TRP21       0.0191
     53  CZ3       64.2310   16.2750   44.0120 C.ar   21  TRP21       0.0001
     54  CH2       64.8580   16.6560   42.8070 C.ar   21  TRP21       0.0015
     55  N         60.4940   17.7540   33.3100 N.3    66  PHE66      -0.1241
     56  CA        60.4150   16.8920   34.4090 C.3    66  PHE66       0.1605
     57  C         59.9880   15.5030   33.9360 C.2    66  PHE66       0.2264
     58  O         59.9720   14.5750   34.7140 O.2    66  PHE66      -0.2867
     59  CB        59.5370   17.5750   35.4350 C.3    66  PHE66       0.0534
     60  CG        59.9480   19.0000   35.6840 C.ar   66  PHE66      -0.0203
     61  CD1       60.4420   19.7600   34.6720 C.ar   66  PHE66      -0.0042
     62  CD2       59.8990   19.5500   36.9410 C.ar   66  PHE66      -0.0042
     63  CE1       60.8400   21.0540   34.9050 C.ar   66  PHE66      -0.0003
     64  CE2       60.3110   20.8350   37.1820 C.ar   66  PHE66      -0.0003
     65  CZ        60.7780   21.5890   36.1690 C.ar   66  PHE66      -0.0000
     66  N         63.2090   14.6450   34.6270 N.3    69  SER69      -0.1202
     67  CA        63.4340   14.4510   36.0240 C.3    69  SER69       0.2020
     68  C         62.9410   13.0480   36.1870 C.2    69  SER69       0.2618
     69  O         63.3570   12.3020   37.0390 O.2    69  SER69      -0.2717
     70  CB        62.5970   15.4040   36.8260 C.3    69  SER69       0.2103
     71  OG        61.2470   15.1640   36.5180 O.3    69  SER69      -0.2182
     72  N         62.0510   12.6640   35.3060 N.am   70  HIS70      -0.1975
     73  CA        61.2300   11.4860   35.5460 C.3    70  HIS70       0.1656
     74  C         61.9590   10.1850   35.4410 C.2    70  HIS70       0.2291
     75  O         61.9970    9.4150   36.3880 O.2    70  HIS70      -0.2864
     76  CB        60.0690   11.3350   34.6210 C.3    70  HIS70       0.0771
     77  CG        59.5230    9.9460   34.6430 C.ar   70  HIS70       0.0820
     78  ND1       59.8590    9.0490   35.6230 N.ar   70  HIS70      -0.2267
     79  CD2       58.6880    9.2860   33.8140 C.ar   70  HIS70       0.1154
     80  CE1       59.2460    7.9080   35.3980 C.ar   70  HIS70       0.1986
     81  NE2       58.5330    8.0220   34.3040 N.ar   70  HIS70      -0.2212
     82  N         64.5840    9.9240   38.1120 N.3    73  GLU73      -0.1231
     83  CA        64.0040    9.6330   39.3770 C.3    73  GLU73       0.1699
     84  C         63.6540    8.1490   39.4940 C.2    73  GLU73       0.2592
     85  O         63.8600    7.5230   40.5400 O.2    73  GLU73      -0.2718
     86  CB        62.7860   10.5160   39.5460 C.3    73  GLU73       0.0402
     87  CG        63.0250   11.9810   39.2700 C.3    73  GLU73       0.1161
     88  CD        61.7760   12.7370   38.9150 C.2    73  GLU73       0.3649
     89  OE1       61.8790   13.6690   38.1330 O.co2  73  GLU73      -0.2457
     90  OE2       60.6840   12.4300   39.4180 O.co2  73  GLU73      -0.2457
     91  N         63.1530    7.5550   38.4210 N.am   74  ILE74      -0.1980
     92  CA        62.9740    6.1140   38.4980 C.3    74  ILE74       0.1595
     93  C         64.3170    5.5870   38.9140 C.2    74  ILE74       0.2287
     94  O         64.3950    4.5870   39.5690 O.2    74  ILE74      -0.2864
     95  CB        62.5750    5.4310   37.1950 C.3    74  ILE74       0.0276
     96  CG1       62.5530    6.4070   36.0450 C.3    74  ILE74       0.0022
     97  CG2       61.2660    4.7780   37.3370 C.3    74  ILE74       0.0022
     98  CD1       61.3560    7.2420   36.0210 C.3    74  ILE74       0.0001
     99  N         66.9020    6.9180   40.9380 N.3    76  ARG76      -0.1231
    100  CA        67.0020    6.7880   42.4000 C.3    76  ARG76       0.1694
    101  C         66.1330    5.7160   43.0560 C.2    76  ARG76       0.2592
    102  O         66.4820    5.2220   44.0870 O.2    76  ARG76      -0.2718
    103  CB        66.7220    8.0680   43.1370 C.3    76  ARG76       0.0321
    104  CG        66.3750    7.7260   44.5460 C.3    76  ARG76       0.0489
    105  CD        66.9500    8.6880   45.5260 C.3    76  ARG76       0.2205
    106  NE        66.0010    8.9900   46.5580 N.pl3  76  ARG76      -0.0865
    107  CZ        64.9880    9.8150   46.4060 C.cat  76  ARG76       0.5346
    108  NH1       64.1670   10.0300   47.3820 N.pl3  76  ARG76       0.1354
    109  NH2       64.7910   10.4130   45.2770 N.pl3  76  ARG76       0.1354
    110  N         64.9710    5.4170   42.5000 N.am   77  TRP77      -0.1976
    111  CA        64.2680    4.1430   42.7660 C.3    77  TRP77       0.1640
    112  C         65.1070    2.8980   42.6070 C.2    77  TRP77       0.2290
    113  O         65.4450    2.2550   43.5730 O.2    77  TRP77      -0.2864
    114  CB        63.0940    4.0120   41.7930 C.3    77  TRP77       0.0576
    115  CG        61.9760    3.0020   42.0840 C.ar   77  TRP77       0.0006
    116  CD1       62.0310    1.6530   41.9590 C.ar   77  TRP77       0.0946
    117  CD2       60.6370    3.3030   42.4440 C.ar   77  TRP77       0.0152
    118  NE1       60.8310    1.0970   42.2640 N.ar   77  TRP77      -0.2442
    119  CE2       59.9590    2.1000   42.5700 C.ar   77  TRP77       0.0810
    120  CE3       59.9540    4.4780   42.6960 C.ar   77  TRP77       0.0012
    121  CZ2       58.6580    2.0320   42.9410 C.ar   77  TRP77       0.0191
    122  CZ3       58.6580    4.4100   43.0560 C.ar   77  TRP77       0.0001
    123  CH2       58.0170    3.2030   43.1800 C.ar   77  TRP77       0.0015
    124  N         67.0840    2.3910   45.6790 N.3    80  ILE80      -0.1245
    125  CA        66.7580    2.1160   47.1070 C.3    80  ILE80       0.1561
    126  C         66.0570    0.8250   47.5320 C.2    80  ILE80       0.2260
    127  O         66.1320    0.4490   48.7230 O.2    80  ILE80      -0.2867
    128  CB        65.9940    3.2660   47.7880 C.3    80  ILE80       0.0252
    129  CG1       64.9710    3.9130   46.8490 C.3    80  ILE80       0.0019
    130  CG2       66.9800    4.2930   48.2720 C.3    80  ILE80       0.0019
    131  CD1       64.0280    2.9490   46.1390 C.3    80  ILE80       0.0001
@<TRIPOS>BOND
     1    55    56    1
     2    79    81   ar
     3    79    77   ar
     4    57    56    1
     5    57    58    2
     6    81    80   ar
     7    56    59    1
     8    76    77    1
     9    76    73    1
    10    66    67    1
    11    77    78   ar
    12    61    63   ar
    13    61    60   ar
    14    63    65   ar
    15    72    73    1
    16    72    68   am
    17    80    78   ar
    18    59    60    1
    19    74    73    1
    20    74    75    2
    21    60    62   ar
    22    98    96    1
    23    67    68    1
    24    67    70    1
    25    96    95    1
    26    65    64   ar
    27    68    69    2
    28    71    70    1
    29    62    64   ar
    30    95    97    1
    31    95    92    1
    32    82    83    1
    33    89    88   ar
    34    91    92    1
    35    91    84   am
    36    92    93    1
    37    93    94    2
    38    88    87    1
    39    88    90   ar
    40    87    86    1
    41    83    84    1
    42    83    86    1
    43    84    85    2
    44    99   100    1
    45   114   115    1
    46   114   111    1
    47   116   115   ar
    48   116   118   ar
    49   115   117   ar
    50   118   119   ar
    51   100   101    1
    52   100   103    1
    53   117   119   ar
    54   117   120   ar
    55   110   111    1
    56   110   101   am
    57   119   121   ar
    58   112   111    1
    59   112   113    2
    60    52    54   ar
    61    52    50   ar
    62   120   122   ar
    63    54    53   ar
    64   121   123   ar
    65   122   123   ar
    66   101   102    2
    67   103   104    1
    68    50    49   ar
    69    50    48   ar
    70    49    47   ar
    71    53    51   ar
    72   104   105    1
    73    48    51   ar
    74    48    46   ar
    75    47    46   ar
    76   109   107    1
    77   105   106    1
    78   124   125    1
    79    46    45    1
    80   131   129    1
    81   107   106    2
    82   107   108    1
    83   129   128    1
    84   125   126    1
    85   125   128    1
    86    45    42    1
    87    31    30    1
    88   126   127    2
    89   128   130    1
    90    44    43    2
    91    42    43    1
    92    42    41    1
    93    30    32    1
    94    30    27    1
    95    29    28    2
    96    20    18   am
    97    27    28    1
    98    27    26    1
    99    28    33   am
   100    18    17    1
   101    18    19    2
   102    17    16    1
   103    33    34    1
   104    36    35    2
   105    11    10   ar
   106    11     9   ar
   107    34    35    1
   108    34    37    1
   109    10     8   ar
   110    40    38   am
   111    16    13    1
   112    15    14    2
   113     9     7   ar
   114    24    23    2
   115    38    39    2
   116    38    37    1
   117    14    13    1
   118    14    21   am
   119    13    12    1
   120     8     6   ar
   121    21    22    1
   122    22    23    1
   123    22    25    1
   124     7     6   ar
   125     6     5    1
   126     5     2    1
   127     2     1    1
   128     2     3    1
   129     3     4    2
