@<TRIPOS>MOLECULE
tmp/2wseF18.pdb
 240 232 0 0 0
SMALL
GASTEIGER

@<TRIPOS>ATOM
      1  N         -4.7880  -18.3020   32.3360 N.3    56  ILE56      -0.1231
      2  CA        -4.4390  -16.9590   31.8010 C.3    56  ILE56       0.1692
      3  C         -5.3390  -16.5760   30.6310 C.2    56  ILE56       0.2592
      4  O         -5.4640  -15.3840   30.3120 O.2    56  ILE56      -0.2718
      5  CB        -2.9050  -16.8110   31.4640 C.3    56  ILE56       0.0266
      6  CG1       -2.2040  -16.0480   32.5710 C.3    56  ILE56       0.0019
      7  CG2       -2.6850  -15.9700   30.2470 C.3    56  ILE56       0.0020
      8  CD1       -0.7850  -16.3960   32.7050 C.3    56  ILE56       0.0001
      9  N         -5.9730  -17.5860   30.0290 N.am   57  PHE57      -0.1976
     10  CA        -6.8730  -17.3630   28.9050 C.3    57  PHE57       0.1639
     11  C         -8.3700  -17.2290   29.2880 C.2    57  PHE57       0.2290
     12  O         -9.1470  -16.6300   28.5390 O.2    57  PHE57      -0.2864
     13  CB        -6.6320  -18.3720   27.7700 C.3    57  PHE57       0.0560
     14  CG        -5.2110  -18.3180   27.1570 C.ar   57  PHE57      -0.0200
     15  CD1       -4.3060  -17.3200   27.4930 C.ar   57  PHE57      -0.0042
     16  CD2       -4.8110  -19.2710   26.2240 C.ar   57  PHE57      -0.0042
     17  CE1       -3.0370  -17.2840   26.9340 C.ar   57  PHE57      -0.0003
     18  CE2       -3.5400  -19.2300   25.6610 C.ar   57  PHE57      -0.0003
     19  CZ        -2.6520  -18.2290   26.0140 C.ar   57  PHE57      -0.0000
     20  N         -8.9430  -15.5090   31.8270 N.3    59  TRP59      -0.1227
     21  CA        -8.7860  -14.1530   32.3060 C.3    59  TRP59       0.1737
     22  C         -9.0020  -13.2640   31.0980 C.2    59  TRP59       0.2596
     23  O        -10.0220  -12.5620   31.0210 O.2    59  TRP59      -0.2718
     24  CB        -7.3660  -14.0300   32.8420 C.3    59  TRP59       0.0564
     25  CG        -6.9880  -12.7620   33.4630 C.ar   59  TRP59       0.0003
     26  CD1       -7.5980  -12.1460   34.5000 C.ar   59  TRP59       0.0946
     27  CD2       -5.8120  -11.9930   33.1580 C.ar   59  TRP59       0.0152
     28  NE1       -6.8980  -11.0160   34.8430 N.ar   59  TRP59      -0.2442
     29  CE2       -5.7990  -10.8990   34.0250 C.ar   59  TRP59       0.0810
     30  CE3       -4.7780  -12.1180   32.2110 C.ar   59  TRP59       0.0012
     31  CZ2       -4.8120   -9.9240   33.9680 C.ar   59  TRP59       0.0191
     32  CZ3       -3.7900  -11.1550   32.1670 C.ar   59  TRP59       0.0001
     33  CH2       -3.8140  -10.0750   33.0360 C.ar   59  TRP59       0.0015
     34  N         -8.0760  -13.3820   30.1370 N.am   60  THR60      -0.1953
     35  CA        -8.0610  -12.6080   28.9000 C.3    60  THR60       0.1897
     36  C         -9.3490  -12.6720   28.0800 C.2    60  THR60       0.2313
     37  O         -9.7960  -11.6290   27.5250 O.2    60  THR60      -0.2863
     38  CB        -6.8980  -13.0190   28.0320 C.3    60  THR60       0.1794
     39  OG1       -5.7570  -13.2720   28.8690 O.3    60  THR60      -0.2208
     40  CG2       -6.5760  -11.8890   27.0780 C.3    60  THR60       0.0378
     41  N        -11.7830  -10.4980   29.6960 N.3    63  ASN63      -0.1240
     42  CA       -11.2950   -9.1540   29.5360 C.3    63  ASN63       0.1653
     43  C        -11.8640   -8.6520   28.2240 C.2    63  ASN63       0.2266
     44  O        -12.4440   -7.5600   28.1360 O.2    63  ASN63      -0.2867
     45  CB        -9.7550   -9.1370   29.6160 C.3    63  ASN63       0.1155
     46  CG        -9.2240   -9.6940   30.9650 C.2    63  ASN63       0.2627
     47  OD1       -9.9970   -9.8670   31.9460 O.2    63  ASN63      -0.2716
     48  ND2       -7.9040   -9.9850   31.0120 N.am   63  ASN63      -0.0877
     49  N         -6.6310   -0.6200   33.0800 N.3   117  SER117     -0.1202
     50  CA        -5.7710   -1.4690   32.2100 C.3   117  SER117      0.2020
     51  C         -5.6440   -0.8190   30.8220 C.2   117  SER117      0.2619
     52  O         -6.5530   -0.0960   30.3800 O.2   117  SER117     -0.2717
     53  CB        -6.3550   -2.9150   32.0500 C.3   117  SER117      0.2103
     54  OG        -7.1090   -3.1110   30.8360 O.3   117  SER117     -0.2182
     55  N         -4.5350   -1.1080   30.1330 N.am  118  GLY118     -0.1942
     56  CA        -4.3010   -0.5800   28.7950 C.3   118  GLY118      0.2014
     57  C         -5.1220   -1.2040   27.6760 C.2   118  GLY118      0.2638
     58  O         -5.6170   -0.4760   26.8120 O.2   118  GLY118     -0.2714
     59  N         -5.2420   -2.5390   27.6710 N.am  119  VAL119     -0.1977
     60  CA        -6.1100   -3.2950   26.7400 C.3   119  VAL119      0.1596
     61  C         -6.9450   -2.4450   25.7620 C.2   119  VAL119      0.2287
     62  O         -6.9630   -2.7160   24.5650 O.2   119  VAL119     -0.2864
     63  CB        -7.0890   -4.2410   27.4850 C.3   119  VAL119      0.0276
     64  CG1       -8.1120   -4.8430   26.5340 C.3   119  VAL119      0.0022
     65  CG2       -6.3400   -5.3540   28.2030 C.3   119  VAL119      0.0022
     66  N         -4.9290   -1.1260   23.1280 N.3   122  TRP122     -0.1241
     67  CA        -4.2010   -2.0720   22.2920 C.3   122  TRP122      0.1605
     68  C         -5.0750   -3.1000   21.5850 C.2   122  TRP122      0.2264
     69  O         -4.6930   -3.5400   20.5170 O.2   122  TRP122     -0.2867
     70  CB        -3.0190   -2.7140   23.0260 C.3   122  TRP122      0.0550
     71  CG        -3.3890   -3.8470   23.9070 C.ar  122  TRP122      0.0003
     72  CD1       -4.4380   -3.9050   24.8020 C.ar  122  TRP122      0.0946
     73  CD2       -2.7020   -5.1000   24.0090 C.ar  122  TRP122      0.0152
     74  NE1       -4.4550   -5.1320   25.4350 N.ar  122  TRP122     -0.2442
     75  CE2       -3.3960   -5.8820   24.9720 C.ar  122  TRP122      0.0810
     76  CE3       -1.5740   -5.6460   23.3790 C.ar  122  TRP122      0.0012
     77  CZ2       -2.9910   -7.1580   25.3150 C.ar  122  TRP122      0.0191
     78  CZ3       -1.1870   -6.9230   23.7230 C.ar  122  TRP122      0.0001
     79  CH2       -1.8870   -7.6620   24.6850 C.ar  122  TRP122      0.0015
     80  N        -12.1170  -17.1020   20.4190 N.3   140  PHE140     -0.1227
     81  CA       -10.7800  -17.6820   20.1480 C.3   140  PHE140      0.1736
     82  C        -10.0590  -18.0420   21.4670 C.2   140  PHE140      0.2595
     83  O        -10.1860  -19.1760   21.9550 O.2   140  PHE140     -0.2718
     84  CB        -9.9110  -16.8200   19.1930 C.3   140  PHE140      0.0547
     85  CG        -8.5000  -17.3320   19.0220 C.ar  140  PHE140     -0.0202
     86  CD1       -7.4020  -16.5090   19.2930 C.ar  140  PHE140     -0.0042
     87  CD2       -8.2670  -18.6430   18.6340 C.ar  140  PHE140     -0.0042
     88  CE1       -6.0950  -16.9850   19.1470 C.ar  140  PHE140     -0.0003
     89  CE2       -6.9800  -19.1230   18.5040 C.ar  140  PHE140     -0.0003
     90  CZ        -5.8930  -18.2980   18.7520 C.ar  140  PHE140     -0.0000
     91  N         -9.3450  -17.0710   22.0400 N.am  141  LEU141     -0.1980
     92  CA        -8.6670  -17.2330   23.3140 C.3   141  LEU141      0.1596
     93  C         -9.1600  -18.4010   24.1610 C.2   141  LEU141      0.2287
     94  O         -8.3740  -18.9990   24.8800 O.2   141  LEU141     -0.2864
     95  CB        -8.8320  -15.9800   24.1570 C.3   141  LEU141      0.0297
     96  CG        -7.7280  -14.9230   24.2320 C.3   141  LEU141      0.0022
     97  CD1       -6.3500  -15.5290   23.9340 C.3   141  LEU141      0.0001
     98  CD2       -8.0530  -13.7100   23.3370 C.3   141  LEU141      0.0001
     99  N         -8.9870  -21.6620   22.7560 N.3   144  LEU144     -0.1245
    100  CA        -7.5790  -21.8370   23.0050 C.3   144  LEU144      0.1561
    101  C         -7.4440  -22.3150   24.4380 C.2   144  LEU144      0.2260
    102  O         -7.0040  -23.4410   24.6790 O.2   144  LEU144     -0.2867
    103  CB        -6.8550  -20.5080   22.7850 C.3   144  LEU144      0.0270
    104  CG        -5.5800  -20.4710   21.9510 C.3   144  LEU144      0.0019
    105  CD1       -4.3770  -20.8070   22.8110 C.3   144  LEU144      0.0001
    106  CD2       -5.7260  -21.4370   20.8090 C.3   144  LEU144      0.0001
    107  N         10.3330  -16.9410   16.1890 N.3   184  VAL184     -0.1231
    108  CA         9.0850  -17.0980   15.4420 C.3   184  VAL184      0.1692
    109  C          7.8740  -16.4790   16.1850 C.2   184  VAL184      0.2592
    110  O          6.8470  -16.1740   15.5580 O.2   184  VAL184     -0.2718
    111  CB         8.8370  -18.6050   15.0900 C.3   184  VAL184      0.0266
    112  CG1        7.3590  -18.8960   14.7240 C.3   184  VAL184      0.0020
    113  CG2        9.7970  -19.0430   13.9860 C.3   184  VAL184      0.0020
    114  N          7.9910  -16.2890   17.5020 N.am  185  SER185     -0.1952
    115  CA         6.8940  -15.7290   18.3000 C.3   185  SER185      0.1924
    116  C          6.8430  -14.2460   18.0500 C.2   185  SER185      0.2314
    117  O          5.7690  -13.6620   17.8270 O.2   185  SER185     -0.2863
    118  CB         7.1190  -15.9870   19.7710 C.3   185  SER185      0.2116
    119  OG         5.9270  -15.7300   20.5190 O.3   185  SER185     -0.2180
    120  N          6.1960  -14.0200   13.6120 N.3   188  ALA188     -0.1231
    121  CA         4.7130  -14.1430   13.5370 C.3   188  ALA188      0.1694
    122  C          3.9110  -12.9290   14.0190 C.2   188  ALA188      0.2592
    123  O          2.8620  -12.5940   13.4650 O.2   188  ALA188     -0.2718
    124  CB         4.2330  -15.3930   14.2450 C.3   188  ALA188      0.0304
    125  N          4.3970  -12.2850   15.0710 N.am  189  TRP189     -0.1976
    126  CA         3.8530  -10.9810   15.4690 C.3   189  TRP189      0.1640
    127  C          4.2260   -9.9860   14.3920 C.2   189  TRP189      0.2290
    128  O          3.3350   -9.3750   13.8100 O.2   189  TRP189     -0.2864
    129  CB         4.3720  -10.5380   16.8410 C.3   189  TRP189      0.0576
    130  CG         3.6750   -9.3450   17.4080 C.ar  189  TRP189      0.0006
    131  CD1        4.2670   -8.1800   17.7980 C.ar  189  TRP189      0.0946
    132  CD2        2.2500   -9.1950   17.6850 C.ar  189  TRP189      0.0152
    133  NE1        3.3110   -7.3060   18.3020 N.ar  189  TRP189     -0.2442
    134  CE2        2.0650   -7.8990   18.2300 C.ar  189  TRP189      0.0810
    135  CE3        1.1190  -10.0250   17.5330 C.ar  189  TRP189      0.0012
    136  CZ2        0.7880   -7.4130   18.6140 C.ar  189  TRP189      0.0191
    137  CZ3       -0.1460   -9.5330   17.9240 C.ar  189  TRP189      0.0001
    138  CH2       -0.2940   -8.2460   18.4590 C.ar  189  TRP189      0.0015
    139  N         13.2620  -11.7570   34.6010 N.3   340  LEU340     -0.1245
    140  CA        11.8610  -11.3410   34.6250 C.3   340  LEU340      0.1561
    141  C         11.7670  -10.1670   35.5810 C.2   340  LEU340      0.2260
    142  O         11.2490   -9.1340   35.2460 O.2   340  LEU340     -0.2867
    143  CB        10.9280  -12.5130   35.0240 C.3   340  LEU340      0.0270
    144  CG         9.6030  -12.7380   34.2430 C.3   340  LEU340      0.0019
    145  CD1        9.8010  -12.9110   32.7340 C.3   340  LEU340      0.0001
    146  CD2        8.8330  -13.9280   34.7730 C.3   340  LEU340      0.0001
    147  N         13.6460   -7.2030   34.2140 N.3   343  ILE343     -0.1231
    148  CA        12.9470   -6.7380   32.9770 C.3   343  ILE343      0.1692
    149  C         11.4700   -6.3190   33.1520 C.2   343  ILE343      0.2592
    150  O         10.9260   -5.6290   32.3060 O.2   343  ILE343     -0.2718
    151  CB        13.0670   -7.7130   31.7380 C.3   343  ILE343      0.0266
    152  CG1       12.2870   -9.0280   31.9190 C.3   343  ILE343      0.0019
    153  CG2       14.5430   -7.9660   31.3130 C.3   343  ILE343      0.0020
    154  CD1       10.8590   -8.9820   31.4420 C.3   343  ILE343      0.0001
    155  N         10.8390   -6.7600   34.2470 N.am  344  THR344     -0.1953
    156  CA         9.4200   -6.4300   34.5610 C.3   344  THR344      0.1897
    157  C          9.3300   -4.9310   34.8030 C.2   344  THR344      0.2313
    158  O          8.2680   -4.3330   34.6300 O.2   344  THR344     -0.2863
    159  CB         8.8420   -7.1850   35.8220 C.3   344  THR344      0.1794
    160  OG1        9.2320   -8.5740   35.8310 O.3   344  THR344     -0.2208
    161  CG2        7.3120   -7.1180   35.8820 C.3   344  THR344      0.0378
    162  N         10.4240   -3.1960   31.2690 N.3   347  VAL347     -0.1245
    163  CA         9.0750   -3.1310   30.6670 C.3   347  VAL347      0.1561
    164  C          8.4090   -1.8490   31.1180 C.2   347  VAL347      0.2260
    165  O          8.1240   -0.9680   30.3210 O.2   347  VAL347     -0.2867
    166  CB         8.1520   -4.3640   31.0740 C.3   347  VAL347      0.0252
    167  CG1        6.7420   -3.9240   31.4330 C.3   347  VAL347      0.0019
    168  CG2        8.1060   -5.3920   29.9750 C.3   347  VAL347      0.0019
    169  N          7.7120    1.5160   29.3880 N.3   351  MET351     -0.1245
    170  CA         6.3130    1.6430   28.9740 C.3   351  MET351      0.1570
    171  C          5.7920    3.0450   29.1700 C.2   351  MET351      0.2261
    172  O          4.6880    3.3470   28.7030 O.2   351  MET351     -0.2867
    173  CB         5.4050    0.6740   29.7200 C.3   351  MET351      0.0387
    174  CG         5.3180   -0.6570   29.0750 C.3   351  MET351      0.0595
    175  SD         3.6260   -1.2350   29.1350 S.3   351  MET351     -0.1393
    176  CE         2.8340    0.3730   29.0360 C.3   351  MET351      0.0692
    177  N          1.0440    3.2350   22.5730 N.3   357  TYR357     -0.1241
    178  CA        -0.4160    3.1680   22.3240 C.3   357  TYR357      0.1605
    179  C         -1.2310    4.4250   21.9760 C.2   357  TYR357      0.2264
    180  O         -0.9850    5.5320   22.4510 O.2   357  TYR357     -0.2867
    181  CB        -1.1380    2.3600   23.4090 C.3   357  TYR357      0.0534
    182  CG        -0.7000    0.9180   23.4930 C.ar  357  TYR357     -0.0201
    183  CD1       -0.4200    0.1810   22.3440 C.ar  357  TYR357     -0.0009
    184  CD2       -0.5860    0.2930   24.7310 C.ar  357  TYR357     -0.0009
    185  CE1       -0.0030   -1.1400   22.4170 C.ar  357  TYR357      0.0417
    186  CE2       -0.1820   -1.0450   24.8250 C.ar  357  TYR357      0.0417
    187  CZ         0.1130   -1.7580   23.6640 C.ar  357  TYR357      0.1957
    188  OH         0.5100   -3.0810   23.7640 O.3   357  TYR357     -0.2866
    189  N         -2.4470    7.5620   25.2920 N.3   360  ILE360     -0.1245
    190  CA        -1.8510    6.9380   26.4960 C.3   360  ILE360      0.1561
    191  C         -0.7070    7.7990   27.0700 C.2   360  ILE360      0.2260
    192  O          0.3330    8.0130   26.4160 O.2   360  ILE360     -0.2867
    193  CB        -1.3630    5.4880   26.2270 C.3   360  ILE360      0.0252
    194  CG1       -2.2380    4.4720   26.9840 C.3   360  ILE360      0.0019
    195  CG2        0.0870    5.3050   26.6150 C.3   360  ILE360      0.0019
    196  CD1       -2.3540    4.6780   28.4960 C.3   360  ILE360      0.0001
    197  N         -0.3840    1.3700   36.2080 N.3   370  LEU370     -0.1245
    198  CA         0.0480    0.4790   35.1140 C.3   370  LEU370      0.1561
    199  C          1.5900    0.4920   34.9630 C.2   370  LEU370      0.2260
    200  O          2.1870   -0.3920   34.3330 O.2   370  LEU370     -0.2867
    201  CB        -0.6040    0.8860   33.7890 C.3   370  LEU370      0.0270
    202  CG        -0.2730   -0.0090   32.5940 C.3   370  LEU370      0.0019
    203  CD1       -1.2990   -1.1460   32.4480 C.3   370  LEU370      0.0001
    204  CD2       -0.1850    0.8020   31.3290 C.3   370  LEU370      0.0001
    205  N          1.8540   -1.7500   38.6660 N.3   373  HIS373     -0.1226
    206  CA         1.3870   -3.1120   38.7150 C.3   373  HIS373      0.1752
    207  C          2.3900   -3.8060   37.8310 C.2   373  HIS373      0.2596
    208  O          2.0220   -4.5860   36.9680 O.2   373  HIS373     -0.2718
    209  CB        -0.0200   -3.1220   38.1020 C.3   373  HIS373      0.0759
    210  CG        -0.3260   -4.3250   37.2710 C.ar  373  HIS373      0.0818
    211  ND1       -0.2880   -4.2930   35.8920 N.ar  373  HIS373     -0.2268
    212  CD2       -0.6640   -5.5990   37.6150 C.ar  373  HIS373      0.1154
    213  CE1       -0.5840   -5.5000   35.4250 C.ar  373  HIS373      0.1986
    214  NE2       -0.8190   -6.3080   36.4470 N.ar  373  HIS373     -0.2212
    215  N          3.6720   -3.4860   38.0220 N.am  374  HIS374     -0.1975
    216  CA         4.7170   -3.7810   37.0560 C.3   374  HIS374      0.1656
    217  C          5.8640   -3.0950   37.6750 C.2   374  HIS374      0.2291
    218  O          6.9720   -3.0840   37.1290 O.2   374  HIS374     -0.2864
    219  CB         4.4940   -3.0430   35.7470 C.3   374  HIS374      0.0771
    220  CG         3.7880   -3.8400   34.7050 C.ar  374  HIS374      0.0820
    221  ND1        3.8400   -5.2190   34.6590 N.ar  374  HIS374     -0.2267
    222  CD2        3.0190   -3.4510   33.6650 C.ar  374  HIS374      0.1154
    223  CE1        3.1170   -5.6460   33.6440 C.ar  374  HIS374      0.1986
    224  NE2        2.6160   -4.5970   33.0180 N.ar  374  HIS374     -0.2212
    225  N          4.5980   -6.4090   41.9460 N.3   377  ILE377     -0.1245
    226  CA         5.1920   -7.4250   41.0580 C.3   377  ILE377      0.1561
    227  C          6.6220   -6.8790   40.8390 C.2   377  ILE377      0.2260
    228  O          6.9650   -5.9110   41.5000 O.2   377  ILE377     -0.2867
    229  CB         4.4650   -7.5340   39.7400 C.3   377  ILE377      0.0252
    230  CG1        2.9590   -7.7200   39.9730 C.3   377  ILE377      0.0019
    231  CG2        4.9960   -8.7250   38.9990 C.3   377  ILE377      0.0019
    232  CD1        2.1230   -7.2700   38.8150 C.3   377  ILE377      0.0001
    233  N          8.7370   -9.7590   42.6490 N.3   381  ILE381     -0.1245
    234  CA         9.5070  -10.8830   42.1060 C.3   381  ILE381      0.1561
    235  C         10.8710  -10.9320   42.8450 C.2   381  ILE381      0.2260
    236  O         10.8880  -11.1960   44.0310 O.2   381  ILE381     -0.2867
    237  CB         9.5230  -10.8440   40.5330 C.3   381  ILE381      0.0252
    238  CG1        8.5610  -11.9010   39.9650 C.3   381  ILE381      0.0019
    239  CG2       10.8850  -11.1450   39.9510 C.3   381  ILE381      0.0019
    240  CD1        7.1440  -11.4350   39.7370 C.3   381  ILE381      0.0001
@<TRIPOS>BOND
     1   123   122    2
     2   121   120    1
     3   121   122    1
     4   121   124    1
     5   128   127    2
     6   113   111    1
     7   122   125   am
     8   127   126    1
     9   112   111    1
    10   125   126    1
    11   111   108    1
    12   108   109    1
    13   108   107    1
    14   126   129    1
    15   110   109    2
    16   109   114   am
    17   129   130    1
    18   130   132   ar
    19   130   131   ar
    20   114   115    1
    21   135   132   ar
    22   135   137   ar
    23   132   134   ar
    24   131   133   ar
    25   117   116    2
    26   137   138   ar
    27   116   115    1
    28   134   133   ar
    29   134   136   ar
    30   115   118    1
    31   138   136   ar
    32    89    87   ar
    33    89    90   ar
    34    87    85   ar
    35    90    88   ar
    36    85    84    1
    37    85    86   ar
    38    88    86   ar
    39    84    81    1
    40   118   119    1
    41    81    80    1
    42    81    82    1
    43    69    68    2
    44   106   104    1
    45    82    83    2
    46    82    91   am
    47    68    67    1
    48   104   103    1
    49   104   105    1
    50   179   178    1
    51   179   180    2
    52    91    92    1
    53    67    70    1
    54    67    66    1
    55   178   177    1
    56   178   181    1
    57   183   185   ar
    58   183   182   ar
    59   185   187   ar
    60    99   100    1
    61   103   100    1
    62   100   101    1
    63    70    71    1
    64    92    95    1
    65    92    93    1
    66    98    96    1
    67    76    78   ar
    68    76    73   ar
    69   181   182    1
    70   182   184   ar
    71   187   188    1
    72   187   186   ar
    73    78    79   ar
    74    71    73   ar
    75    71    72   ar
    76    97    96    1
    77    73    75   ar
    78    95    96    1
    79    93    94    2
    80   101   102    2
    81    62    61    2
    82    79    77   ar
    83   184   186   ar
    84    72    74   ar
    85    75    77   ar
    86    75    74   ar
    87   189   190    1
    88    18    19   ar
    89    18    16   ar
    90    61    60    1
    91    19    17   ar
    92    16    14   ar
    93   193   190    1
    94   193   195    1
    95   193   194    1
    96   192   191    2
    97   190   191    1
    98    64    63    1
    99    60    63    1
   100    60    59    1
   101    58    57    2
   102    17    15   ar
   103   194   196    1
   104    40    38    1
   105    14    15   ar
   106    14    13    1
   107    63    65    1
   108    37    36    2
   109    59    57   am
   110    57    56    1
   111    13    10    1
   112    38    39    1
   113    38    35    1
   114    36    35    1
   115    44    43    2
   116    43    42    1
   117    12    11    2
   118   172   171    2
   119    56    55    1
   120    35    34    1
   121    10    11    1
   122    10     9    1
   123   170   171    1
   124   170   169    1
   125   170   173    1
   126   176   175    1
   127   174   175    1
   128   174   173    1
   129    42    45    1
   130    42    41    1
   131    45    46    1
   132   168   166    1
   133     9     3   am
   134    55    51   am
   135    34    22   am
   136     7     5    1
   137     4     3    2
   138   165   164    2
   139    52    51    2
   140     3     2    1
   141   163   166    1
   142   163   164    1
   143   163   162    1
   144    51    50    1
   145    54    53    1
   146    46    48   am
   147    46    47    2
   148    23    22    2
   149   166   167    1
   150    22    21    1
   151   153   151    1
   152   204   202    1
   153   154   152    1
   154     5     2    1
   155     5     6    1
   156   151   152    1
   157   151   148    1
   158     2     1    1
   159    20    21    1
   160    53    50    1
   161    32    30   ar
   162    32    33   ar
   163    50    49    1
   164    30    27   ar
   165   150   149    2
   166    21    24    1
   167   203   202    1
   168     6     8    1
   169   202   201    1
   170   145   144    1
   171    24    25    1
   172   148   149    1
   173   148   147    1
   174   224   223   ar
   175   224   222   ar
   176    33    31   ar
   177   149   155   am
   178    27    25   ar
   179    27    29   ar
   180    25    26   ar
   181   223   221   ar
   182   222   220   ar
   183   201   198    1
   184    31    29   ar
   185    29    28   ar
   186   144   146    1
   187   144   143    1
   188   155   156    1
   189   200   199    2
   190    26    28   ar
   191   156   157    1
   192   156   159    1
   193   139   140    1
   194   140   143    1
   195   140   141    1
   196   158   157    2
   197   221   220   ar
   198   220   219    1
   199   199   198    1
   200   198   197    1
   201   142   141    2
   202   213   211   ar
   203   213   214   ar
   204   219   216    1
   205   159   160    1
   206   159   161    1
   207   211   210   ar
   208   214   212   ar
   209   208   207    2
   210   216   217    1
   211   216   215    1
   212   218   217    2
   213   210   212   ar
   214   210   209    1
   215   207   215   am
   216   207   206    1
   217   209   206    1
   218   205   206    1
   219   232   230    1
   220   231   229    1
   221   240   238    1
   222   229   230    1
   223   229   226    1
   224   239   237    1
   225   238   237    1
   226   237   234    1
   227   227   226    1
   228   227   228    2
   229   226   225    1
   230   234   233    1
   231   234   235    1
   232   235   236    2
