@<TRIPOS>MOLECULE
tmp/2wseF09.pdb
 102 96 0 0 0
SMALL
GASTEIGER

@<TRIPOS>ATOM
      1  N         15.6610  -24.5070   24.5940 N.3   174  LEU174     -0.1245
      2  CA        16.4680  -23.2920   24.7120 C.3   174  LEU174      0.1561
      3  C         17.4780  -23.2360   23.5470 C.2   174  LEU174      0.2260
      4  O         17.9920  -22.1600   23.1980 O.2   174  LEU174     -0.2867
      5  CB        17.1570  -23.2350   26.0780 C.3   174  LEU174      0.0270
      6  CG        18.5800  -22.7070   26.2040 C.3   174  LEU174      0.0019
      7  CD1       18.5450  -21.3970   26.9650 C.3   174  LEU174      0.0001
      8  CD2       19.4550  -23.7720   26.8670 C.3   174  LEU174      0.0001
      9  N         14.7030  -20.2090   22.2220 N.3   178  LEU178     -0.1245
     10  CA        15.2060  -18.9340   21.7470 C.3   178  LEU178      0.1561
     11  C         15.4800  -18.9920   20.2710 C.2   178  LEU178      0.2260
     12  O         16.4620  -18.4250   19.7750 O.2   178  LEU178     -0.2867
     13  CB        16.4420  -18.5100   22.5290 C.3   178  LEU178      0.0270
     14  CG        17.4890  -19.5790   22.7920 C.3   178  LEU178      0.0019
     15  CD1       18.4430  -19.6900   21.6340 C.3   178  LEU178      0.0001
     16  CD2       18.2300  -19.1470   24.0020 C.3   178  LEU178      0.0001
     17  N         10.3710  -17.5470   21.1500 N.3   182  PHE182     -0.1241
     18  CA        10.6560  -16.1140   20.9510 C.3   182  PHE182      0.1605
     19  C         10.7520  -15.6550   19.4910 C.2   182  PHE182      0.2264
     20  O          9.9810  -14.7840   19.0700 O.2   182  PHE182     -0.2867
     21  CB        11.9970  -15.7520   21.5770 C.3   182  PHE182      0.0534
     22  CG        11.9810  -15.6240   23.0570 C.ar  182  PHE182     -0.0203
     23  CD1       11.2580  -14.6030   23.6700 C.ar  182  PHE182     -0.0042
     24  CD2       12.7710  -16.4700   23.8330 C.ar  182  PHE182     -0.0042
     25  CE1       11.2630  -14.4590   25.0470 C.ar  182  PHE182     -0.0003
     26  CE2       12.7950  -16.3320   25.2170 C.ar  182  PHE182     -0.0003
     27  CZ        12.0270  -15.3230   25.8280 C.ar  182  PHE182     -0.0000
     28  N         14.7130   -7.9930   15.3760 N.3   279  ILE279     -0.1245
     29  CA        15.2820   -8.8870   16.3930 C.3   279  ILE279      0.1561
     30  C         15.0880  -10.3430   15.9870 C.2   279  ILE279      0.2260
     31  O         16.0200  -11.1600   16.1260 O.2   279  ILE279     -0.2867
     32  CB        14.8470   -8.6010   17.8910 C.3   279  ILE279      0.0252
     33  CG1       13.3410   -8.8840   18.1410 C.3   279  ILE279      0.0019
     34  CG2       15.2880   -7.1930   18.3380 C.3   279  ILE279      0.0019
     35  CD1       13.0580   -9.6520   19.4710 C.3   279  ILE279      0.0001
     36  N         18.2190  -12.3950   14.9000 N.3   282  LEU282     -0.1231
     37  CA        19.2090  -12.5970   15.9440 C.3   282  LEU282      0.1693
     38  C         18.9470  -13.7990   16.8360 C.2   282  LEU282      0.2592
     39  O         19.8840  -14.5590   17.0760 O.2   282  LEU282     -0.2718
     40  CB        19.2760  -11.3340   16.7830 C.3   282  LEU282      0.0284
     41  CG        19.4180  -10.0530   15.9650 C.3   282  LEU282      0.0019
     42  CD1       18.7240   -8.8970   16.6460 C.3   282  LEU282      0.0001
     43  CD2       20.9080   -9.7710   15.6910 C.3   282  LEU282      0.0001
     44  N         17.6950  -13.9580   17.3170 N.am  283  PHE283     -0.1976
     45  CA        17.2450  -15.1130   18.1470 C.3   283  PHE283      0.1639
     46  C         17.1820  -16.4460   17.3770 C.2   283  PHE283      0.2290
     47  O         17.5540  -17.5130   17.9060 O.2   283  PHE283     -0.2864
     48  CB        15.8530  -14.8360   18.7410 C.3   283  PHE283      0.0560
     49  CG        15.8760  -14.2500   20.1320 C.ar  283  PHE283     -0.0200
     50  CD1       17.0520  -13.7490   20.6910 C.ar  283  PHE283     -0.0042
     51  CD2       14.7020  -14.1670   20.8710 C.ar  283  PHE283     -0.0042
     52  CE1       17.0470  -13.2010   21.9960 C.ar  283  PHE283     -0.0003
     53  CE2       14.6980  -13.6270   22.1530 C.ar  283  PHE283     -0.0003
     54  CZ        15.8700  -13.1440   22.7090 C.ar  283  PHE283     -0.0000
     55  N         20.5610  -17.0040   16.9400 N.3   286  GLY286     -0.1225
     56  CA        20.8840  -17.4870   18.2780 C.3   286  GLY286      0.1811
     57  C         20.4100  -18.9120   18.4790 C.2   286  GLY286      0.2280
     58  O         21.2330  -19.8060   18.7100 O.2   286  GLY286     -0.2866
     59  N         22.4260  -22.8640   18.3280 N.3   289  MET289     -0.1230
     60  CA        23.6870  -22.4720   19.0460 C.3   289  MET289      0.1702
     61  C         24.2320  -23.6710   19.8280 C.2   289  MET289      0.2592
     62  O         25.4290  -23.7260   20.2010 O.2   289  MET289     -0.2718
     63  CB        23.5390  -21.2650   20.0110 C.3   289  MET289      0.0401
     64  CG        24.9170  -20.8710   20.6150 C.3   289  MET289      0.0596
     65  SD        25.0310  -19.9640   22.1850 S.3   289  MET289     -0.1393
     66  CE        26.8080  -19.6960   22.3210 C.3   289  MET289      0.0692
     67  N         23.3360  -24.6170   20.1100 N.am  290  TYR290     -0.1976
     68  CA        23.7450  -25.7650   20.8920 C.3   290  TYR290      0.1639
     69  C         23.3320  -27.0220   20.1830 C.2   290  TYR290      0.2290
     70  O         22.4540  -27.0060   19.3140 O.2   290  TYR290     -0.2864
     71  CB        23.1860  -25.7170   22.3400 C.3   290  TYR290      0.0560
     72  CG        23.1370  -24.3140   22.9240 C.ar  290  TYR290     -0.0198
     73  CD1       24.2910  -23.6880   23.3890 C.ar  290  TYR290     -0.0009
     74  CD2       21.9350  -23.6000   22.9510 C.ar  290  TYR290     -0.0009
     75  CE1       24.2420  -22.4020   23.8900 C.ar  290  TYR290      0.0417
     76  CE2       21.8790  -22.2990   23.4590 C.ar  290  TYR290      0.0417
     77  CZ        23.0350  -21.6990   23.9340 C.ar  290  TYR290      0.1957
     78  OH        22.9820  -20.4010   24.4290 O.3   290  TYR290     -0.2866
     79  N         26.9330  -27.7290   26.4270 N.3   300  ILE300     -0.1245
     80  CA        26.7490  -26.6230   27.3780 C.3   300  ILE300      0.1561
     81  C         27.6860  -26.6800   28.5820 C.2   300  ILE300      0.2260
     82  O         27.6360  -25.8170   29.4440 O.2   300  ILE300     -0.2867
     83  CB        25.2510  -26.4570   27.7520 C.3   300  ILE300      0.0252
     84  CG1       24.5710  -25.5360   26.7370 C.3   300  ILE300      0.0019
     85  CG2       25.1020  -25.9840   29.1570 C.3   300  ILE300      0.0019
     86  CD1       23.4970  -24.6530   27.2710 C.3   300  ILE300      0.0001
     87  N         32.4230  -25.3710   27.4950 N.3   303  ILE303     -0.1231
     88  CA        32.5230  -23.8990   27.2910 C.3   303  ILE303      0.1692
     89  C         32.0930  -23.1510   28.5530 C.2   303  ILE303      0.2591
     90  O         31.9950  -21.9130   28.5920 O.2   303  ILE303     -0.2718
     91  CB        31.7530  -23.3710   26.0600 C.3   303  ILE303      0.0266
     92  CG1       30.2250  -23.5380   26.2300 C.3   303  ILE303      0.0019
     93  CG2       32.2790  -24.0360   24.7940 C.3   303  ILE303      0.0020
     94  CD1       29.4230  -23.0900   25.0160 C.3   303  ILE303      0.0001
     95  N         31.7940  -23.9420   29.5760 N.am  304  LEU304     -0.1980
     96  CA        32.0650  -23.5280   30.9310 C.3   304  LEU304      0.1596
     97  C         33.3160  -24.3840   31.2090 C.2   304  LEU304      0.2287
     98  O         34.4030  -24.0800   30.6850 O.2   304  LEU304     -0.2864
     99  CB        30.8810  -23.8040   31.8840 C.3   304  LEU304      0.0297
    100  CG        29.4070  -23.5630   31.4570 C.3   304  LEU304      0.0022
    101  CD1       28.4880  -23.4410   32.6410 C.3   304  LEU304      0.0001
    102  CD2       29.2090  -22.3490   30.5730 C.3   304  LEU304      0.0001
@<TRIPOS>BOND
     1    36    37    1
     2    28    29    1
     3    43    41    1
     4    37    40    1
     5    37    38    1
     6    41    42    1
     7    41    40    1
     8    30    31    2
     9    30    29    1
    10    29    32    1
    11    38    39    2
    12    38    44   am
    13    55    56    1
    14    44    45    1
    15    46    47    2
    16    46    45    1
    17    32    33    1
    18    32    34    1
    19    33    35    1
    20    45    48    1
    21    56    57    1
    22    59    60    1
    23    57    58    2
    24    48    49    1
    25    60    61    1
    26    60    63    1
    27    20    19    2
    28    70    69    2
    29    19    18    1
    30    12    11    2
    31    61    67   am
    32    61    62    2
    33    63    64    1
    34    67    68    1
    35    49    50   ar
    36    49    51   ar
    37    69    68    1
    38    11    10    1
    39    64    65    1
    40    50    52   ar
    41    51    53   ar
    42    68    71    1
    43    18    17    1
    44    18    21    1
    45    21    22    1
    46    15    14    1
    47    10     9    1
    48    10    13    1
    49    52    54   ar
    50    53    54   ar
    51    65    66    1
    52    71    72    1
    53    13    14    1
    54    14    16    1
    55    72    74   ar
    56    72    73   ar
    57    74    76   ar
    58    22    23   ar
    59    22    24   ar
    60     4     3    2
    61    73    75   ar
    62    76    77   ar
    63     3     2    1
    64    23    25   ar
    65    24    26   ar
    66    75    77   ar
    67    77    78    1
    68     1     2    1
    69     2     5    1
    70    93    91    1
    71    94    92    1
    72    25    27   ar
    73    26    27   ar
    74    91    92    1
    75    91    88    1
    76     5     6    1
    77     6     8    1
    78     6     7    1
    79    79    80    1
    80    84    86    1
    81    84    83    1
    82    88    87    1
    83    88    89    1
    84    80    83    1
    85    80    81    1
    86    83    85    1
    87    89    90    2
    88    89    95   am
    89    81    82    2
    90    95    96    1
    91   102   100    1
    92    98    97    2
    93    96    97    1
    94    96    99    1
    95   100    99    1
    96   100   101    1
