@<TRIPOS>MOLECULE
tmp/2wseD05.pdb
 87 87 0 0 0
SMALL
GASTEIGER

@<TRIPOS>ATOM
      1  N         66.3580   19.6610   48.9500 N.3    21  TRP21      -0.1241
      2  CA        65.4890   20.4760   48.0680 C.3    21  TRP21       0.1605
      3  C         64.8140   21.7390   48.6970 C.2    21  TRP21       0.2264
      4  O         64.5060   22.7120   47.9870 O.2    21  TRP21      -0.2867
      5  CB        64.4800   19.6220   47.2640 C.3    21  TRP21       0.0550
      6  CG        64.9380   19.5180   45.8370 C.ar   21  TRP21       0.0003
      7  CD1       65.6140   20.4850   45.1140 C.ar   21  TRP21       0.0946
      8  CD2       64.7800   18.4000   44.9550 C.ar   21  TRP21       0.0152
      9  NE1       65.8960   20.0270   43.8510 N.ar   21  TRP21      -0.2442
     10  CE2       65.3990   18.7510   43.7260 C.ar   21  TRP21       0.0810
     11  CE3       64.1930   17.1350   45.0840 C.ar   21  TRP21       0.0012
     12  CZ2       65.4460   17.8860   42.6510 C.ar   21  TRP21       0.0191
     13  CZ3       64.2310   16.2750   44.0120 C.ar   21  TRP21       0.0001
     14  CH2       64.8580   16.6560   42.8070 C.ar   21  TRP21       0.0015
     15  N         67.7920   24.0600   48.3510 N.3    24  LEU24      -0.1231
     16  CA        67.7260   24.6830   47.0280 C.3    24  LEU24       0.1693
     17  C         66.5320   25.6760   46.9130 C.2    24  LEU24       0.2592
     18  O         66.7550   26.8690   46.6870 O.2    24  LEU24      -0.2718
     19  CB        67.7330   23.6480   45.8810 C.3    24  LEU24       0.0284
     20  CG        69.0910   22.9860   45.5270 C.3    24  LEU24       0.0019
     21  CD1       69.3510   21.7940   46.4370 C.3    24  LEU24       0.0001
     22  CD2       69.2530   22.5380   44.0550 C.3    24  LEU24       0.0001
     23  N         65.2880   25.1970   47.1000 N.am   25  GLY25      -0.1957
     24  CA        64.0980   26.0570   46.9900 C.3    25  GLY25       0.1869
     25  C         64.4710   27.4680   47.4400 C.2    25  GLY25       0.2309
     26  O         64.1640   28.4650   46.7490 O.2    25  GLY25      -0.2863
     27  N         67.5520   28.9610   47.7380 N.3    27  ALA27      -0.1231
     28  CA        68.3810   29.6440   46.7170 C.3    27  ALA27       0.1694
     29  C         67.4300   30.4590   45.8230 C.2    27  ALA27       0.2592
     30  O         67.6840   31.6290   45.5280 O.2    27  ALA27      -0.2718
     31  CB        69.1760   28.6410   45.8830 C.3    27  ALA27       0.0304
     32  N         66.3120   29.8370   45.4400 N.am   28  GLY28      -0.1957
     33  CA        65.2350   30.5420   44.7590 C.3    28  GLY28       0.1869
     34  C         65.1370   31.9740   45.2450 C.2    28  GLY28       0.2309
     35  O         65.5980   32.8840   44.5860 O.2    28  GLY28      -0.2863
     36  N         68.2800   35.4620   45.7670 N.3    31  LEU31      -0.1245
     37  CA        68.4030   36.6340   44.8750 C.3    31  LEU31       0.1561
     38  C         67.9750   38.0540   45.3810 C.2    31  LEU31       0.2260
     39  O         68.8620   38.7940   45.8440 O.2    31  LEU31      -0.2867
     40  CB        67.9620   36.3230   43.4180 C.3    31  LEU31       0.0270
     41  CG        66.5240   36.1050   42.8630 C.3    31  LEU31       0.0019
     42  CD1       66.3380   36.7770   41.5030 C.3    31  LEU31       0.0001
     43  CD2       66.1590   34.6590   42.7330 C.3    31  LEU31       0.0001
     44  N         71.5940   43.8100   46.6080 N.3    35  PHE35      -0.1241
     45  CA        71.1060   44.5110   45.4320 C.3    35  PHE35       0.1605
     46  C         69.8090   43.7400   45.1080 C.2    35  PHE35       0.2264
     47  O         69.8030   42.5860   44.6030 O.2    35  PHE35      -0.2867
     48  CB        72.1070   44.6760   44.2510 C.3    35  PHE35       0.0534
     49  CG        73.0810   43.5430   44.0550 C.ar   35  PHE35      -0.0203
     50  CD1       74.3520   43.8220   43.5900 C.ar   35  PHE35      -0.0042
     51  CD2       72.7210   42.2210   44.2840 C.ar   35  PHE35      -0.0042
     52  CE1       75.2600   42.8230   43.3690 C.ar   35  PHE35      -0.0003
     53  CE2       73.6290   41.2050   44.0770 C.ar   35  PHE35      -0.0003
     54  CZ        74.9090   41.5090   43.6120 C.ar   35  PHE35      -0.0000
     55  N         58.4230   33.4710   37.2620 N.3    44  PRO44      -0.2116
     56  CA        59.5030   33.6660   36.3230 C.3    44  PRO44       0.1372
     57  C         59.2490   33.1950   34.9160 C.2    44  PRO44       0.2244
     58  O         58.3730   33.7220   34.2670 O.2    44  PRO44      -0.2868
     59  CB        60.6410   32.9290   36.9970 C.3    44  PRO44       0.0268
     60  CG        60.3930   33.3010   38.4580 C.3    44  PRO44       0.0207
     61  CD        58.9250   33.7160   38.6030 C.3    44  PRO44       0.0892
     62  N         62.3230   31.5410   33.2030 N.3    46  TRP46      -0.1227
     63  CA        62.3110   31.9850   34.5670 C.3    46  TRP46       0.1737
     64  C         63.4760   32.9110   34.7460 C.2    46  TRP46       0.2595
     65  O         63.4880   33.7800   35.5870 O.2    46  TRP46      -0.2718
     66  CB        62.3760   30.8060   35.5220 C.3    46  TRP46       0.0564
     67  CG        63.7480   30.2270   35.7640 C.ar   46  TRP46       0.0003
     68  CD1       64.1960   29.6450   36.9080 C.ar   46  TRP46       0.0946
     69  CD2       64.8310   30.1540   34.8520 C.ar   46  TRP46       0.0152
     70  NE1       65.4800   29.2230   36.7540 N.ar   46  TRP46      -0.2442
     71  CE2       65.8880   29.5180   35.4950 C.ar   46  TRP46       0.0810
     72  CE3       65.0020   30.5420   33.5490 C.ar   46  TRP46       0.0012
     73  CZ2       67.0820   29.2980   34.8910 C.ar   46  TRP46       0.0191
     74  CZ3       66.1820   30.3360   32.9700 C.ar   46  TRP46       0.0001
     75  CH2       67.2090   29.7100   33.6210 C.ar   46  TRP46       0.0015
     76  N         64.4540   32.7320   33.9010 N.am   47  TYR47      -0.1976
     77  CA        65.5210   33.6650   33.8190 C.3    47  TYR47       0.1639
     78  C         65.5320   34.0710   32.3920 C.2    47  TYR47       0.2290
     79  O         65.7960   35.2150   32.0860 O.2    47  TYR47      -0.2864
     80  CB        66.8360   33.0540   34.2310 C.3    47  TYR47       0.0560
     81  CG        67.9720   33.7620   33.5950 C.ar   47  TYR47      -0.0198
     82  CD1       67.8840   35.1070   33.2960 C.ar   47  TYR47      -0.0009
     83  CD2       69.1180   33.0840   33.2460 C.ar   47  TYR47      -0.0009
     84  CE1       68.9270   35.7540   32.6820 C.ar   47  TYR47       0.0417
     85  CE2       70.1580   33.7220   32.6320 C.ar   47  TYR47       0.0417
     86  CZ        70.0620   35.0520   32.3550 C.ar   47  TYR47       0.1957
     87  OH        71.1130   35.6620   31.7330 O.3    47  TYR47      -0.2866
@<TRIPOS>BOND
     1    87    86    1
     2    79    78    2
     3    86    85   ar
     4    86    84   ar
     5    78    77    1
     6    85    83   ar
     7    84    82   ar
     8    74    72   ar
     9    74    75   ar
    10    62    63    1
    11    83    81   ar
    12    82    81   ar
    13    72    69   ar
    14    81    80    1
    15    75    73   ar
    16    77    76    1
    17    77    80    1
    18    76    64   am
    19    58    57    2
    20    63    64    1
    21    63    66    1
    22    64    65    2
    23    69    71   ar
    24    69    67   ar
    25    73    71   ar
    26    57    56    1
    27    71    70   ar
    28    66    67    1
    29    67    68   ar
    30    56    59    1
    31    56    55    1
    32    70    68   ar
    33    59    60    1
    34    55    61    1
    35    60    61    1
    36    42    41    1
    37    12    14   ar
    38    12    10   ar
    39    43    41    1
    40    14    13   ar
    41    41    40    1
    42    52    50   ar
    43    52    54   ar
    44    40    37    1
    45    50    49   ar
    46    54    53   ar
    47    10     9   ar
    48    10     8   ar
    49     9     7   ar
    50    13    11   ar
    51    49    48    1
    52    49    51   ar
    53    22    20    1
    54    53    51   ar
    55    48    45    1
    56    35    34    2
    57    47    46    2
    58    33    34    1
    59    33    32    1
    60    37    38    1
    61    37    36    1
    62     8    11   ar
    63     8     6   ar
    64    46    45    1
    65     7     6   ar
    66    38    39    2
    67    45    44    1
    68    32    29   am
    69    20    19    1
    70    20    21    1
    71    30    29    2
    72    29    28    1
    73     6     5    1
    74    19    16    1
    75    31    28    1
    76    18    17    2
    77    28    27    1
    78    26    25    2
    79    17    16    1
    80    17    23   am
    81    24    23    1
    82    24    25    1
    83    16    15    1
    84     5     2    1
    85     4     3    2
    86     2     3    1
    87     2     1    1
