@<TRIPOS>MOLECULE
tmp/2wseF47.pdb
 192 189 0 0 0
SMALL
GASTEIGER

@<TRIPOS>ATOM
      1  N         21.6170   10.2650   53.1220 N.3   432  THR432     -0.1203
      2  CA        20.3120   10.7110   52.5910 C.3   432  THR432      0.1994
      3  C         19.5480   11.4650   53.6780 C.2   432  THR432      0.2617
      4  O         19.1010   12.5790   53.4400 O.2   432  THR432     -0.2717
      5  CB        19.4240    9.5560   52.0610 C.3   432  THR432      0.1784
      6  OG1       20.0860    8.8750   50.9800 O.3   432  THR432     -0.2211
      7  CG2       18.1100   10.0800   51.5690 C.3   432  THR432      0.0376
      8  N         19.4480   10.8620   54.8670 N.am  433  LEU433     -0.1979
      9  CA        18.7770   11.4600   56.0600 C.3   433  LEU433      0.1596
     10  C         19.4220   12.7150   56.7060 C.2   433  LEU433      0.2287
     11  O         18.7650   13.3940   57.4660 O.2   433  LEU433     -0.2864
     12  CB        18.5210   10.3810   57.1420 C.3   433  LEU433      0.0297
     13  CG        17.6250   10.5480   58.3760 C.3   433  LEU433      0.0022
     14  CD1       16.3940   11.2990   58.0460 C.3   433  LEU433      0.0001
     15  CD2       17.1850    9.2100   58.7910 C.3   433  LEU433      0.0001
     16  N         17.5920   16.1310   54.1330 N.3   436  TYR436     -0.1227
     17  CA        16.1420   15.8720   54.1550 C.3   436  TYR436      0.1736
     18  C         15.5360   16.2150   55.5030 C.2   436  TYR436      0.2595
     19  O         14.3450   16.6070   55.5990 O.2   436  TYR436     -0.2718
     20  CB        15.7940   14.4280   53.8120 C.3   436  TYR436      0.0548
     21  CG        15.2500   14.2410   52.4150 C.ar  436  TYR436     -0.0200
     22  CD1       14.5470   15.2760   51.7650 C.ar  436  TYR436     -0.0009
     23  CD2       15.4020   13.0090   51.7420 C.ar  436  TYR436     -0.0009
     24  CE1       14.0170   15.0930   50.4900 C.ar  436  TYR436      0.0417
     25  CE2       14.8780   12.8140   50.4470 C.ar  436  TYR436      0.0417
     26  CZ        14.1880   13.8670   49.8420 C.ar  436  TYR436      0.1957
     27  OH        13.6710   13.6950   48.5890 O.3   436  TYR436     -0.2866
     28  N         16.3240   16.0580   56.5700 N.am  437  VAL437     -0.1980
     29  CA        15.9050   16.7030   57.7960 C.3   437  VAL437      0.1595
     30  C         16.4770   18.0830   57.6590 C.2   437  VAL437      0.2287
     31  O         15.7070   19.0170   57.6120 O.2   437  VAL437     -0.2864
     32  CB        16.2270   15.9190   59.1300 C.3   437  VAL437      0.0276
     33  CG1       16.2120   14.4080   58.8990 C.3   437  VAL437      0.0022
     34  CG2       17.4930   16.3650   59.8050 C.3   437  VAL437      0.0022
     35  N         14.6080   20.0450   55.9280 N.3   440  ASP440     -0.1225
     36  CA        13.3830   20.3640   56.7390 C.3   440  ASP440      0.1805
     37  C         13.5860   21.1320   58.1040 C.2   440  ASP440      0.2597
     38  O         12.6410   21.7350   58.6270 O.2   440  ASP440     -0.2718
     39  CB        12.4920   19.1220   56.9350 C.3   440  ASP440      0.1424
     40  CG        11.0180   19.4780   56.9440 C.2   440  ASP440      0.3668
     41  OD1       10.2610   19.1490   57.8800 O.co2 440  ASP440     -0.2456
     42  OD2       10.6120   20.1470   56.0010 O.co2 440  ASP440     -0.2456
     43  N         14.7990   21.1200   58.6770 N.am  441  VAL441     -0.1980
     44  CA        15.0660   21.9820   59.8100 C.3   441  VAL441      0.1595
     45  C         15.2130   23.4090   59.3140 C.2   441  VAL441      0.2287
     46  O         14.8230   24.3530   60.0130 O.2   441  VAL441     -0.2864
     47  CB        16.3890   21.6810   60.5200 C.3   441  VAL441      0.0276
     48  CG1       16.2340   22.0440   61.9890 C.3   441  VAL441      0.0022
     49  CG2       16.8260   20.2430   60.3650 C.3   441  VAL441      0.0022
     50  N         19.3390    3.4710   48.3530 N.3   524  LEU524     -0.1245
     51  CA        19.3820    2.8740   49.6880 C.3   524  LEU524      0.1561
     52  C         18.3410    1.7230   49.9260 C.2   524  LEU524      0.2260
     53  O         18.3260    1.0860   50.9980 O.2   524  LEU524     -0.2867
     54  CB        19.2780    3.9740   50.7560 C.3   524  LEU524      0.0270
     55  CG        18.7060    3.7560   52.1800 C.3   524  LEU524      0.0019
     56  CD1       17.1520    3.8500   52.1850 C.3   524  LEU524      0.0001
     57  CD2       19.1870    2.5120   52.9340 C.3   524  LEU524      0.0001
     58  N          9.4020   -6.3060   53.3830 N.3   580  PHE580     -0.1227
     59  CA         9.0630   -4.9760   53.8900 C.3   580  PHE580      0.1736
     60  C          9.7890   -3.8650   53.1010 C.2   580  PHE580      0.2595
     61  O          9.1660   -2.8300   52.8030 O.2   580  PHE580     -0.2718
     62  CB         9.3810   -4.8520   55.3940 C.3   580  PHE580      0.0547
     63  CG         8.3900   -5.5720   56.3170 C.ar  580  PHE580     -0.0202
     64  CD1        8.8380   -6.5450   57.2120 C.ar  580  PHE580     -0.0042
     65  CD2        7.0310   -5.2580   56.3130 C.ar  580  PHE580     -0.0042
     66  CE1        7.9430   -7.1970   58.0880 C.ar  580  PHE580     -0.0003
     67  CE2        6.1300   -5.9190   57.1770 C.ar  580  PHE580     -0.0003
     68  CZ         6.5850   -6.8820   58.0600 C.ar  580  PHE580     -0.0000
     69  N         11.0860   -4.0700   52.7750 N.am  581  TRP581     -0.1976
     70  CA        11.8900   -3.0820   51.9450 C.3   581  TRP581      0.1640
     71  C         11.5870   -3.1120   50.4140 C.2   581  TRP581      0.2290
     72  O         11.5970   -2.0560   49.7610 O.2   581  TRP581     -0.2864
     73  CB        13.4300   -3.1470   52.2330 C.3   581  TRP581      0.0576
     74  CG        13.8170   -2.5830   53.5840 C.ar  581  TRP581      0.0006
     75  CD1       13.5430   -3.1390   54.8310 C.ar  581  TRP581      0.0946
     76  CD2       14.5290   -1.3460   53.8470 C.ar  581  TRP581      0.0152
     77  NE1       14.0540   -2.3290   55.8340 N.ar  581  TRP581     -0.2442
     78  CE2       14.6590   -1.2270   55.2670 C.ar  581  TRP581      0.0810
     79  CE3       15.0630   -0.3270   53.0350 C.ar  581  TRP581      0.0012
     80  CZ2       15.2950   -0.1440   55.8720 C.ar  581  TRP581      0.0191
     81  CZ3       15.7090    0.7390   53.6520 C.ar  581  TRP581      0.0001
     82  CH2       15.8100    0.8230   55.0640 C.ar  581  TRP581      0.0015
     83  N          8.7220   -3.6050   49.7940 N.3   583  LEU583     -0.1231
     84  CA         7.5020   -2.8090   49.9510 C.3   583  LEU583      0.1693
     85  C          7.8150   -1.3860   50.4630 C.2   583  LEU583      0.2592
     86  O          6.9610   -0.7520   51.0780 O.2   583  LEU583     -0.2718
     87  CB         6.5090   -3.5090   50.8840 C.3   583  LEU583      0.0284
     88  CG         5.0030   -3.4840   50.5560 C.3   583  LEU583      0.0019
     89  CD1        4.6100   -4.6770   49.7100 C.3   583  LEU583      0.0001
     90  CD2        4.1640   -3.4690   51.8100 C.3   583  LEU583      0.0001
     91  N          9.0300   -0.8810   50.2130 N.am  584  ASN584     -0.1974
     92  CA         9.4190    0.4500   50.7150 C.3   584  ASN584      0.1688
     93  C         10.3080    1.1640   49.7260 C.2   584  ASN584      0.2292
     94  O         10.2780    2.3830   49.6400 O.2   584  ASN584     -0.2864
     95  CB        10.1300    0.3650   52.0840 C.3   584  ASN584      0.1181
     96  CG        10.6510    1.7240   52.5580 C.2   584  ASN584      0.2629
     97  OD1       11.8560    1.9060   52.8080 O.2   584  ASN584     -0.2716
     98  ND2        9.7370    2.6970   52.6340 N.am  584  ASN584     -0.0877
     99  N          9.0060    4.1950   47.3080 N.3   588  TRP588     -0.1241
    100  CA         9.7160    5.4580   47.1680 C.3   588  TRP588      0.1605
    101  C          9.7370    5.6950   45.6930 C.2   588  TRP588      0.2264
    102  O          9.2520    6.7150   45.2280 O.2   588  TRP588     -0.2867
    103  CB        11.1110    5.4790   47.8700 C.3   588  TRP588      0.0550
    104  CG        10.9320    5.6340   49.3380 C.ar  588  TRP588      0.0003
    105  CD1        9.8070    6.1250   49.9740 C.ar  588  TRP588      0.0946
    106  CD2       11.8580    5.3030   50.3670 C.ar  588  TRP588      0.0152
    107  NE1        9.9650    6.0940   51.3390 N.ar  588  TRP588     -0.2442
    108  CE2       11.2240    5.6110   51.6150 C.ar  588  TRP588      0.0810
    109  CE3       13.1630    4.7750   50.3770 C.ar  588  TRP588      0.0012
    110  CZ2       11.8570    5.4060   52.8530 C.ar  588  TRP588      0.0191
    111  CZ3       13.7980    4.5620   51.6420 C.ar  588  TRP588      0.0001
    112  CH2       13.1300    4.8830   52.8420 C.ar  588  TRP588      0.0015
    113  N          5.6540    6.2090   44.3560 N.3   591  PHE591     -0.1241
    114  CA         5.5290    7.5200   45.0320 C.3   591  PHE591      0.1605
    115  C          6.0800    8.7220   44.2700 C.2   591  PHE591      0.2264
    116  O          5.3970    9.7350   44.0930 O.2   591  PHE591     -0.2867
    117  CB         6.3580    7.4670   46.3140 C.3   591  PHE591      0.0534
    118  CG         5.5360    7.4610   47.5550 C.ar  591  PHE591     -0.0203
    119  CD1        4.8920    6.2960   47.9780 C.ar  591  PHE591     -0.0042
    120  CD2        5.4150    8.6240   48.3090 C.ar  591  PHE591     -0.0042
    121  CE1        4.1280    6.2920   49.1140 C.ar  591  PHE591     -0.0003
    122  CE2        4.6530    8.6230   49.4530 C.ar  591  PHE591     -0.0003
    123  CZ         4.0020    7.4480   49.8630 C.ar  591  PHE591     -0.0000
    124  N         11.1450   17.1710   53.0860 N.3   615  LEU615     -0.1231
    125  CA        10.4980   15.9520   53.5300 C.3   615  LEU615      0.1693
    126  C          9.0300   16.2480   53.9120 C.2   615  LEU615      0.2591
    127  O          8.0940   15.7610   53.2950 O.2   615  LEU615     -0.2718
    128  CB        11.2880   15.4220   54.7380 C.3   615  LEU615      0.0284
    129  CG        11.5930   13.9280   54.9290 C.3   615  LEU615      0.0019
    130  CD1       10.6750   12.9980   54.1580 C.3   615  LEU615      0.0001
    131  CD2       13.0460   13.6610   54.6210 C.3   615  LEU615      0.0001
    132  N          8.8460   17.0350   54.9610 N.am  616  MET616     -0.1979
    133  CA         7.5620   17.6160   55.2770 C.3   616  MET616      0.1605
    134  C          7.2170   18.5370   54.1330 C.2   616  MET616      0.2287
    135  O          7.8880   19.5620   53.8930 O.2   616  MET616     -0.2864
    136  CB         7.6870   18.4230   56.5500 C.3   616  MET616      0.0413
    137  CG         6.7690   19.6100   56.6220 C.3   616  MET616      0.0598
    138  SD         6.0020   19.6300   58.2190 S.3   616  MET616     -0.1393
    139  CE         4.7000   18.3980   57.9210 C.3   616  MET616      0.0692
    140  N          4.8370   15.0200   52.6380 N.3   619  LEU619     -0.1245
    141  CA         3.5700   14.7400   53.3020 C.3   619  LEU619      0.1561
    142  C          2.4810   15.8190   53.0770 C.2   619  LEU619      0.2260
    143  O          1.3200   15.4800   52.7910 O.2   619  LEU619     -0.2867
    144  CB         3.8240   14.5980   54.7800 C.3   619  LEU619      0.0270
    145  CG         2.5710   14.4090   55.5830 C.3   619  LEU619      0.0019
    146  CD1        2.5550   12.9510   55.9430 C.3   619  LEU619      0.0001
    147  CD2        2.6860   15.2990   56.7810 C.3   619  LEU619      0.0001
    148  N          0.4090   13.5960   49.2640 N.3   623  LEU623     -0.1245
    149  CA        -0.1390   13.0100   50.4870 C.3   623  LEU623      0.1561
    150  C         -1.3660   13.8380   50.9410 C.2   623  LEU623      0.2260
    151  O         -2.5220   13.3620   50.8000 O.2   623  LEU623     -0.2867
    152  CB         0.9190   12.8510   51.5950 C.3   623  LEU623      0.0270
    153  CG         1.6340   11.5190   51.9070 C.3   623  LEU623      0.0019
    154  CD1        0.6810   10.3490   52.1040 C.3   623  LEU623      0.0001
    155  CD2        2.6700   11.1330   50.8810 C.3   623  LEU623      0.0001
    156  N         -4.2780   -3.2390   56.5140 N.3   656  TRP656     -0.1241
    157  CA        -2.9130   -2.8790   56.8950 C.3   656  TRP656      0.1605
    158  C         -2.7440   -3.1170   58.3720 C.2   656  TRP656      0.2264
    159  O         -2.3310   -4.2190   58.7790 O.2   656  TRP656     -0.2867
    160  CB        -2.6600   -1.4030   56.6330 C.3   656  TRP656      0.0550
    161  CG        -1.1950   -1.0510   56.6330 C.ar  656  TRP656      0.0003
    162  CD1       -0.2840   -1.3390   55.6610 C.ar  656  TRP656      0.0946
    163  CD2       -0.4700   -0.3270   57.6430 C.ar  656  TRP656      0.0152
    164  NE1        0.9600   -0.8310   55.9930 N.ar  656  TRP656     -0.2442
    165  CE2        0.8690   -0.1970   57.2030 C.ar  656  TRP656      0.0810
    166  CE3       -0.8290    0.2560   58.8600 C.ar  656  TRP656      0.0012
    167  CZ2        1.8470    0.4820   57.9330 C.ar  656  TRP656      0.0191
    168  CZ3        0.1500    0.9370   59.5890 C.ar  656  TRP656      0.0001
    169  CH2        1.4680    1.0330   59.1270 C.ar  656  TRP656      0.0015
    170  N         -0.4600   -7.1730   55.6200 N.3   712  PHE712     -0.1241
    171  CA         0.2480   -5.9130   55.7020 C.3   712  PHE712      0.1605
    172  C          0.2050   -5.3920   54.3150 C.2   712  PHE712      0.2264
    173  O         -0.0140   -4.1990   54.1150 O.2   712  PHE712     -0.2867
    174  CB         1.7040   -6.1620   56.1190 C.3   712  PHE712      0.0534
    175  CG         2.5660   -4.9170   56.1960 C.ar  712  PHE712     -0.0203
    176  CD1        2.4970   -4.0650   57.2890 C.ar  712  PHE712     -0.0042
    177  CD2        3.5000   -4.6220   55.1990 C.ar  712  PHE712     -0.0042
    178  CE1        3.3090   -2.9360   57.3640 C.ar  712  PHE712     -0.0003
    179  CE2        4.3140   -3.4900   55.2850 C.ar  712  PHE712     -0.0003
    180  CZ         4.2180   -2.6550   56.3580 C.ar  712  PHE712     -0.0000
    181  N         -1.7830   -2.1550   52.3790 N.3   716  TYR716     -0.1241
    182  CA        -0.7700   -1.2830   51.7860 C.3   716  TYR716      0.1605
    183  C         -0.9360   -1.1340   50.2620 C.2   716  TYR716      0.2264
    184  O         -1.0160    0.0040   49.7420 O.2   716  TYR716     -0.2867
    185  CB         0.6340   -1.8480   52.1310 C.3   716  TYR716      0.0534
    186  CG         1.8700   -1.0900   51.6330 C.ar  716  TYR716     -0.0201
    187  CD1        2.1830   -1.0170   50.2820 C.ar  716  TYR716     -0.0009
    188  CD2        2.7540   -0.5270   52.5230 C.ar  716  TYR716     -0.0009
    189  CE1        3.3220   -0.3670   49.8520 C.ar  716  TYR716      0.0417
    190  CE2        3.8810    0.1280   52.1110 C.ar  716  TYR716      0.0417
    191  CZ         4.1660    0.2100   50.7820 C.ar  716  TYR716      0.1957
    192  OH         5.3110    0.8770   50.3850 O.3   716  TYR716     -0.2866
@<TRIPOS>BOND
     1   116   115    2
     2   115   114    1
     3   113   114    1
     4   114   117    1
     5   102   101    2
     6   101   100    1
     7   117   118    1
     8   100    99    1
     9   100   103    1
    10   118   119   ar
    11   118   120   ar
    12   103   104    1
    13   119   121   ar
    14   120   122   ar
    15    50    51    1
    16    27    26    1
    17   121   123   ar
    18   148   149    1
    19   104   105   ar
    20   104   106   ar
    21   122   123   ar
    22    94    93    2
    23    51    52    1
    24    51    54    1
    25    89    88    1
    26    93    92    1
    27   184   183    2
    28    72    71    2
    29    83    84    1
    30    26    25   ar
    31    26    24   ar
    32   189   187   ar
    33   189   191   ar
    34    52    53    2
    35    84    85    1
    36    84    87    1
    37   105   107   ar
    38    91    85   am
    39    91    92    1
    40   183   182    1
    41   187   186   ar
    42   106   109   ar
    43   106   108   ar
    44   109   111   ar
    45   192   191    1
    46    71    70    1
    47    25    23   ar
    48    85    86    2
    49   149   150    1
    50   149   152    1
    51    24    22   ar
    52    88    87    1
    53    88    90    1
    54    92    95    1
    55    54    55    1
    56   191   190   ar
    57   151   150    2
    58   155   153    1
    59     6     5    1
    60   107   108   ar
    61     7     5    1
    62   152   153    1
    63   108   110   ar
    64   186   185    1
    65   186   188   ar
    66   111   112   ar
    67    23    21   ar
    68    22    21   ar
    69   182   185    1
    70   182   181    1
    71   153   154    1
    72    70    73    1
    73    70    69    1
    74     5     2    1
    75    95    96    1
    76   190   188   ar
    77    55    56    1
    78    55    57    1
    79    73    74    1
    80    21    20    1
    81    96    98   am
    82    96    97    2
    83     2     1    1
    84     2     3    1
    85   140   141    1
    86    69    60   am
    87   143   142    2
    88    61    60    2
    89   112   110   ar
    90    79    81   ar
    91    79    76   ar
    92   142   141    1
    93   124   125    1
    94    60    59    1
    95   127   126    2
    96   141   144    1
    97    58    59    1
    98     4     3    2
    99   125   126    1
   100   125   128    1
   101    74    76   ar
   102    74    75   ar
   103    81    82   ar
   104     3     8   am
   105    20    17    1
   106    76    78   ar
   107    59    62    1
   108   135   134    2
   109   126   132   am
   110   173   172    2
   111   134   133    1
   112    16    17    1
   113    17    18    1
   114   130   129    1
   115   172   171    1
   116   131   129    1
   117   128   129    1
   118   144   145    1
   119    75    77   ar
   120     8     9    1
   121   132   133    1
   122    82    80   ar
   123   177   179   ar
   124   177   175   ar
   125    78    77   ar
   126    78    80   ar
   127   133   136    1
   128   179   180   ar
   129    62    63    1
   130    18    19    2
   131    18    28   am
   132   145   146    1
   133   145   147    1
   134   170   171    1
   135   162   164   ar
   136   162   161   ar
   137   171   174    1
   138    35    36    1
   139   164   165   ar
   140    42    40   ar
   141     9    10    1
   142     9    12    1
   143   174   175    1
   144   175   176   ar
   145    65    63   ar
   146    65    67   ar
   147    63    64   ar
   148   180   178   ar
   149   156   157    1
   150   136   137    1
   151    28    29    1
   152   137   138    1
   153   161   160    1
   154   161   163   ar
   155   160   157    1
   156    10    11    2
   157    36    39    1
   158    36    37    1
   159   157   158    1
   160    39    40    1
   161    40    41   ar
   162    12    13    1
   163    67    68   ar
   164   165   163   ar
   165   165   167   ar
   166    64    66   ar
   167   176   178   ar
   168    31    30    2
   169   163   166   ar
   170    30    29    1
   171    29    32    1
   172   139   138    1
   173   167   169   ar
   174    14    13    1
   175    68    66   ar
   176    37    38    2
   177    37    43   am
   178   158   159    2
   179    13    15    1
   180    43    44    1
   181   166   168   ar
   182    33    32    1
   183   169   168   ar
   184    32    34    1
   185    45    44    1
   186    45    46    2
   187    44    47    1
   188    49    47    1
   189    47    48    1
