@<TRIPOS>MOLECULE
tmp/2wseF15.pdb
 160 147 0 0 0
SMALL
GASTEIGER

@<TRIPOS>ATOM
      1  N         14.2340   -8.0520   36.8750 N.3   342  VAL342     -0.1245
      2  CA        14.9270   -6.8990   36.3340 C.3   342  VAL342      0.1561
      3  C         14.1740   -6.3340   35.1070 C.2   342  VAL342      0.2260
      4  O         14.0410   -5.1010   35.0190 O.2   342  VAL342     -0.2867
      5  CB        16.4180   -7.2310   36.0640 C.3   342  VAL342      0.0252
      6  CG1       16.9850   -6.4410   34.9060 C.3   342  VAL342      0.0019
      7  CG2       17.2250   -6.9920   37.2970 C.3   342  VAL342      0.0019
      8  N         10.4530   -4.3170   35.2070 N.3   345  SER345     -0.1202
      9  CA        10.5040   -2.8720   35.4330 C.3   345  SER345      0.2020
     10  C         11.0230   -2.1220   34.2310 C.2   345  SER345      0.2618
     11  O         10.5620   -1.0170   33.9610 O.2   345  SER345     -0.2717
     12  CB        11.3620   -2.5200   36.6390 C.3   345  SER345      0.2103
     13  OG        11.3320   -1.1050   36.8350 O.3   345  SER345     -0.2182
     14  N         12.0140   -2.7150   33.5500 N.am  346  LEU346     -0.1979
     15  CA        12.4770   -2.2680   32.2200 C.3   346  LEU346      0.1596
     16  C         11.3060   -2.1860   31.2080 C.2   346  LEU346      0.2287
     17  O         11.2180   -1.2450   30.4110 O.2   346  LEU346     -0.2864
     18  CB        13.5870   -3.2170   31.7160 C.3   346  LEU346      0.0297
     19  CG        14.6240   -2.7850   30.6690 C.3   346  LEU346      0.0022
     20  CD1       14.0660   -2.9070   29.2590 C.3   346  LEU346      0.0001
     21  CD2       15.1240   -1.3840   30.9320 C.3   346  LEU346      0.0001
     22  N          9.1230    0.7340   33.0900 N.3   349  GLN349     -0.1245
     23  CA         9.7370    2.0810   33.1440 C.3   349  GLN349      0.1566
     24  C          9.9780    2.6030   31.7660 C.2   349  GLN349      0.2260
     25  O         10.1250    3.7980   31.5910 O.2   349  GLN349     -0.2867
     26  CB        11.0710    2.0760   33.8700 C.3   349  GLN349      0.0367
     27  CG        11.0670    3.0040   35.0330 C.3   349  GLN349      0.0905
     28  CD        12.0450    2.5530   36.0930 C.2   349  GLN349      0.2608
     29  OE1       11.9480    1.4440   36.6410 O.2   349  GLN349     -0.2717
     30  NE2       13.0090    3.4150   36.3890 N.am  349  GLN349     -0.0878
     31  N          5.5580   -2.4380   38.7850 N.3   375  GLN375     -0.1245
     32  CA         6.5660   -2.0290   39.7500 C.3   375  GLN375      0.1566
     33  C          6.3410   -2.8370   41.0140 C.2   375  GLN375      0.2260
     34  O          7.3050   -3.3340   41.5670 O.2   375  GLN375     -0.2867
     35  CB         6.4930   -0.5230   40.0110 C.3   375  GLN375      0.0367
     36  CG         7.3860    0.2730   39.1220 C.3   375  GLN375      0.0905
     37  CD         8.8410   -0.0640   39.3220 C.2   375  GLN375      0.2608
     38  OE1        9.2240   -1.2120   39.2530 O.2   375  GLN375     -0.2717
     39  NE2        9.6570    0.9350   39.5820 N.am  375  GLN375     -0.0878
     40  N          7.4780   -7.4480   39.9880 N.3   378  ALA378     -0.1231
     41  CA         8.7760   -6.7840   39.7090 C.3   378  ALA378      0.1694
     42  C          9.6890   -6.5000   40.9200 C.2   378  ALA378      0.2592
     43  O         10.8960   -6.7810   40.8940 O.2   378  ALA378     -0.2718
     44  CB         8.5380   -5.4670   38.9610 C.3   378  ALA378      0.0304
     45  N          9.1330   -5.8250   41.9210 N.am  379  GLY379     -0.1957
     46  CA         9.7150   -5.7580   43.2330 C.3   379  GLY379      0.1869
     47  C          9.2620   -7.0960   43.7500 C.2   379  GLY379      0.2309
     48  O         10.0910   -7.9440   44.0540 O.2   379  GLY379     -0.2863
     49  N         11.9960  -10.7060   42.1610 N.3   382  MET382     -0.1230
     50  CA        13.2170  -10.1870   42.7800 C.3   382  MET382      0.1702
     51  C         13.4680  -10.7520   44.1350 C.2   382  MET382      0.2593
     52  O         14.5150  -11.3400   44.3730 O.2   382  MET382     -0.2718
     53  CB        13.1030   -8.6620   42.9380 C.3   382  MET382      0.0401
     54  CG        14.3230   -7.9260   42.4920 C.3   382  MET382      0.0596
     55  SD        14.8360   -8.5780   40.9010 S.3   382  MET382     -0.1393
     56  CE        16.6520   -8.6920   41.1110 C.3   382  MET382      0.0692
     57  N         12.5250  -10.4830   45.0310 N.am  383  THR383     -0.1953
     58  CA        12.4320  -11.1440   46.3160 C.3   383  THR383      0.1897
     59  C         12.3370  -12.6730   46.1550 C.2   383  THR383      0.2313
     60  O         13.1690  -13.4230   46.6820 O.2   383  THR383     -0.2863
     61  CB        11.1750  -10.6420   47.0730 C.3   383  THR383      0.1794
     62  OG1       10.3620   -9.8610   46.1760 O.3   383  THR383     -0.2208
     63  CG2       11.5490   -9.7780   48.2960 C.3   383  THR383      0.0378
     64  N         15.3320  -14.1530   44.8080 N.3   386  PHE386     -0.1241
     65  CA        16.4030  -14.1500   45.7750 C.3   386  PHE386      0.1605
     66  C         16.0800  -15.1990   46.7860 C.2   386  PHE386      0.2264
     67  O         16.9640  -15.5910   47.5460 O.2   386  PHE386     -0.2867
     68  CB        16.4310  -12.8040   46.4740 C.3   386  PHE386      0.0534
     69  CG        17.5760  -11.9360   46.0860 C.ar  386  PHE386     -0.0203
     70  CD1       18.8850  -12.4120   46.1680 C.ar  386  PHE386     -0.0042
     71  CD2       17.3530  -10.6060   45.6870 C.ar  386  PHE386     -0.0042
     72  CE1       19.9480  -11.5900   45.8370 C.ar  386  PHE386     -0.0003
     73  CE2       18.3990   -9.7650   45.3800 C.ar  386  PHE386     -0.0003
     74  CZ        19.6980  -10.2630   45.4500 C.ar  386  PHE386     -0.0000
     75  N         28.2700   -4.8000   51.5860 N.3   421  LEU421     -0.1245
     76  CA        26.8950   -4.5180   51.2080 C.3   421  LEU421      0.1561
     77  C         26.3840   -3.6210   52.2680 C.2   421  LEU421      0.2260
     78  O         25.9020   -2.5510   51.9430 O.2   421  LEU421     -0.2867
     79  CB        26.0270   -5.7800   51.1600 C.3   421  LEU421      0.0270
     80  CG        25.8440   -6.4920   49.8250 C.3   421  LEU421      0.0019
     81  CD1       25.8090   -7.9900   50.0610 C.3   421  LEU421      0.0001
     82  CD2       24.5560   -6.0360   49.2750 C.3   421  LEU421      0.0001
     83  N         15.9490    5.4440   46.4810 N.3   522  ILE522     -0.1245
     84  CA        15.6440    4.1920   45.7750 C.3   522  ILE522      0.1561
     85  C         16.9340    3.3620   45.7810 C.2   522  ILE522      0.2260
     86  O         16.8680    2.1410   45.7120 O.2   522  ILE522     -0.2867
     87  CB        15.2340    4.4130   44.2810 C.3   522  ILE522      0.0252
     88  CG1       14.1300    5.4760   44.1270 C.3   522  ILE522      0.0019
     89  CG2       14.8010    3.0880   43.6200 C.3   522  ILE522      0.0019
     90  CD1       13.9410    6.0030   42.7150 C.3   522  ILE522      0.0001
     91  N         17.0710   -1.0960   47.2630 N.3   526  LEU526     -0.1231
     92  CA        17.7740   -2.2780   46.6820 C.3   526  LEU526      0.1693
     93  C         19.3060   -2.2770   46.9480 C.2   526  LEU526      0.2592
     94  O         20.1080   -1.8130   46.1220 O.2   526  LEU526     -0.2718
     95  CB        17.4820   -2.4600   45.1790 C.3   526  LEU526      0.0284
     96  CG        17.3050   -1.2750   44.2260 C.3   526  LEU526      0.0019
     97  CD1       15.8560   -0.7980   44.2220 C.3   526  LEU526      0.0001
     98  CD2       18.2680   -0.1330   44.5650 C.3   526  LEU526      0.0001
     99  N         19.6760   -2.8150   48.1140 N.am  527  HIS527     -0.1976
    100  CA        20.9900   -2.6200   48.7560 C.3   527  HIS527      0.1656
    101  C         20.7990   -3.0990   50.1680 C.2   527  HIS527      0.2291
    102  O         21.4280   -4.0620   50.6200 O.2   527  HIS527     -0.2864
    103  CB        21.4220   -1.1240   48.7900 C.3   527  HIS527      0.0771
    104  CG        22.6170   -0.8210   47.9330 C.ar  527  HIS527      0.0820
    105  ND1       23.5950   -1.7650   47.6500 N.ar  527  HIS527     -0.2267
    106  CD2       23.0050    0.3140   47.3100 C.ar  527  HIS527      0.1154
    107  CE1       24.5290   -1.2250   46.8850 C.ar  527  HIS527      0.1986
    108  NE2       24.1930    0.0370   46.6610 N.ar  527  HIS527     -0.2212
    109  N         17.6330   -3.8910   50.9330 N.3   529  THR529     -0.1203
    110  CA        16.6820   -4.9950   50.5840 C.3   529  THR529      0.1994
    111  C         17.4070   -6.3010   50.3020 C.2   529  THR529      0.2618
    112  O         16.8720   -7.3930   50.4890 O.2   529  THR529     -0.2717
    113  CB        15.8380   -4.6420   49.3290 C.3   529  THR529      0.1784
    114  OG1       14.9460   -3.5470   49.6320 O.3   529  THR529     -0.2211
    115  CG2       15.0270   -5.8560   48.8330 C.3   529  THR529      0.0376
    116  N         18.6570   -6.1500   49.8680 N.am  530  THR530     -0.1952
    117  CA        19.4090   -7.2340   49.3030 C.3   530  THR530      0.1897
    118  C         20.5510   -7.6520   50.2170 C.2   530  THR530      0.2313
    119  O         21.0420   -8.7740   50.0900 O.2   530  THR530     -0.2863
    120  CB        19.9440   -6.8450   47.9080 C.3   530  THR530      0.1794
    121  OG1       21.1890   -6.1520   48.0400 O.3   530  THR530     -0.2208
    122  CG2       18.9340   -5.9320   47.1840 C.3   530  THR530      0.0378
    123  N         18.3350  -10.0780   51.6560 N.3   533  LEU533     -0.1245
    124  CA        18.2220  -11.2290   50.7220 C.3   533  LEU533      0.1561
    125  C         19.5640  -11.9530   50.4290 C.2   533  LEU533      0.2260
    126  O         19.6540  -13.1660   50.6870 O.2   533  LEU533     -0.2867
    127  CB        17.4420  -10.8620   49.4670 C.3   533  LEU533      0.0270
    128  CG        15.9490  -10.6110   49.7800 C.3   533  LEU533      0.0019
    129  CD1       15.1230  -10.4790   48.5400 C.3   533  LEU533      0.0001
    130  CD2       15.3370  -11.6740   50.6700 C.3   533  LEU533      0.0001
    131  N         11.3230   -4.3110   49.8690 N.3   582  MET582     -0.1245
    132  CA        10.6920   -4.4410   48.5690 C.3   582  MET582      0.1570
    133  C          9.3100   -3.7380   48.6040 C.2   582  MET582      0.2261
    134  O          8.7850   -3.3150   47.5630 O.2   582  MET582     -0.2867
    135  CB        10.5690   -5.9200   48.1610 C.3   582  MET582      0.0387
    136  CG         9.7850   -6.1790   46.8660 C.3   582  MET582      0.0595
    137  SD         8.0040   -6.6740   47.0230 S.3   582  MET582     -0.1393
    138  CE         7.0350   -5.1600   46.7740 C.3   582  MET582      0.0692
    139  N         11.1420    0.3930   49.0290 N.3   585  THR585     -0.1203
    140  CA        11.6470    0.8280   47.7380 C.3   585  THR585      0.1994
    141  C         10.4440    0.9870   46.7540 C.2   585  THR585      0.2617
    142  O          9.9720    2.1060   46.4980 O.2   585  THR585     -0.2717
    143  CB        12.6370   -0.1880   47.1500 C.3   585  THR585      0.1784
    144  OG1       13.6520   -0.4890   48.1090 O.3   585  THR585     -0.2211
    145  CG2       13.2750    0.3720   45.9210 C.3   585  THR585      0.0376
    146  N          9.9590   -0.1390   46.2270 N.am  586  ILE586     -0.1979
    147  CA         8.8040   -0.1680   45.3460 C.3   586  ILE586      0.1595
    148  C          7.6480    0.7550   45.8260 C.2   586  ILE586      0.2287
    149  O          6.4720    0.6020   45.4690 O.2   586  ILE586     -0.2864
    150  CB         8.4560   -1.6500   44.9610 C.3   586  ILE586      0.0276
    151  CG1        9.0460   -1.9230   43.6030 C.3   586  ILE586      0.0022
    152  CG2        6.9730   -1.9510   44.8790 C.3   586  ILE586      0.0022
    153  CD1        8.6150   -0.9130   42.5910 C.3   586  ILE586      0.0001
    154  N         10.1900    4.6850   44.9690 N.3   589  VAL589     -0.1245
    155  CA        10.2250    4.7500   43.5350 C.3   589  VAL589      0.1561
    156  C          8.8390    5.1330   42.9930 C.2   589  VAL589      0.2260
    157  O          8.7130    6.1980   42.4070 O.2   589  VAL589     -0.2867
    158  CB        10.8720    3.4920   42.8760 C.3   589  VAL589      0.0252
    159  CG1       10.2570    2.2260   43.3670 C.3   589  VAL589      0.0019
    160  CG2       10.7340    3.5680   41.4040 C.3   589  VAL589      0.0019
@<TRIPOS>BOND
     1    20    19    1
     2    17    16    2
     3    19    21    1
     4    19    18    1
     5    16    15    1
     6    25    24    2
     7    18    15    1
     8    24    23    1
     9    15    14    1
    10    22    23    1
    11    23    26    1
    12    14    10   am
    13    26    27    1
    14    11    10    2
    15    10     9    1
    16     6     5    1
    17     4     3    2
    18    27    28    1
    19     3     2    1
    20     8     9    1
    21     9    12    1
    22     5     2    1
    23     5     7    1
    24    28    30   am
    25    28    29    2
    26     2     1    1
    27    12    13    1
    28    31    32    1
    29    44    41    1
    30    36    37    1
    31    36    35    1
    32    38    37    2
    33    37    39   am
    34    41    40    1
    35    41    42    1
    36    32    35    1
    37    32    33    1
    38    43    42    2
    39    55    56    1
    40    55    54    1
    41    42    45   am
    42    33    34    2
    43   160   158    1
    44    45    46    1
    45    49    50    1
    46   157   156    2
    47    54    53    1
    48   153   151    1
    49    90    88    1
    50    50    53    1
    51    50    51    1
    52   158   159    1
    53   158   155    1
    54   156   155    1
    55    46    47    1
    56   155   154    1
    57   151   150    1
    58    89    87    1
    59    47    48    2
    60    88    87    1
    61    51    52    2
    62    51    57   am
    63    97    96    1
    64    96    98    1
    65    96    95    1
    66    87    84    1
    67    64    65    1
    68   152   150    1
    69   150   147    1
    70    57    58    1
    71    95    92    1
    72   147   148    1
    73   147   146    1
    74    73    74   ar
    75    73    71   ar
    76    74    72   ar
    77   149   148    2
    78    71    69   ar
    79    86    85    2
    80    84    85    1
    81    84    83    1
    82    65    68    1
    83    65    66    1
    84    72    70   ar
    85   145   143    1
    86    69    70   ar
    87    69    68    1
    88    94    93    2
    89    59    58    1
    90    59    60    2
    91    62    61    1
    92   146   141   am
    93    58    61    1
    94   142   141    2
    95   108   107   ar
    96   108   106   ar
    97    92    93    1
    98    92    91    1
    99   141   140    1
   100   138   137    1
   101    66    67    2
   102   136   137    1
   103   136   135    1
   104   107   105   ar
   105    93    99   am
   106    61    63    1
   107   143   140    1
   108   143   144    1
   109   122   120    1
   110   106   104   ar
   111   134   133    2
   112   105   104   ar
   113   140   139    1
   114   120   121    1
   115   120   117    1
   116   104   103    1
   117    99   100    1
   118   135   132    1
   119   129   128    1
   120   132   133    1
   121   132   131    1
   122   100   103    1
   123   100   101    1
   124   115   113    1
   125    82    80    1
   126   117   116    1
   127   117   118    1
   128   113   114    1
   129   113   110    1
   130   127   128    1
   131   127   124    1
   132   128   130    1
   133    80    81    1
   134    80    79    1
   135   116   111   am
   136   119   118    2
   137   101   102    2
   138   111   112    2
   139   111   110    1
   140   125   126    2
   141   125   124    1
   142   110   109    1
   143   124   123    1
   144    79    76    1
   145    76    75    1
   146    76    77    1
   147    78    77    2
