@<TRIPOS>MOLECULE
tmp/2wseF17.pdb
 182 179 0 0 0
SMALL
GASTEIGER

@<TRIPOS>ATOM
      1  N         -8.9430  -15.5090   31.8270 N.3    59  TRP59      -0.1241
      2  CA        -8.7860  -14.1530   32.3060 C.3    59  TRP59       0.1605
      3  C         -9.0020  -13.2640   31.0980 C.2    59  TRP59       0.2264
      4  O        -10.0220  -12.5620   31.0210 O.2    59  TRP59      -0.2867
      5  CB        -7.3660  -14.0300   32.8420 C.3    59  TRP59       0.0550
      6  CG        -6.9880  -12.7620   33.4630 C.ar   59  TRP59       0.0003
      7  CD1       -7.5980  -12.1460   34.5000 C.ar   59  TRP59       0.0946
      8  CD2       -5.8120  -11.9930   33.1580 C.ar   59  TRP59       0.0152
      9  NE1       -6.8980  -11.0160   34.8430 N.ar   59  TRP59      -0.2442
     10  CE2       -5.7990  -10.8990   34.0250 C.ar   59  TRP59       0.0810
     11  CE3       -4.7780  -12.1180   32.2110 C.ar   59  TRP59       0.0012
     12  CZ2       -4.8120   -9.9240   33.9680 C.ar   59  TRP59       0.0191
     13  CZ3       -3.7900  -11.1550   32.1670 C.ar   59  TRP59       0.0001
     14  CH2       -3.8140  -10.0750   33.0360 C.ar   59  TRP59       0.0015
     15  N        -11.7830  -10.4980   29.6960 N.3    63  ASN63      -0.1240
     16  CA       -11.2950   -9.1540   29.5360 C.3    63  ASN63       0.1653
     17  C        -11.8640   -8.6520   28.2240 C.2    63  ASN63       0.2266
     18  O        -12.4440   -7.5600   28.1360 O.2    63  ASN63      -0.2867
     19  CB        -9.7550   -9.1370   29.6160 C.3    63  ASN63       0.1155
     20  CG        -9.2240   -9.6940   30.9650 C.2    63  ASN63       0.2627
     21  OD1       -9.9970   -9.8670   31.9460 O.2    63  ASN63      -0.2716
     22  ND2       -7.9040   -9.9850   31.0120 N.am   63  ASN63      -0.0877
     23  N         -8.8390    1.1180   33.1820 N.3   116  TYR116     -0.1227
     24  CA        -7.5240    1.6160   33.6400 C.3   116  TYR116      0.1736
     25  C         -6.3620    0.6740   33.2550 C.2   116  TYR116      0.2596
     26  O         -5.2370    1.1190   33.1230 O.2   116  TYR116     -0.2718
     27  CB        -7.5360    1.9260   35.1390 C.3   116  TYR116      0.0548
     28  CG        -8.3620    3.1490   35.5260 C.ar  116  TYR116     -0.0200
     29  CD1       -9.4680    3.0240   36.3750 C.ar  116  TYR116     -0.0009
     30  CD2       -8.0490    4.4220   35.0430 C.ar  116  TYR116     -0.0009
     31  CE1      -10.2600    4.1220   36.7290 C.ar  116  TYR116      0.0417
     32  CE2       -8.8340    5.5350   35.4000 C.ar  116  TYR116      0.0417
     33  CZ        -9.9390    5.3710   36.2450 C.ar  116  TYR116      0.1957
     34  OH       -10.7230    6.4490   36.6090 O.3   116  TYR116     -0.2866
     35  N         -6.6310   -0.6200   33.0800 N.am  117  SER117     -0.1952
     36  CA        -5.7710   -1.4690   32.2100 C.3   117  SER117      0.1924
     37  C         -5.6440   -0.8190   30.8220 C.2   117  SER117      0.2314
     38  O         -6.5530   -0.0960   30.3800 O.2   117  SER117     -0.2863
     39  CB        -6.3550   -2.9150   32.0500 C.3   117  SER117      0.2116
     40  OG        -7.1090   -3.1110   30.8360 O.3   117  SER117     -0.2180
     41  N         -5.2420   -2.5390   27.6710 N.3   119  VAL119     -0.1245
     42  CA        -6.1100   -3.2950   26.7400 C.3   119  VAL119      0.1561
     43  C         -6.9450   -2.4450   25.7620 C.2   119  VAL119      0.2260
     44  O         -6.9630   -2.7160   24.5650 O.2   119  VAL119     -0.2867
     45  CB        -7.0890   -4.2410   27.4850 C.3   119  VAL119      0.0252
     46  CG1       -8.1120   -4.8430   26.5340 C.3   119  VAL119      0.0019
     47  CG2       -6.3400   -5.3540   28.2030 C.3   119  VAL119      0.0019
     48  N         -1.4250    3.8320   36.8110 N.3   369  ALA369     -0.1231
     49  CA        -1.8990    2.6640   37.5640 C.3   369  ALA369      0.1694
     50  C         -1.6400    1.4640   36.6820 C.2   369  ALA369      0.2591
     51  O         -2.5570    0.6860   36.4170 O.2   369  ALA369     -0.2718
     52  CB        -3.4190    2.7860   37.8310 C.3   369  ALA369      0.0304
     53  N         -0.3840    1.3700   36.2080 N.am  370  LEU370     -0.1980
     54  CA         0.0480    0.4790   35.1140 C.3   370  LEU370      0.1596
     55  C          1.5900    0.4920   34.9630 C.2   370  LEU370      0.2287
     56  O          2.1870   -0.3920   34.3330 O.2   370  LEU370     -0.2864
     57  CB        -0.6040    0.8860   33.7890 C.3   370  LEU370      0.0297
     58  CG        -0.2730   -0.0090   32.5940 C.3   370  LEU370      0.0022
     59  CD1       -1.2990   -1.1460   32.4480 C.3   370  LEU370      0.0001
     60  CD2       -0.1850    0.8020   31.3290 C.3   370  LEU370      0.0001
     61  N          3.0010    0.6130   37.7280 N.3   372  THR372     -0.1203
     62  CA         3.1870    0.2360   39.1210 C.3   372  THR372      0.1994
     63  C          2.7970   -1.2340   39.4450 C.2   372  THR372      0.2617
     64  O          3.3310   -1.8610   40.3570 O.2   372  THR372     -0.2717
     65  CB         2.3870    1.2600   39.9110 C.3   372  THR372      0.1784
     66  OG1        2.8940    2.5510   39.5460 O.3   372  THR372     -0.2211
     67  CG2        2.4970    1.0750   41.3840 C.3   372  THR372      0.0376
     68  N          1.8540   -1.7500   38.6660 N.am  373  HIS373     -0.1975
     69  CA         1.3870   -3.1120   38.7150 C.3   373  HIS373      0.1656
     70  C          2.3900   -3.8060   37.8310 C.2   373  HIS373      0.2291
     71  O          2.0220   -4.5860   36.9680 O.2   373  HIS373     -0.2864
     72  CB        -0.0200   -3.1220   38.1020 C.3   373  HIS373      0.0771
     73  CG        -0.3260   -4.3250   37.2710 C.ar  373  HIS373      0.0820
     74  ND1       -0.2880   -4.2930   35.8920 N.ar  373  HIS373     -0.2267
     75  CD2       -0.6640   -5.5990   37.6150 C.ar  373  HIS373      0.1154
     76  CE1       -0.5840   -5.5000   35.4250 C.ar  373  HIS373      0.1986
     77  NE2       -0.8190   -6.3080   36.4470 N.ar  373  HIS373     -0.2212
     78  N          5.0620   -2.9250   41.4600 N.3   376  TYR376     -0.1227
     79  CA         4.5360   -4.0060   42.3520 C.3   376  TYR376      0.1736
     80  C          4.3010   -5.2090   41.4540 C.2   376  TYR376      0.2595
     81  O          3.8670   -5.0420   40.3000 O.2   376  TYR376     -0.2718
     82  CB         3.2270   -3.6130   43.0410 C.3   376  TYR376      0.0548
     83  CG         3.3960   -2.6070   44.1230 C.ar  376  TYR376     -0.0200
     84  CD1        3.5300   -2.9920   45.4370 C.ar  376  TYR376     -0.0009
     85  CD2        3.4210   -1.2630   43.8280 C.ar  376  TYR376     -0.0009
     86  CE1        3.6770   -2.0240   46.4490 C.ar  376  TYR376      0.0417
     87  CE2        3.5740   -0.2910   44.8110 C.ar  376  TYR376      0.0417
     88  CZ         3.7060   -0.6580   46.1190 C.ar  376  TYR376      0.1957
     89  OH         3.8920    0.3290   47.0730 O.3   376  TYR376     -0.2866
     90  N          4.5980   -6.4090   41.9460 N.am  377  ILE377     -0.1980
     91  CA         5.1920   -7.4250   41.0580 C.3   377  ILE377      0.1595
     92  C          6.6220   -6.8790   40.8390 C.2   377  ILE377      0.2287
     93  O          6.9650   -5.9110   41.5000 O.2   377  ILE377     -0.2864
     94  CB         4.4650   -7.5340   39.7400 C.3   377  ILE377      0.0276
     95  CG1        2.9590   -7.7200   39.9730 C.3   377  ILE377      0.0022
     96  CG2        4.9960   -8.7250   38.9990 C.3   377  ILE377      0.0022
     97  CD1        2.1230   -7.2700   38.8150 C.3   377  ILE377      0.0001
     98  N          7.9400   -7.3150   43.7950 N.3   380  PHE380     -0.1241
     99  CA         7.3700   -8.5850   44.3130 C.3   380  PHE380      0.1605
    100  C          8.1000   -9.8410   43.8190 C.2   380  PHE380      0.2264
    101  O          8.0830  -10.8610   44.5010 O.2   380  PHE380     -0.2867
    102  CB         5.8580   -8.7130   44.0310 C.3   380  PHE380      0.0534
    103  CG         4.9630   -8.1890   45.1270 C.ar  380  PHE380     -0.0203
    104  CD1        4.4600   -6.8830   45.0850 C.ar  380  PHE380     -0.0042
    105  CD2        4.6030   -9.0080   46.2040 C.ar  380  PHE380     -0.0042
    106  CE1        3.6190   -6.4070   46.1170 C.ar  380  PHE380     -0.0003
    107  CE2        3.7730   -8.5430   47.2270 C.ar  380  PHE380     -0.0003
    108  CZ         3.2740   -7.2550   47.1780 C.ar  380  PHE380     -0.0000
    109  N        -13.6020    3.9130   45.7650 N.3   645  TRP645     -0.1241
    110  CA       -12.1950    4.1850   46.0370 C.3   645  TRP645      0.1605
    111  C        -11.8860    4.4740   47.5010 C.2   645  TRP645      0.2264
    112  O        -11.1410    3.7190   48.1060 O.2   645  TRP645     -0.2867
    113  CB       -11.6620    5.2580   45.0630 C.3   645  TRP645      0.0550
    114  CG       -11.8470    4.8410   43.6310 C.ar  645  TRP645      0.0003
    115  CD1      -12.8370    5.2460   42.7970 C.ar  645  TRP645      0.0946
    116  CD2      -11.0540    3.8990   42.8970 C.ar  645  TRP645      0.0152
    117  NE1      -12.7170    4.6320   41.5770 N.ar  645  TRP645     -0.2442
    118  CE2      -11.6230    3.7980   41.6130 C.ar  645  TRP645      0.0810
    119  CE3       -9.9160    3.1290   43.1960 C.ar  645  TRP645      0.0012
    120  CZ2      -11.0820    2.9630   40.6210 C.ar  645  TRP645      0.0191
    121  CZ3       -9.3870    2.2960   42.2130 C.ar  645  TRP645      0.0001
    122  CH2       -9.9640    2.2240   40.9410 C.ar  645  TRP645      0.0015
    123  N        -12.3360    1.8260   49.7740 N.3   648  MET648     -0.1245
    124  CA       -11.1990    0.9470   49.5390 C.3   648  MET648      0.1570
    125  C        -10.0140    1.4730   50.3750 C.2   648  MET648      0.2261
    126  O         -9.2950    0.7320   51.0570 O.2   648  MET648     -0.2867
    127  CB       -10.8360    0.9470   48.0430 C.3   648  MET648      0.0387
    128  CG       -11.3630   -0.2430   47.2260 C.3   648  MET648      0.0595
    129  SD       -10.0310   -1.0370   46.2750 S.3   648  MET648     -0.1393
    130  CE        -9.5500    0.3070   45.1930 C.3   648  MET648      0.0692
    131  N         -0.9700   -2.2660   49.5520 N.3   717  ILE717     -0.1231
    132  CA        -0.9680   -2.2210   48.0890 C.3   717  ILE717      0.1692
    133  C         -2.3890   -1.9110   47.5650 C.2   717  ILE717      0.2592
    134  O         -2.5630   -1.5290   46.4190 O.2   717  ILE717     -0.2718
    135  CB        -0.3170   -3.5010   47.4680 C.3   717  ILE717      0.0266
    136  CG1       -0.0380   -3.3220   45.9810 C.3   717  ILE717      0.0019
    137  CG2       -1.1930   -4.7210   47.6790 C.3   717  ILE717      0.0020
    138  CD1       -1.0780   -3.9960   45.0520 C.3   717  ILE717      0.0001
    139  N         -3.3920   -2.0690   48.4340 N.am  718  PHE718     -0.1976
    140  CA        -4.7790   -1.7880   48.0860 C.3   718  PHE718      0.1639
    141  C         -5.0540   -0.3580   48.5040 C.2   718  PHE718      0.2290
    142  O         -6.1460    0.1550   48.2240 O.2   718  PHE718     -0.2864
    143  CB        -5.7660   -2.7410   48.8050 C.3   718  PHE718      0.0560
    144  CG        -6.4800   -3.7330   47.9060 C.ar  718  PHE718     -0.0200
    145  CD1       -7.7250   -3.4510   47.3920 C.ar  718  PHE718     -0.0042
    146  CD2       -5.9320   -4.9790   47.6250 C.ar  718  PHE718     -0.0042
    147  CE1       -8.4060   -4.3840   46.5810 C.ar  718  PHE718     -0.0003
    148  CE2       -6.6160   -5.9090   46.8070 C.ar  718  PHE718     -0.0003
    149  CZ        -7.8490   -5.6000   46.2980 C.ar  718  PHE718     -0.0000
    150  N         -2.5910    2.5750   48.0210 N.3   720  TYR720     -0.1227
    151  CA        -2.0840    3.2680   46.8100 C.3   720  TYR720      0.1736
    152  C         -2.9170    2.9570   45.5790 C.2   720  TYR720      0.2595
    153  O         -3.2160    3.8490   44.7940 O.2   720  TYR720     -0.2718
    154  CB        -0.6400    2.8820   46.5210 C.3   720  TYR720      0.0548
    155  CG         0.2020    4.0360   46.0960 C.ar  720  TYR720     -0.0200
    156  CD1        0.4250    5.1210   46.9490 C.ar  720  TYR720     -0.0009
    157  CD2        0.7970    4.0480   44.8630 C.ar  720  TYR720     -0.0009
    158  CE1        1.2310    6.2050   46.5630 C.ar  720  TYR720      0.0417
    159  CE2        1.5910    5.1260   44.4630 C.ar  720  TYR720      0.0417
    160  CZ         1.8120    6.1960   45.3200 C.ar  720  TYR720      0.1957
    161  OH         2.6270    7.2290   44.9060 O.3   720  TYR720     -0.2866
    162  N         -3.2910    1.6900   45.4220 N.am  721  ALA721     -0.1980
    163  CA        -4.2920    1.2920   44.4250 C.3   721  ALA721      0.1597
    164  C         -5.4040    2.2990   44.3880 C.2   721  ALA721      0.2287
    165  O         -5.6660    2.9090   43.3720 O.2   721  ALA721     -0.2864
    166  CB        -4.8960   -0.1100   44.7330 C.3   721  ALA721      0.0319
    167  N         -3.8640    6.5460   44.3120 N.3   724  LEU724     -0.1231
    168  CA        -3.5030    7.2570   43.0810 C.3   724  LEU724      0.1693
    169  C         -4.7580    7.5060   42.2060 C.2   724  LEU724      0.2591
    170  O         -5.1390    8.6790   41.9770 O.2   724  LEU724     -0.2718
    171  CB        -2.3350    6.5930   42.3250 C.3   724  LEU724      0.0284
    172  CG        -2.5460    5.7170   41.0780 C.3   724  LEU724      0.0019
    173  CD1       -1.3470    5.9140   40.1570 C.3   724  LEU724      0.0001
    174  CD2       -2.7490    4.2260   41.4000 C.3   724  LEU724      0.0001
    175  N         -5.4120    6.4160   41.7860 N.am  725  ILE725     -0.1980
    176  CA        -6.6830    6.4790   41.0830 C.3   725  ILE725      0.1595
    177  C         -7.6170    7.5310   41.6740 C.2   725  ILE725      0.2287
    178  O         -8.1240    8.3680   40.9510 O.2   725  ILE725     -0.2864
    179  CB        -7.3940    5.1050   41.0890 C.3   725  ILE725      0.0276
    180  CG1       -6.4840    4.0450   40.4400 C.3   725  ILE725      0.0022
    181  CG2       -8.6940    5.1710   40.3350 C.3   725  ILE725      0.0022
    182  CD1       -6.8380    2.6210   40.7590 C.3   725  ILE725      0.0001
@<TRIPOS>BOND
     1    44    43    2
     2    43    42    1
     3    46    45    1
     4    42    45    1
     5    42    41    1
     6    45    47    1
     7    18    17    2
     8    17    16    1
     9    16    19    1
    10    16    15    1
    11    19    20    1
    12    38    37    2
    13    37    36    1
    14    40    39    1
    15    20    22   am
    16    20    21    2
    17     4     3    2
    18     3     2    1
    19    60    58    1
    20     1     2    1
    21    39    36    1
    22    13    11   ar
    23    13    14   ar
    24    36    35    1
    25    11     8   ar
    26     2     5    1
    27    59    58    1
    28    58    57    1
    29     5     6    1
    30    14    12   ar
    31    35    25   am
    32    26    25    2
    33     8     6   ar
    34     8    10   ar
    35    23    24    1
    36    25    24    1
    37     6     7   ar
    38    24    27    1
    39    57    54    1
    40    12    10   ar
    41    10     9   ar
    42    56    55    2
    43     7     9   ar
    44    55    54    1
    45    30    32   ar
    46    30    28   ar
    47    54    53    1
    48    27    28    1
    49    32    33   ar
    50    76    74   ar
    51    76    77   ar
    52    28    29   ar
    53    74    73   ar
    54    53    50   am
    55    33    34    1
    56    33    31   ar
    57    29    31   ar
    58    51    50    2
    59    77    75   ar
    60    50    49    1
    61    48    49    1
    62    71    70    2
    63    73    75   ar
    64    73    72    1
    65    49    52    1
    66    61    62    1
    67    70    69    1
    68    72    69    1
    69    68    69    1
    70    68    63   am
    71    97    95    1
    72    96    94    1
    73    62    63    1
    74    62    65    1
    75    63    64    2
    76    66    65    1
    77    94    95    1
    78    94    91    1
    79    65    67    1
    80   173   172    1
    81    81    80    2
    82   181   179    1
    83   180   182    1
    84   180   179    1
    85   120   122   ar
    86   120   118   ar
    87    92    91    1
    88    92    93    2
    89   122   121   ar
    90   178   177    2
    91    91    90    1
    92   172   174    1
    93   172   171    1
    94   176   179    1
    95   176   177    1
    96   176   175    1
    97    80    90   am
    98    80    79    1
    99    78    79    1
   100   117   118   ar
   101   117   115   ar
   102   118   116   ar
   103   175   169   am
   104   170   169    2
   105   169   168    1
   106   121   119   ar
   107   171   168    1
   108    79    82    1
   109   115   114   ar
   110   116   119   ar
   111   116   114   ar
   112    82    83    1
   113   168   167    1
   114   165   164    2
   115   114   113    1
   116    98    99    1
   117   100    99    1
   118   100   101    2
   119    85    83   ar
   120    85    87   ar
   121   102    99    1
   122   102   103    1
   123    83    84   ar
   124   164   163    1
   125   163   166    1
   126   163   162    1
   127   159   157   ar
   128   159   160   ar
   129   153   152    2
   130    87    88   ar
   131   157   155   ar
   132   161   160    1
   133   138   136    1
   134   113   110    1
   135   104   103   ar
   136   104   106   ar
   137   103   105   ar
   138   130   129    1
   139   160   158   ar
   140   162   152   am
   141    84    86   ar
   142   152   151    1
   143   109   110    1
   144   136   135    1
   145   110   111    1
   146   155   154    1
   147   155   156   ar
   148   106   108   ar
   149    88    86   ar
   150    88    89    1
   151   105   107   ar
   152   129   128    1
   153   149   147   ar
   154   149   148   ar
   155   134   133    2
   156   154   151    1
   157   158   156   ar
   158   147   145   ar
   159   148   146   ar
   160   151   150    1
   161   108   107   ar
   162   128   127    1
   163   145   144   ar
   164   135   137    1
   165   135   132    1
   166   111   112    2
   167   133   132    1
   168   133   139   am
   169   146   144   ar
   170   144   143    1
   171   127   124    1
   172   140   139    1
   173   140   141    1
   174   140   143    1
   175   132   131    1
   176   142   141    2
   177   124   123    1
   178   124   125    1
   179   125   126    2
