@<TRIPOS>MOLECULE
tmp/2wseE14.pdb
 191 184 0 0 0
SMALL
GASTEIGER

@<TRIPOS>ATOM
      1  N         12.9990   20.8290   89.4580 N.3    72  TRP72      -0.1227
      2  CA        11.8710   21.1430   88.5750 C.3    72  TRP72       0.1737
      3  C         10.9620   22.0610   89.4010 C.2    72  TRP72       0.2595
      4  O         11.1050   22.0900   90.6250 O.2    72  TRP72      -0.2718
      5  CB        11.1510   19.8360   88.2310 C.3    72  TRP72       0.0564
      6  CG        10.1770   19.8590   87.1040 C.ar   72  TRP72       0.0003
      7  CD1       10.4620   19.7050   85.7800 C.ar   72  TRP72       0.0946
      8  CD2        8.7460   19.9530   87.1980 C.ar   72  TRP72       0.0152
      9  NE1        9.2920   19.7290   85.0380 N.ar   72  TRP72      -0.2442
     10  CE2        8.2260   19.8780   85.8980 C.ar   72  TRP72       0.0810
     11  CE3        7.8500   20.0980   88.2530 C.ar   72  TRP72       0.0012
     12  CZ2        6.8650   19.9460   85.6340 C.ar   72  TRP72       0.0191
     13  CZ3        6.5060   20.1650   87.9810 C.ar   72  TRP72       0.0001
     14  CH2        6.0220   20.0910   86.6900 C.ar   72  TRP72       0.0015
     15  N         10.0500   22.8000   88.7590 N.am   73  LEU73      -0.1980
     16  CA         9.1370   23.7730   89.4380 C.3    73  LEU73       0.1596
     17  C          9.9000   25.0070   89.7590 C.2    73  LEU73       0.2287
     18  O          9.3220   26.0940   89.8310 O.2    73  LEU73      -0.2864
     19  CB         8.5550   23.3350   90.7980 C.3    73  LEU73       0.0297
     20  CG         7.8010   22.1080   91.2730 C.3    73  LEU73       0.0022
     21  CD1        8.1590   22.0300   92.7150 C.3    73  LEU73       0.0001
     22  CD2        6.3400   22.3100   91.1110 C.3    73  LEU73       0.0001
     23  N          8.9670   28.3280   88.0390 N.3    77  TYR77      -0.1241
     24  CA         8.6530   29.5480   88.7900 C.3    77  TYR77       0.1605
     25  C          9.6640   30.6310   88.3740 C.2    77  TYR77       0.2264
     26  O          9.2560   31.6830   87.8490 O.2    77  TYR77      -0.2867
     27  CB         8.6390   29.2940   90.2950 C.3    77  TYR77       0.0534
     28  CG         7.2960   28.7440   90.8350 C.ar   77  TYR77      -0.0201
     29  CD1        6.2490   29.6100   91.2080 C.ar   77  TYR77      -0.0009
     30  CD2        7.0840   27.3640   90.9900 C.ar   77  TYR77      -0.0009
     31  CE1        5.0450   29.1310   91.7010 C.ar   77  TYR77       0.0417
     32  CE2        5.8720   26.8830   91.4940 C.ar   77  TYR77       0.0417
     33  CZ         4.8600   27.7790   91.8410 C.ar   77  TYR77       0.1957
     34  OH         3.6600   27.3010   92.3130 O.3    77  TYR77      -0.2866
     35  N          0.6350   24.9600   79.7430 N.3   127  SER127     -0.1202
     36  CA         0.9840   24.3560   81.0330 C.3   127  SER127      0.2020
     37  C          0.6650   25.4220   82.0620 C.2   127  SER127      0.2619
     38  O          1.5270   26.2570   82.4100 O.2   127  SER127     -0.2717
     39  CB         2.4720   23.9950   81.0940 C.3   127  SER127      0.2103
     40  OG         2.7780   23.4510   82.3560 O.3   127  SER127     -0.2182
     41  N         -0.5900   25.3800   82.5300 N.am  128  GLY128     -0.1942
     42  CA        -1.2530   26.5200   83.1440 C.3   128  GLY128      0.2014
     43  C         -0.7600   27.0870   84.4620 C.2   128  GLY128      0.2638
     44  O         -1.5710   27.3470   85.3690 O.2   128  GLY128     -0.2714
     45  N          0.5570   27.2900   84.5930 N.am  129  PHE129     -0.1973
     46  CA         1.0270   28.2810   85.5300 C.3   129  PHE129      0.1639
     47  C          0.4590   29.5590   84.9390 C.2   129  PHE129      0.2290
     48  O         -0.4580   29.4720   84.1050 O.2   129  PHE129     -0.2864
     49  CB         2.5460   28.2910   85.5950 C.3   129  PHE129      0.0560
     50  CG         3.1080   27.1610   86.4010 C.ar  129  PHE129     -0.0200
     51  CD1        3.3190   25.9030   85.8240 C.ar  129  PHE129     -0.0042
     52  CD2        3.4120   27.3380   87.7500 C.ar  129  PHE129     -0.0042
     53  CE1        3.8370   24.8410   86.5730 C.ar  129  PHE129     -0.0003
     54  CE2        3.9310   26.2780   88.5030 C.ar  129  PHE129     -0.0003
     55  CZ         4.1440   25.0310   87.9190 C.ar  129  PHE129     -0.0000
     56  N         -2.3990   29.0670   87.8930 N.3   132  ILE132     -0.1245
     57  CA        -2.3550   28.7650   89.3120 C.3   132  ILE132      0.1561
     58  C         -2.0180   30.1690   89.8250 C.2   132  ILE132      0.2260
     59  O         -2.6500   30.6980   90.7590 O.2   132  ILE132     -0.2867
     60  CB        -1.1550   27.8320   89.6410 C.3   132  ILE132      0.0252
     61  CG1       -1.3350   26.4550   88.9910 C.3   132  ILE132      0.0019
     62  CG2       -0.9270   27.7190   91.1680 C.3   132  ILE132      0.0019
     63  CD1       -0.0220   25.8260   88.5190 C.3   132  ILE132      0.0001
     64  N        -12.4560   23.5500  100.3450 N.3   283  HIS283     -0.1241
     65  CA       -11.1890   22.9870  100.8070 C.3   283  HIS283      0.1621
     66  C        -11.2590   22.8440  102.3130 C.2   283  HIS283      0.2264
     67  O        -10.7270   21.8770  102.9160 O.2   283  HIS283     -0.2867
     68  CB       -10.0350   23.8970  100.3590 C.3   283  HIS283      0.0745
     69  CG        -9.8160   23.8900   98.8820 C.ar  283  HIS283      0.0817
     70  ND1       -8.5940   24.1950   98.3080 N.ar  283  HIS283     -0.2268
     71  CD2      -10.6480   23.5600   97.8660 C.ar  283  HIS283      0.1154
     72  CE1       -8.6840   24.0810   97.0030 C.ar  283  HIS283      0.1986
     73  NE2       -9.9220   23.6920   96.7100 N.ar  283  HIS283     -0.2212
     74  N         -4.2370    5.9550   92.1190 N.3   337  LEU337     -0.1245
     75  CA        -3.4640    7.1310   91.7260 C.3   337  LEU337      0.1561
     76  C         -3.7450    7.4340   90.2670 C.2   337  LEU337      0.2260
     77  O         -4.3490    8.4700   89.9660 O.2   337  LEU337     -0.2867
     78  CB        -1.9590    6.8890   91.9370 C.3   337  LEU337      0.0270
     79  CG        -0.9920    8.0310   91.5930 C.3   337  LEU337      0.0019
     80  CD1       -1.5950    9.3740   91.9690 C.3   337  LEU337      0.0001
     81  CD2        0.3270    7.8410   92.3120 C.3   337  LEU337      0.0001
     82  N         -7.2740    7.6830   89.4910 N.3   340  LEU340     -0.1231
     83  CA        -7.7360    8.8970   90.1430 C.3   340  LEU340      0.1693
     84  C         -7.0870   10.1470   89.5740 C.2   340  LEU340      0.2592
     85  O         -7.3500   11.2630   90.0600 O.2   340  LEU340     -0.2718
     86  CB        -7.5470    8.8180   91.6510 C.3   340  LEU340      0.0284
     87  CG        -8.6080    9.3800   92.6340 C.3   340  LEU340      0.0019
     88  CD1       -8.5930    8.5650   93.9240 C.3   340  LEU340      0.0001
     89  CD2       -8.3570   10.8530   92.9190 C.3   340  LEU340      0.0001
     90  N         -6.2570    9.9780   88.5320 N.am  341  THR341     -0.1953
     91  CA        -5.7940   11.1500   87.7600 C.3   341  THR341      0.1897
     92  C         -6.7530   11.4290   86.6350 C.2   341  THR341      0.2313
     93  O         -7.2170   12.5440   86.5250 O.2   341  THR341     -0.2863
     94  CB        -4.4060   11.0500   87.1550 C.3   341  THR341      0.1794
     95  OG1       -4.5250   10.6360   85.8060 O.3   341  THR341     -0.2208
     96  CG2       -3.5540   10.0980   87.9130 C.3   341  THR341      0.0378
     97  N         -9.5970   13.6440   87.1500 N.3   344  VAL344     -0.1245
     98  CA        -9.2690   15.0560   86.9620 C.3   344  VAL344      0.1561
     99  C         -9.7440   15.4690   85.5590 C.2   344  VAL344      0.2260
    100  O        -10.6560   16.3090   85.3790 O.2   344  VAL344     -0.2867
    101  CB        -7.7440   15.2860   87.0380 C.3   344  VAL344      0.0252
    102  CG1       -7.4380   16.7550   86.9040 C.3   344  VAL344      0.0019
    103  CG2       -7.1370   14.6730   88.3250 C.3   344  VAL344      0.0019
    104  N        -12.2270   19.0080   85.2490 N.3   348  MET348     -0.1245
    105  CA       -11.4690   20.1660   84.8190 C.3   348  MET348      0.1570
    106  C        -12.2170   20.9230   83.6920 C.2   348  MET348      0.2261
    107  O        -12.6130   22.0860   83.8580 O.2   348  MET348     -0.2867
    108  CB       -10.1100   19.6820   84.3040 C.3   348  MET348      0.0387
    109  CG        -9.0300   20.7310   84.3130 C.3   348  MET348      0.0595
    110  SD        -8.2160   20.5590   85.8900 S.3   348  MET348     -0.1393
    111  CE        -6.4830   20.8580   85.4720 C.3   348  MET348      0.0692
    112  N        -11.3550   25.1720   87.6330 N.3   353  PRO353     -0.2102
    113  CA       -10.9200   25.6610   88.9530 C.3   353  PRO353      0.1504
    114  C         -9.8900   26.8330   89.0410 C.2   353  PRO353      0.2575
    115  O         -9.5760   27.2890   90.1740 O.2   353  PRO353     -0.2718
    116  CB       -10.2520   24.4220   89.5200 C.3   353  PRO353      0.0282
    117  CG        -9.5700   23.8070   88.3160 C.3   353  PRO353      0.0208
    118  CD       -10.4510   24.0950   87.1510 C.3   353  PRO353      0.0893
    119  N         -9.3490   27.2730   87.8820 N.am  354  TYR354     -0.1977
    120  CA        -8.4530   28.4670   87.7790 C.3   354  TYR354      0.1639
    121  C         -9.0490   29.6180   86.9650 C.2   354  TYR354      0.2290
    122  O         -9.7390   29.3980   85.9520 O.2   354  TYR354     -0.2864
    123  CB        -7.1170   28.1330   87.1190 C.3   354  TYR354      0.0560
    124  CG        -6.2610   27.0830   87.7700 C.ar  354  TYR354     -0.0198
    125  CD1       -5.7780   27.2410   89.0800 C.ar  354  TYR354     -0.0009
    126  CD2       -5.8630   25.9480   87.0500 C.ar  354  TYR354     -0.0009
    127  CE1       -4.9470   26.2610   89.6640 C.ar  354  TYR354      0.0417
    128  CE2       -5.0350   24.9720   87.6160 C.ar  354  TYR354      0.0417
    129  CZ        -4.5840   25.1260   88.9170 C.ar  354  TYR354      0.1957
    130  OH        -3.7720   24.1380   89.4380 O.3   354  TYR354     -0.2866
    131  N         -9.5300   29.9610   82.1150 N.3   357  LEU357     -0.1245
    132  CA        -9.4050   28.6260   81.4810 C.3   357  LEU357      0.1561
    133  C        -10.6970   28.3090   80.7650 C.2   357  LEU357      0.2260
    134  O        -11.7950   28.3780   81.3310 O.2   357  LEU357     -0.2867
    135  CB        -9.2240   27.4930   82.4890 C.3   357  LEU357      0.0270
    136  CG        -8.1050   27.3510   83.5180 C.3   357  LEU357      0.0019
    137  CD1       -8.7000   26.4330   84.6140 C.3   357  LEU357      0.0001
    138  CD2       -6.7380   26.8150   82.9510 C.3   357  LEU357      0.0001
    139  N         -5.7330   24.4410   78.6670 N.3   364  GLN364     -0.1245
    140  CA        -6.3600   23.3800   79.4640 C.3   364  GLN364      0.1566
    141  C         -6.9930   22.3270   78.5280 C.2   364  GLN364      0.2260
    142  O         -8.2090   22.1160   78.5310 O.2   364  GLN364     -0.2867
    143  CB        -7.2970   23.9690   80.5690 C.3   364  GLN364      0.0367
    144  CG        -8.8120   23.6440   80.5680 C.3   364  GLN364      0.0905
    145  CD        -9.5600   24.1580   79.4010 C.2   364  GLN364      0.2608
    146  OE1       -8.9530   24.5850   78.4330 O.2   364  GLN364     -0.2717
    147  NE2      -10.8960   24.0940   79.4660 N.am  364  GLN364     -0.0878
    148  N         -3.5750   19.9460   79.0400 N.3   367  LEU367     -0.1245
    149  CA        -3.8340   19.4250   80.3860 C.3   367  LEU367      0.1561
    150  C         -4.6330   18.1530   80.2820 C.2   367  LEU367      0.2260
    151  O         -4.1150   17.0580   80.5270 O.2   367  LEU367     -0.2867
    152  CB        -4.6380   20.4290   81.2590 C.3   367  LEU367      0.0270
    153  CG        -4.0120   21.5180   82.1710 C.3   367  LEU367      0.0019
    154  CD1       -2.8650   21.0070   83.0100 C.3   367  LEU367      0.0001
    155  CD2       -3.5410   22.6610   81.3470 C.3   367  LEU367      0.0001
    156  N         -2.5200   15.4510   78.7450 N.3   370  HIS370     -0.1226
    157  CA        -1.4300   15.0860   79.5950 C.3   370  HIS370      0.1752
    158  C         -2.0190   14.3490   80.8090 C.2   370  HIS370      0.2596
    159  O         -1.8360   13.1310   80.9470 O.2   370  HIS370     -0.2718
    160  CB        -0.6160   16.2790   80.0320 C.3   370  HIS370      0.0759
    161  CG         0.3860   15.9220   81.0810 C.ar  370  HIS370      0.0818
    162  ND1        0.0460   15.7940   82.4160 N.ar  370  HIS370     -0.2268
    163  CD2        1.7000   15.5790   80.9830 C.ar  370  HIS370      0.1154
    164  CE1        1.1250   15.4320   83.0940 C.ar  370  HIS370      0.1986
    165  NE2        2.1440   15.2970   82.2490 N.ar  370  HIS370     -0.2212
    166  N         -2.7140   15.0760   81.6930 N.am  371  HIS371     -0.1975
    167  CA        -3.6040   14.3770   82.6130 C.3   371  HIS371      0.1656
    168  C         -4.5910   13.7180   81.6760 C.2   371  HIS371      0.2291
    169  O         -5.3990   14.4200   81.0400 O.2   371  HIS371     -0.2864
    170  CB        -4.3630   15.2910   83.5930 C.3   371  HIS371      0.0771
    171  CG        -3.4690   16.0970   84.4840 C.ar  371  HIS371      0.0820
    172  ND1       -3.5710   17.4720   84.5870 N.ar  371  HIS371     -0.2267
    173  CD2       -2.4600   15.7280   85.3110 C.ar  371  HIS371      0.1154
    174  CE1       -2.6590   17.9160   85.4360 C.ar  371  HIS371      0.1986
    175  NE2       -1.9690   16.8810   85.8870 N.ar  371  HIS371     -0.2212
    176  N         -1.4710    9.7050   82.0550 N.3   374  ILE374     -0.1245
    177  CA        -1.0380    9.2030   83.3670 C.3   374  ILE374      0.1561
    178  C         -2.1380    8.3150   83.9870 C.2   374  ILE374      0.2260
    179  O         -1.8440    7.2620   84.5920 O.2   374  ILE374     -0.2867
    180  CB        -0.7130   10.3790   84.3250 C.3   374  ILE374      0.0252
    181  CG1        0.8070   10.6540   84.3770 C.3   374  ILE374      0.0019
    182  CG2       -1.1820   10.0790   85.6910 C.3   374  ILE374      0.0019
    183  CD1        1.5630   10.2260   85.6740 C.3   374  ILE374      0.0001
    184  N         -0.2860    4.8000   84.1480 N.3   378  LEU378     -0.1245
    185  CA        -0.0270    4.3960   85.5180 C.3   378  LEU378      0.1561
    186  C         -0.8890    3.1770   85.8980 C.2   378  LEU378      0.2260
    187  O         -0.7280    2.6080   86.9730 O.2   378  LEU378     -0.2867
    188  CB        -0.2330    5.5880   86.4650 C.3   378  LEU378      0.0270
    189  CG         0.7040    5.7470   87.6820 C.3   378  LEU378      0.0019
    190  CD1        2.1760    6.1090   87.3450 C.3   378  LEU378      0.0001
    191  CD2        0.1150    6.7930   88.5960 C.3   378  LEU378      0.0001
@<TRIPOS>BOND
     1   146   145    2
     2   141   142    2
     3   141   140    1
     4   139   140    1
     5   156   157    1
     6   148   149    1
     7   145   147   am
     8   145   144    1
     9   140   143    1
    10   157   160    1
    11   157   158    1
    12    35    36    1
    13   160   161    1
    14   150   149    1
    15   150   151    2
    16   149   152    1
    17   144   143    1
    18   133   134    2
    19   133   132    1
    20   158   159    2
    21   158   166   am
    22   163   161   ar
    23   163   165   ar
    24    36    39    1
    25    36    37    1
    26   169   168    2
    27   161   162   ar
    28    39    40    1
    29   152   153    1
    30   155   153    1
    31   132   131    1
    32   132   135    1
    33   168   167    1
    34   166   167    1
    35   176   177    1
    36    37    38    2
    37    37    41   am
    38   153   154    1
    39   165   164   ar
    40   162   164   ar
    41   135   136    1
    42    41    42    1
    43   167   170    1
    44   138   136    1
    45    42    43    1
    46   177   178    1
    47   177   180    1
    48   136   137    1
    49   170   171    1
    50   106   107    2
    51   106   105    1
    52   178   179    2
    53    48    47    2
    54   184   185    1
    55   108   109    1
    56   108   105    1
    57   109   110    1
    58   180   181    1
    59   180   182    1
    60   181   183    1
    61    43    45   am
    62    43    44    2
    63   171   172   ar
    64   171   173   ar
    65   172   174   ar
    66    45    46    1
    67   105   104    1
    68    47    46    1
    69     9     7   ar
    70     9    10   ar
    71   173   175   ar
    72   100    99    2
    73   174   175   ar
    74   111   110    1
    75   185   186    1
    76   185   188    1
    77    46    49    1
    78    99    98    1
    79    49    50    1
    80    12    10   ar
    81    12    14   ar
    82     7     6   ar
    83    95    94    1
    84    51    50   ar
    85    51    53   ar
    86   186   187    2
    87    10     8   ar
    88   122   121    2
    89    50    52   ar
    90   188   189    1
    91    93    92    2
    92    53    55   ar
    93    92    91    1
    94    14    13   ar
    95   102   101    1
    96    98   101    1
    97    98    97    1
    98   121   120    1
    99   101   103    1
   100   126   128   ar
   101   126   124   ar
   102     6     8   ar
   103     6     5    1
   104   123   124    1
   105   123   120    1
   106   118   112    1
   107   118   117    1
   108    94    91    1
   109    94    96    1
   110     8    11   ar
   111   190   189    1
   112   128   129   ar
   113   112   113    1
   114   189   191    1
   115    52    54   ar
   116    91    90    1
   117   124   125   ar
   118   120   119    1
   119    26    25    2
   120   119   114   am
   121    56    57    1
   122    55    54   ar
   123    13    11   ar
   124    23    24    1
   125     5     2    1
   126   117   116    1
   127    25    24    1
   128    63    61    1
   129    90    84   am
   130     2     3    1
   131     2     1    1
   132    15     3   am
   133    15    16    1
   134    24    27    1
   135   129   130    1
   136   129   127   ar
   137   113   114    1
   138   113   116    1
   139    61    60    1
   140   114   115    2
   141   125   127   ar
   142    57    60    1
   143    57    58    1
   144     3     4    2
   145    16    17    1
   146    16    19    1
   147    82    83    1
   148    84    85    2
   149    84    83    1
   150    60    62    1
   151    17    18    2
   152    58    59    2
   153    77    76    2
   154    83    86    1
   155    76    75    1
   156    27    28    1
   157    19    20    1
   158    28    30   ar
   159    28    29   ar
   160    30    32   ar
   161    22    20    1
   162    29    31   ar
   163    20    21    1
   164    32    33   ar
   165    79    78    1
   166    79    80    1
   167    79    81    1
   168    86    87    1
   169    31    33   ar
   170    75    78    1
   171    75    74    1
   172    33    34    1
   173    87    89    1
   174    87    88    1
   175    73    72   ar
   176    73    71   ar
   177    72    70   ar
   178    71    69   ar
   179    70    69   ar
   180    69    68    1
   181    64    65    1
   182    68    65    1
   183    65    66    1
   184    66    67    2
