@<TRIPOS>MOLECULE
tmp/2wseF00.pdb
 119 123 0 0 0
SMALL
GASTEIGER

@<TRIPOS>ATOM
      1  N        -16.6870   -2.9970   33.0010 N.3    88  HIS88      -0.1226
      2  CA       -17.8340   -3.8840   33.1730 C.3    88  HIS88       0.1752
      3  C        -18.8910   -3.2050   34.0200 C.2    88  HIS88       0.2596
      4  O        -18.6420   -2.1540   34.6240 O.2    88  HIS88      -0.2718
      5  CB       -17.4110   -5.2240   33.8220 C.3    88  HIS88       0.0759
      6  CG       -16.9460   -5.0990   35.2440 C.ar   88  HIS88       0.0818
      7  ND1      -15.9930   -4.1800   35.6490 N.ar   88  HIS88      -0.2268
      8  CD2      -17.2780   -5.8130   36.3470 C.ar   88  HIS88       0.1154
      9  CE1      -15.7730   -4.3170   36.9410 C.ar   88  HIS88       0.1986
     10  NE2      -16.5370   -5.3040   37.3880 N.ar   88  HIS88      -0.2212
     11  N        -20.0730   -3.8380   34.0680 N.am   89  ALA89      -0.1966
     12  CA       -21.2410   -3.2750   34.7470 C.3    89  ALA89       0.1728
     13  C        -21.2860   -3.6550   36.2220 C.2    89  ALA89       0.2616
     14  O        -21.4330   -4.8220   36.6040 O.2    89  ALA89      -0.2715
     15  CB       -22.5440   -3.6520   34.0170 C.3    89  ALA89       0.0334
     16  N        -21.1090   -2.6540   37.0660 N.am   90  ILE90      -0.1963
     17  CA       -21.2230   -2.9090   38.4850 C.3    90  ILE90       0.1727
     18  C        -22.7150   -3.0800   38.8330 C.2    90  ILE90       0.2616
     19  O        -23.5950   -2.3030   38.3920 O.2    90  ILE90      -0.2715
     20  CB       -20.4490   -1.8810   39.3690 C.3    90  ILE90       0.0290
     21  CG1      -20.9400   -0.4470   39.1290 C.3    90  ILE90       0.0022
     22  CG2      -18.9510   -1.9920   39.0960 C.3    90  ILE90       0.0023
     23  CD1      -19.8790    0.6280   39.2650 C.3    90  ILE90       0.0001
     24  N        -22.9620   -4.1530   39.5940 N.am   91  TRP91      -0.1960
     25  CA       -24.2950   -4.6760   39.9400 C.3    91  TRP91       0.1771
     26  C        -24.3200   -5.1510   41.4230 C.2    91  TRP91       0.2620
     27  O        -24.2110   -6.3640   41.6800 O.2    91  TRP91      -0.2715
     28  CB       -24.6390   -5.8470   38.9800 C.3    91  TRP91       0.0590
     29  CG       -25.8380   -6.5890   39.4140 C.ar   91  TRP91       0.0006
     30  CD1      -25.8800   -7.6360   40.2940 C.ar   91  TRP91       0.0946
     31  CD2      -27.2120   -6.3080   39.0610 C.ar   91  TRP91       0.0152
     32  NE1      -27.1970   -8.0270   40.5110 N.ar   91  TRP91      -0.2442
     33  CE2      -28.0290   -7.2300   39.7580 C.ar   91  TRP91       0.0810
     34  CE3      -27.8300   -5.3690   38.2290 C.ar   91  TRP91       0.0012
     35  CZ2      -29.4240   -7.2340   39.6390 C.ar   91  TRP91       0.0191
     36  CZ3      -29.2040   -5.3850   38.1140 C.ar   91  TRP91       0.0001
     37  CH2      -29.9850   -6.3150   38.8010 C.ar   91  TRP91       0.0015
     38  N        -24.4270   -4.2460   42.4070 N.am   92  ASP92      -0.1958
     39  CA       -24.6590   -4.7500   43.7830 C.3    92  ASP92       0.1825
     40  C        -25.9260   -4.2520   44.5030 C.2    92  ASP92       0.2464
     41  O        -26.0540   -3.0450   44.7800 O.2    92  ASP92      -0.2730
     42  CB       -23.3910   -4.7770   44.7040 C.3    92  ASP92       0.1450
     43  CG       -22.7140   -3.3880   44.8950 C.2    92  ASP92       0.3671
     44  OD1      -22.4900   -2.6990   43.8850 O.co2  92  ASP92      -0.2456
     45  OD2      -22.3480   -2.9840   46.0290 O.co2  92  ASP92      -0.2456
     46  N        -26.8770   -5.1940   44.7990 N.am   93  PRO93      -0.2715
     47  CA       -28.1650   -4.9810   45.4940 C.3    93  PRO93       0.1536
     48  C        -28.0820   -4.0110   46.6370 C.2    93  PRO93       0.2599
     49  O        -29.1150   -3.4860   47.0470 O.2    93  PRO93      -0.2715
     50  CB       -28.4940   -6.3690   46.0420 C.3    93  PRO93       0.0310
     51  CG       -27.9150   -7.3150   45.0750 C.3    93  PRO93       0.0237
     52  CD       -26.7280   -6.6130   44.3940 C.3    93  PRO93       0.0939
     53  N        -26.8550   -3.7860   47.1400 N.am   94  HIS94      -0.1960
     54  CA       -26.5480   -2.8590   48.2630 C.3    94  HIS94       0.1787
     55  C        -26.5250   -1.3980   47.7990 C.2    94  HIS94       0.2620
     56  O        -26.8180   -0.4690   48.5740 O.2    94  HIS94      -0.2715
     57  CB       -25.1940   -3.2120   48.9200 C.3    94  HIS94       0.0785
     58  CG       -25.1250   -4.6120   49.4660 C.ar   94  HIS94       0.0821
     59  ND1      -25.2050   -5.7380   48.6660 N.ar   94  HIS94      -0.2267
     60  CD2      -24.9620   -5.0680   50.7320 C.ar   94  HIS94       0.1154
     61  CE1      -25.1240   -6.8240   49.4180 C.ar   94  HIS94       0.1986
     62  NE2      -24.9670   -6.4470   50.6740 N.ar   94  HIS94      -0.2212
     63  N        -26.1780   -1.1980   46.5310 N.am   95  PHE95      -0.1974
     64  CA       -26.2440    0.1300   45.9480 C.3    95  PHE95       0.1639
     65  C        -27.5690    0.8790   46.2710 C.2    95  PHE95       0.2290
     66  O        -28.6740    0.3200   46.1930 O.2    95  PHE95      -0.2864
     67  CB       -26.0450    0.0590   44.4360 C.3    95  PHE95       0.0560
     68  CG       -24.6270    0.3470   43.9800 C.ar   95  PHE95      -0.0200
     69  CD1      -23.5290   -0.1160   44.6880 C.ar   95  PHE95      -0.0042
     70  CD2      -24.3960    1.0490   42.8100 C.ar   95  PHE95      -0.0042
     71  CE1      -22.2450    0.1290   44.2290 C.ar   95  PHE95      -0.0003
     72  CE2      -23.1110    1.2940   42.3580 C.ar   95  PHE95      -0.0003
     73  CZ       -22.0520    0.8420   43.0550 C.ar   95  PHE95      -0.0000
     74  N        -21.2180    6.8510   37.9700 N.3   103  PHE103     -0.1241
     75  CA       -21.3380    5.5310   38.5430 C.3   103  PHE103      0.1605
     76  C        -22.6680    5.1820   37.8940 C.2   103  PHE103      0.2264
     77  O        -23.7130    5.1380   38.5620 O.2   103  PHE103     -0.2867
     78  CB       -21.5660    5.6520   40.0460 C.3   103  PHE103      0.0534
     79  CG       -20.8230    4.6360   40.8910 C.ar  103  PHE103     -0.0203
     80  CD1      -20.2680    5.0270   42.1010 C.ar  103  PHE103     -0.0042
     81  CD2      -20.7150    3.3100   40.5170 C.ar  103  PHE103     -0.0042
     82  CE1      -19.6130    4.1500   42.8960 C.ar  103  PHE103     -0.0003
     83  CE2      -20.0430    2.4260   41.3240 C.ar  103  PHE103     -0.0003
     84  CZ       -19.4940    2.8590   42.5160 C.ar  103  PHE103     -0.0000
     85  N        -17.3170    0.9490   35.4420 N.3   113  ASN113     -0.1240
     86  CA       -16.0700    1.4260   36.0560 C.3   113  ASN113      0.1653
     87  C        -14.8020    1.7420   35.2050 C.2   113  ASN113      0.2266
     88  O        -13.7660    2.1520   35.7570 O.2   113  ASN113     -0.2867
     89  CB       -15.7300    0.5100   37.2360 C.3   113  ASN113      0.1155
     90  CG       -15.9980    1.1770   38.5810 C.2   113  ASN113      0.2627
     91  OD1      -17.0090    0.8930   39.2310 O.2   113  ASN113     -0.2716
     92  ND2      -15.0890    2.0660   39.0060 N.am  113  ASN113     -0.0877
     93  N        -16.9220    6.4820   45.1840 N.3   643  SER643     -0.1202
     94  CA       -17.1680    5.9120   46.5300 C.3   643  SER643      0.2020
     95  C        -16.4450    4.5790   46.7120 C.2   643  SER643      0.2618
     96  O        -15.9820    4.2390   47.8140 O.2   643  SER643     -0.2717
     97  CB       -18.6720    5.8360   46.9720 C.3   643  SER643      0.2103
     98  OG       -19.6140    5.6030   45.9320 O.3   643  SER643     -0.2182
     99  N        -16.3140    3.8370   45.6210 N.am  644  VAL644     -0.1979
    100  CA       -15.5820    2.5840   45.6850 C.3   644  VAL644      0.1595
    101  C        -14.2660    2.9060   46.3290 C.2   644  VAL644      0.2287
    102  O        -13.8900    2.3090   47.3360 O.2   644  VAL644     -0.2864
    103  CB       -15.2800    1.9690   44.3030 C.3   644  VAL644      0.0276
    104  CG1      -15.5670    0.4780   44.3370 C.3   644  VAL644      0.0022
    105  CG2      -16.0760    2.6540   43.1920 C.3   644  VAL644      0.0022
    106  N        -13.5810    4.0880   50.2800 N.3   647  TRP647     -0.1241
    107  CA       -13.9640    2.9920   51.1450 C.3   647  TRP647      0.1605
    108  C        -12.8910    1.9250   50.9800 C.2   647  TRP647      0.2264
    109  O        -12.5770    1.2070   51.9280 O.2   647  TRP647     -0.2867
    110  CB       -15.3330    2.4530   50.7380 C.3   647  TRP647      0.0550
    111  CG       -15.8630    1.3930   51.6400 C.ar  647  TRP647      0.0003
    112  CD1      -16.6920    1.5740   52.6970 C.ar  647  TRP647      0.0946
    113  CD2      -15.6190   -0.0210   51.5560 C.ar  647  TRP647      0.0152
    114  NE1      -16.9910    0.3690   53.2890 N.ar  647  TRP647     -0.2442
    115  CE2      -16.3440   -0.6280   52.6100 C.ar  647  TRP647      0.0810
    116  CE3      -14.8610   -0.8380   50.6890 C.ar  647  TRP647      0.0012
    117  CZ2      -16.3370   -2.0130   52.8310 C.ar  647  TRP647      0.0191
    118  CZ3      -14.8470   -2.2190   50.9070 C.ar  647  TRP647      0.0001
    119  CH2      -15.5840   -2.7940   51.9760 C.ar  647  TRP647      0.0015
@<TRIPOS>BOND
     1     1     2    1
     2     2     5    1
     3     2     3    1
     4     5     6    1
     5    15    12    1
     6     3    11   am
     7     3     4    2
     8    11    12    1
     9    12    13    1
    10    87    88    2
    11    87    86    1
    12     6     7   ar
    13     6     8   ar
    14    85    86    1
    15     7     9   ar
    16    86    89    1
    17    13    14    2
    18    13    16   am
    19     8    10   ar
    20     9    10   ar
    21    16    17    1
    22    89    90    1
    23    76    75    1
    24    76    77    2
    25    74    75    1
    26    36    34   ar
    27    36    37   ar
    28    34    31   ar
    29    19    18    2
    30    17    18    1
    31    17    20    1
    32    75    78    1
    33    90    92   am
    34    90    91    2
    35    37    35   ar
    36    18    24   am
    37    28    29    1
    38    28    25    1
    39    31    29   ar
    40    31    33   ar
    41    22    20    1
    42    21    23    1
    43    21    20    1
    44    29    30   ar
    45    24    25    1
    46    35    33   ar
    47    33    32   ar
    48    25    26    1
    49    78    79    1
    50    30    32   ar
    51    81    79   ar
    52    81    83   ar
    53    79    80   ar
    54    83    84   ar
    55    26    27    2
    56    26    38   am
    57    80    82   ar
    58    72    70   ar
    59    72    73   ar
    60    38    39    1
    61    84    82   ar
    62    70    68   ar
    63    73    71   ar
    64   105   103    1
    65    39    40    1
    66    39    42    1
    67    44    43   ar
    68    68    67    1
    69    68    69   ar
    70    71    69   ar
    71   103   104    1
    72   103   100    1
    73    52    46    1
    74    52    51    1
    75    67    64    1
    76    40    41    2
    77    40    46   am
    78    42    43    1
    79    46    47    1
    80    43    45   ar
    81    51    50    1
    82    93    94    1
    83    47    50    1
    84    47    48    1
    85    99   100    1
    86    99    95   am
    87   100   101    1
    88    98    97    1
    89    64    65    1
    90    64    63    1
    91    66    65    2
    92   101   102    2
    93    94    95    1
    94    94    97    1
    95    63    55   am
    96    48    49    2
    97    48    53   am
    98    95    96    2
    99    53    54    1
   100    55    54    1
   101    55    56    2
   102    54    57    1
   103    59    61   ar
   104    59    58   ar
   105    57    58    1
   106    61    62   ar
   107    58    60   ar
   108   106   107    1
   109    62    60   ar
   110   116   118   ar
   111   116   113   ar
   112   110   107    1
   113   110   111    1
   114   118   119   ar
   115   108   107    1
   116   108   109    2
   117   113   111   ar
   118   113   115   ar
   119   111   112   ar
   120   119   117   ar
   121   115   117   ar
   122   115   114   ar
   123   112   114   ar
