@<TRIPOS>MOLECULE
tmp/2wseA09.pdb
 123 117 0 0 0
SMALL
GASTEIGER

@<TRIPOS>ATOM
      1  N         52.5400   -3.4500   30.3900 N.3     2  ALA2       -0.1231
      2  CA        52.0960   -4.8510   30.3160 C.3     2  ALA2        0.1679
      3  C         53.2660   -5.8420   30.3480 C.2     2  ALA2        0.2434
      4  O         53.1310   -6.9300   30.9180 O.2     2  ALA2       -0.2733
      5  CB        51.2370   -5.0810   29.0960 C.3     2  ALA2        0.0304
      6  N         54.4130   -5.4790   29.7280 N.am    3  PRO3       -0.2729
      7  CA        55.6540   -6.2410   29.9150 C.3     3  PRO3        0.1401
      8  C         56.4320   -5.7800   31.1420 C.2     3  PRO3        0.2269
      9  O         57.6670   -5.8320   31.1600 O.2     3  PRO3       -0.2865
     10  CB        56.4410   -5.9160   28.6610 C.3     3  PRO3        0.0296
     11  CG        56.0380   -4.5260   28.3500 C.3     3  PRO3        0.0237
     12  CD        54.5730   -4.4570   28.6820 C.3     3  PRO3        0.0939
     13  N         56.0440  -10.0920   33.9020 N.3     6  PHE6       -0.1227
     14  CA        54.9990  -11.0220   34.3540 C.3     6  PHE6        0.1736
     15  C         54.5650  -12.0190   33.2910 C.2     6  PHE6        0.2596
     16  O         54.3140  -11.6450   32.1560 O.2     6  PHE6       -0.2718
     17  CB        53.7750  -10.2690   34.8870 C.3     6  PHE6        0.0547
     18  CG        52.9900  -11.0460   35.8920 C.ar    6  PHE6       -0.0202
     19  CD1       51.7610  -11.6020   35.5640 C.ar    6  PHE6       -0.0042
     20  CD2       53.4860  -11.2290   37.1680 C.ar    6  PHE6       -0.0042
     21  CE1       51.0300  -12.3200   36.4910 C.ar    6  PHE6       -0.0003
     22  CE2       52.7650  -11.9470   38.1040 C.ar    6  PHE6       -0.0003
     23  CZ        51.5340  -12.4920   37.7660 C.ar    6  PHE6       -0.0000
     24  N         54.4730  -13.2870   33.6790 N.am    7  GLY7       -0.1957
     25  CA        54.0530  -14.3570   32.7870 C.3     7  GLY7        0.1869
     26  C         54.7700  -15.6690   33.0510 C.2     7  GLY7        0.2309
     27  O         55.9960  -15.6880   33.2230 O.2     7  GLY7       -0.2863
     28  N         50.0060  -19.9170   28.8380 N.3    11  LEU11      -0.1231
     29  CA        49.4460  -18.5670   28.8770 C.3    11  LEU11       0.1693
     30  C         50.5790  -17.5370   28.8580 C.2    11  LEU11       0.2593
     31  O         51.0090  -17.1220   27.7890 O.2    11  LEU11      -0.2718
     32  CB        48.5050  -18.3590   30.0660 C.3    11  LEU11       0.0284
     33  CG        48.5330  -19.1910   31.3470 C.3    11  LEU11       0.0019
     34  CD1       49.9130  -19.3110   32.0040 C.3    11  LEU11       0.0001
     35  CD2       47.5100  -18.6170   32.3150 C.3    11  LEU11       0.0001
     36  N         51.0610  -17.1580   30.0340 N.am   12  GLY12      -0.1942
     37  CA        52.1900  -16.2330   30.2120 C.3    12  GLY12       0.2014
     38  C         53.1930  -16.1850   29.0810 C.2    12  GLY12       0.2638
     39  O         53.0830  -15.3270   28.2090 O.2    12  GLY12      -0.2714
     40  N         54.1650  -17.0980   29.0890 N.am   13  LEU13      -0.1977
     41  CA        55.1070  -17.2190   27.9880 C.3    13  LEU13       0.1596
     42  C         54.3670  -17.7490   26.7750 C.2    13  LEU13       0.2287
     43  O         53.8470  -16.9600   26.0020 O.2    13  LEU13      -0.2864
     44  CB        56.2950  -18.1190   28.3430 C.3    13  LEU13       0.0297
     45  CG        57.4990  -18.1000   27.4010 C.3    13  LEU13       0.0022
     46  CD1       58.5080  -17.0200   27.7830 C.3    13  LEU13       0.0001
     47  CD2       58.1650  -19.4650   27.3750 C.3    13  LEU13       0.0001
     48  N         51.9840  -18.0860   24.9730 N.3    15  GLU15      -0.1231
     49  CA        51.2440  -17.1610   24.1140 C.3    15  GLU15       0.1699
     50  C         52.1400  -16.1880   23.3560 C.2    15  GLU15       0.2592
     51  O         51.7980  -15.7980   22.2530 O.2    15  GLU15      -0.2718
     52  CB        50.2150  -16.3610   24.9170 C.3    15  GLU15       0.0402
     53  CG        48.7710  -16.8320   24.7650 C.3    15  GLU15       0.1161
     54  CD        48.0270  -16.1020   23.6600 C.2    15  GLU15       0.3649
     55  OE1       47.9220  -16.6590   22.5560 O.co2  15  GLU15      -0.2457
     56  OE2       47.5480  -14.9700   23.8930 O.co2  15  GLU15      -0.2457
     57  N         53.2830  -15.8170   23.9350 N.am   16  VAL16      -0.1966
     58  CA        54.0570  -14.6500   23.4620 C.3    16  VAL16       0.1712
     59  C         55.5590  -14.7810   23.0600 C.2    16  VAL16       0.2458
     60  O         56.0290  -13.9540   22.2810 O.2    16  VAL16      -0.2730
     61  CB        53.9290  -13.4400   24.4440 C.3    16  VAL16       0.0289
     62  CG1       52.4620  -13.0380   24.6480 C.3    16  VAL16       0.0023
     63  CG2       54.6100  -13.7440   25.7630 C.3    16  VAL16       0.0023
     64  N         56.3030  -15.8030   23.5590 N.am   17  PRO17      -0.2727
     65  CA        57.7860  -15.7250   23.5450 C.3    17  PRO17       0.1402
     66  C         58.3660  -15.4390   22.1680 C.2    17  PRO17       0.2269
     67  O         59.3960  -14.7630   22.0340 O.2    17  PRO17      -0.2865
     68  CB        58.2200  -17.1080   24.0370 C.3    17  PRO17       0.0296
     69  CG        57.1080  -18.0060   23.6780 C.3    17  PRO17       0.0237
     70  CD        55.8440  -17.1910   23.7520 C.3    17  PRO17       0.0939
     71  N         52.9850  -14.6490   19.7780 N.3    20  LEU20      -0.1231
     72  CA        52.2390  -13.3930   19.6030 C.3    20  LEU20       0.1693
     73  C         53.0490  -12.2500   19.0000 C.2    20  LEU20       0.2591
     74  O         52.5100  -11.4740   18.2260 O.2    20  LEU20      -0.2718
     75  CB        51.5480  -12.9410   20.8840 C.3    20  LEU20       0.0284
     76  CG        50.0570  -13.3070   20.9880 C.3    20  LEU20       0.0019
     77  CD1       49.5170  -12.9990   22.3620 C.3    20  LEU20       0.0001
     78  CD2       49.2190  -12.5970   19.9330 C.3    20  LEU20       0.0001
     79  N         54.3280  -12.1530   19.3460 N.am   21  GLU21      -0.1979
     80  CA        55.2250  -11.1780   18.7230 C.3    21  GLU21       0.1602
     81  C         55.6700  -11.6160   17.3360 C.2    21  GLU21       0.2287
     82  O         56.0360  -10.7800   16.5190 O.2    21  GLU21      -0.2864
     83  CB        56.4400  -10.8810   19.6030 C.3    21  GLU21       0.0415
     84  CG        56.1750   -9.8940   20.7210 C.3    21  GLU21       0.1163
     85  CD        55.3720  -10.5000   21.8440 C.2    21  GLU21       0.3649
     86  OE1       55.9760  -10.7930   22.8900 O.co2  21  GLU21      -0.2457
     87  OE2       54.1450  -10.6940   21.6790 O.co2  21  GLU21      -0.2457
     88  N         53.0670  -10.4870   15.9540 N.3    24  LYS24      -0.1245
     89  CA        53.3170   -9.0390   15.9930 C.3    24  LYS24       0.1561
     90  C         54.4210   -8.6560   15.0210 C.2    24  LYS24       0.2260
     91  O         54.7600   -7.4780   14.9010 O.2    24  LYS24      -0.2867
     92  CB        53.6710   -8.5550   17.3910 C.3    24  LYS24       0.0271
     93  CG        52.4770   -8.3300   18.3050 C.3    24  LYS24       0.0035
     94  CD        52.9350   -8.2210   19.7490 C.3    24  LYS24       0.0206
     95  CE        51.7600   -8.1980   20.7170 C.3    24  LYS24       0.1093
     96  NZ        52.2140   -8.0810   22.1250 N.3    24  LYS24      -0.1314
     97  N         63.1670   -8.2830   17.2040 N.3   126  ILE126     -0.1245
     98  CA        62.3890   -7.7680   18.3180 C.3   126  ILE126      0.1561
     99  C         62.8430   -6.3590   18.6940 C.2   126  ILE126      0.2260
    100  O         62.0140   -5.4840   18.9180 O.2   126  ILE126     -0.2867
    101  CB        62.4700   -8.7020   19.5350 C.3   126  ILE126      0.0252
    102  CG1       62.3540  -10.1700   19.1130 C.3   126  ILE126      0.0019
    103  CG2       61.3670   -8.3670   20.5170 C.3   126  ILE126      0.0019
    104  CD1       62.7730  -11.1610   20.1680 C.3   126  ILE126      0.0001
    105  N         59.3080   -4.0250   18.6990 N.3   130  ARG130     -0.1245
    106  CA        58.7280   -3.1120   19.6810 C.3   130  ARG130      0.1563
    107  C         59.0900   -1.6650   19.3620 C.2   130  ARG130      0.2260
    108  O         58.3800   -0.7400   19.7720 O.2   130  ARG130     -0.2867
    109  CB        59.1600   -3.4730   21.1030 C.3   130  ARG130      0.0307
    110  CG        60.3630   -2.6790   21.6460 C.3   130  ARG130      0.0489
    111  CD        60.2720   -2.4800   23.1510 C.3   130  ARG130      0.2205
    112  NE        61.0540   -1.3340   23.6270 N.pl3 130  ARG130     -0.0865
    113  CZ        60.5930   -0.0850   23.7280 C.cat 130  ARG130      0.5346
    114  NH1       59.3460    0.2080   23.3780 N.pl3 130  ARG130      0.1354
    115  NH2       61.3810    0.8810   24.1780 N.pl3 130  ARG130      0.1354
    116  N         56.3210   -1.0740   16.9260 N.3   133  LEU133     -0.1245
    117  CA        55.0610   -1.0670   17.6630 C.3   133  LEU133      0.1561
    118  C         54.9230    0.2370   18.4350 C.2   133  LEU133      0.2260
    119  O         53.8960    0.9160   18.3370 O.2   133  LEU133     -0.2867
    120  CB        54.9630   -2.2640   18.6080 C.3   133  LEU133      0.0270
    121  CG        55.1330   -3.7010   18.1030 C.3   133  LEU133      0.0019
    122  CD1       55.0860   -4.6780   19.2590 C.3   133  LEU133      0.0001
    123  CD2       54.0940   -4.0760   17.0560 C.3   133  LEU133      0.0001
@<TRIPOS>BOND
     1    91    90    2
     2    90    89    1
     3    88    89    1
     4    89    92    1
     5    82    81    2
     6   116   117    1
     7   123   121    1
     8    97    98    1
     9    81    80    1
    10    92    93    1
    11   117   118    1
    12   117   120    1
    13   121   120    1
    14   121   122    1
    15    74    73    2
    16    93    94    1
    17    98    99    1
    18    98   101    1
    19   119   118    2
    20    99   100    2
    21   105   106    1
    22    80    79    1
    23    80    83    1
    24    73    79   am
    25    73    72    1
    26   102   101    1
    27   102   104    1
    28   107   106    1
    29   107   108    2
    30   101   103    1
    31    83    84    1
    32    72    71    1
    33    72    75    1
    34   106   109    1
    35    94    95    1
    36    78    76    1
    37    95    96    1
    38    84    85    1
    39    75    76    1
    40    76    77    1
    41   109   110    1
    42   110   111    1
    43    87    85   ar
    44    85    86   ar
    45    67    66    2
    46    66    65    1
    47    51    50    2
    48    60    59    2
    49    55    54   ar
    50    59    58    1
    51    59    64   am
    52   111   112    1
    53    50    57   am
    54    50    49    1
    55   114   113    1
    56    58    57    1
    57    58    61    1
    58    65    64    1
    59    65    68    1
    60    64    70    1
    61   112   113    2
    62    54    56   ar
    63    54    53    1
    64    69    70    1
    65    69    68    1
    66   113   115    1
    67    49    52    1
    68    49    48    1
    69    61    62    1
    70    61    63    1
    71    53    52    1
    72    43    42    2
    73    42    41    1
    74    47    45    1
    75    45    46    1
    76    45    44    1
    77    31    30    2
    78    41    44    1
    79    41    40    1
    80    39    38    2
    81    11    10    1
    82    11    12    1
    83    10     7    1
    84    12     6    1
    85    28    29    1
    86    30    29    1
    87    30    36   am
    88    29    32    1
    89    38    40   am
    90    38    37    1
    91     5     2    1
    92     6     7    1
    93     6     3   am
    94     7     8    1
    95    36    37    1
    96    32    33    1
    97     2     3    1
    98     2     1    1
    99     3     4    2
   100     8     9    2
   101    33    34    1
   102    33    35    1
   103    16    15    2
   104    25    26    1
   105    25    24    1
   106    26    27    2
   107    15    24   am
   108    15    14    1
   109    13    14    1
   110    14    17    1
   111    17    18    1
   112    19    18   ar
   113    19    21   ar
   114    18    20   ar
   115    21    23   ar
   116    20    22   ar
   117    23    22   ar
