@<TRIPOS>MOLECULE
tmp/2wsfB04.pdb
 80 76 0 0 0
SMALL
GASTEIGER

@<TRIPOS>ATOM
      1  N         -6.1760   25.9460   31.8150 N.3    18  ARG18      -0.1231
      2  CA        -4.9350   26.7040   31.8750 C.3    18  ARG18       0.1694
      3  C         -4.6890   27.4490   30.5530 C.2    18  ARG18       0.2592
      4  O         -3.8820   28.3820   30.5010 O.2    18  ARG18      -0.2718
      5  CB        -3.7680   25.7540   32.1610 C.3    18  ARG18       0.0321
      6  CG        -2.4150   26.4550   32.2730 C.3    18  ARG18       0.0489
      7  CD        -1.3650   25.7680   31.4120 C.3    18  ARG18       0.2205
      8  NE        -0.3350   25.1170   32.2240 N.pl3  18  ARG18      -0.0865
      9  CZ         0.7380   24.4990   31.7330 C.cat  18  ARG18       0.5346
     10  NH1        0.9360   24.4430   30.4200 N.pl3  18  ARG18       0.1354
     11  NH2        1.6230   23.9450   32.5600 N.pl3  18  ARG18       0.1354
     12  N         -5.3670   27.0160   29.4840 N.am   19  TRP19      -0.1976
     13  CA        -5.3890   27.7510   28.2120 C.3    19  TRP19       0.1640
     14  C         -6.3600   28.9160   28.3300 C.2    19  TRP19       0.2290
     15  O         -5.9530   30.0810   28.2700 O.2    19  TRP19      -0.2864
     16  CB        -5.9010   26.8830   27.0680 C.3    19  TRP19       0.0576
     17  CG        -4.9280   26.1480   26.2180 C.ar   19  TRP19       0.0006
     18  CD1       -4.4920   24.8760   26.3970 C.ar   19  TRP19       0.0946
     19  CD2       -4.3470   26.6000   24.9890 C.ar   19  TRP19       0.0152
     20  NE1       -3.6490   24.5080   25.3800 N.ar   19  TRP19      -0.2442
     21  CE2       -3.5410   25.5520   24.5000 C.ar   19  TRP19       0.0810
     22  CE3       -4.4130   27.7980   24.2620 C.ar   19  TRP19       0.0012
     23  CZ2       -2.8150   25.6590   23.3160 C.ar   19  TRP19       0.0191
     24  CZ3       -3.6730   27.9040   23.0880 C.ar   19  TRP19       0.0001
     25  CH2       -2.8830   26.8380   22.6310 C.ar   19  TRP19       0.0015
     26  N         -5.4840   31.3890   32.4470 N.3    22  LEU22      -0.1231
     27  CA        -4.2350   32.1440   32.4060 C.3    22  LEU22       0.1693
     28  C         -4.4830   33.2610   31.3960 C.2    22  LEU22       0.2592
     29  O         -4.3190   34.4470   31.7020 O.2    22  LEU22      -0.2718
     30  CB        -3.1090   31.2210   31.9160 C.3    22  LEU22       0.0284
     31  CG        -1.8670   31.5910   31.0750 C.3    22  LEU22       0.0019
     32  CD1       -1.0520   30.3150   30.8610 C.3    22  LEU22       0.0001
     33  CD2       -2.1920   32.1950   29.7200 C.3    22  LEU22       0.0001
     34  N         -4.9310   32.8420   30.2030 N.am   23  GLY23      -0.1957
     35  CA        -5.2220   33.7130   29.0600 C.3    23  GLY23       0.1869
     36  C         -6.0720   34.9250   29.3490 C.2    23  GLY23       0.2309
     37  O         -5.7510   36.0240   28.8900 O.2    23  GLY23      -0.2863
     38  N         -6.0690   36.5150   31.7980 N.3    25  ALA25      -0.1231
     39  CA        -5.1240   37.4610   32.3900 C.3    25  ALA25       0.1694
     40  C         -4.9340   38.6270   31.4340 C.2    25  ALA25       0.2592
     41  O         -5.2160   39.7760   31.7950 O.2    25  ALA25      -0.2718
     42  CB        -3.7870   36.7970   32.6980 C.3    25  ALA25       0.0304
     43  N         -4.4920   38.3130   30.2120 N.am   26  GLY26      -0.1957
     44  CA        -4.3110   39.2930   29.1370 C.3    26  GLY26       0.1869
     45  C         -5.4010   40.3480   29.0160 C.2    26  GLY26       0.2309
     46  O         -5.1250   41.4900   28.6330 O.2    26  GLY26      -0.2863
     47  N          1.5200   28.4980   16.5890 N.3    70  ALA70      -0.1231
     48  CA         1.6660   28.1310   18.0180 C.3    70  ALA70       0.1694
     49  C          0.5380   27.3220   18.7110 C.2    70  ALA70       0.2591
     50  O          0.8320   26.3950   19.4730 O.2    70  ALA70      -0.2718
     51  CB         2.0340   29.3610   18.8520 C.3    70  ALA70       0.0304
     52  N         -0.7300   27.6520   18.4670 N.am   71  GLU71      -0.1979
     53  CA        -1.8060   26.8770   19.0990 C.3    71  GLU71       0.1602
     54  C         -1.7770   25.4090   18.6500 C.2    71  GLU71       0.2287
     55  O         -2.0820   24.5170   19.4390 O.2    71  GLU71      -0.2864
     56  CB        -3.1970   27.5180   18.9130 C.3    71  GLU71       0.0415
     57  CG        -3.4410   28.7840   19.7710 C.3    71  GLU71       0.1163
     58  CD        -4.8730   28.9100   20.3130 C.2    71  GLU71       0.3649
     59  OE1       -5.5430   27.8720   20.5080 O.co2  71  GLU71      -0.2457
     60  OE2       -5.3220   30.0470   20.5740 O.co2  71  GLU71      -0.2457
     61  N          1.0620   23.5600   20.1750 N.3    74  ARG74      -0.1245
     62  CA         0.7040   23.4420   21.5870 C.3    74  ARG74       0.1563
     63  C          0.2250   22.0570   22.0570 C.2    74  ARG74       0.2260
     64  O          0.9490   21.3980   22.8000 O.2    74  ARG74      -0.2867
     65  CB        -0.2460   24.5620   22.0040 C.3    74  ARG74       0.0307
     66  CG         0.0550   25.0730   23.3910 C.3    74  ARG74       0.0489
     67  CD        -0.8100   24.3680   24.4080 C.3    74  ARG74       0.2205
     68  NE        -0.0710   23.9120   25.5770 N.pl3  74  ARG74      -0.0865
     69  CZ         0.4850   24.7060   26.4930 C.cat  74  ARG74       0.5346
     70  NH1        0.4190   26.0340   26.3980 N.pl3  74  ARG74       0.1354
     71  NH2        1.1360   24.1590   27.5100 N.pl3  74  ARG74       0.1354
     72  N         -4.0200   30.0720   39.8450 N.3   130  LYS130     -0.1245
     73  CA        -4.2500   29.6710   38.4460 C.3   130  LYS130      0.1561
     74  C         -5.5460   28.9010   38.1510 C.2   130  LYS130      0.2260
     75  O         -6.3910   29.4700   37.4660 O.2   130  LYS130     -0.2867
     76  CB        -2.9830   29.1950   37.6940 C.3   130  LYS130      0.0271
     77  CG        -2.3280   30.3480   36.8820 C.3   130  LYS130      0.0035
     78  CD        -0.9070   30.0490   36.3340 C.3   130  LYS130      0.0206
     79  CE        -0.2730   31.2870   35.6330 C.3   130  LYS130      0.1093
     80  NZ         1.2280   31.1630   35.3530 N.3   130  LYS130     -0.1314
@<TRIPOS>BOND
     1    47    48    1
     2    48    49    1
     3    48    51    1
     4    52    49   am
     5    52    53    1
     6    54    53    1
     7    54    55    2
     8    49    50    2
     9    56    53    1
    10    56    57    1
    11    57    58    1
    12    61    62    1
    13    58    59   ar
    14    58    60   ar
    15    62    65    1
    16    62    63    1
    17    65    66    1
    18    63    64    2
    19    25    24   ar
    20    25    23   ar
    21    24    22   ar
    22    23    21   ar
    23    66    67    1
    24    22    19   ar
    25    67    68    1
    26    21    19   ar
    27    21    20   ar
    28    19    17   ar
    29    20    18   ar
    30    68    69    2
    31    17    18   ar
    32    17    16    1
    33    70    69    1
    34    69    71    1
    35    16    13    1
    36    13    14    1
    37    13    12    1
    38    15    14    2
    39    46    45    2
    40    37    36    2
    41    45    44    1
    42    35    36    1
    43    35    34    1
    44    44    43    1
    45    12     3   am
    46    33    31    1
    47    34    28   am
    48    43    40   am
    49    10     9    1
    50     4     3    2
    51     3     2    1
    52    32    31    1
    53    31    30    1
    54    28    29    2
    55    28    27    1
    56     7     8    1
    57     7     6    1
    58    40    41    2
    59    40    39    1
    60     9     8    2
    61     9    11    1
    62    38    39    1
    63     1     2    1
    64     2     5    1
    65    30    27    1
    66     5     6    1
    67    39    42    1
    68    27    26    1
    69    80    79    1
    70    79    78    1
    71    78    77    1
    72    77    76    1
    73    75    74    2
    74    76    73    1
    75    74    73    1
    76    73    72    1
