@<TRIPOS>MOLECULE
tmp/2wsfF11.pdb
 161 157 0 0 0
SMALL
GASTEIGER

@<TRIPOS>ATOM
      1  N        -63.7380   -1.1790  -41.0060 N.3   122  TRP122     -0.1241
      2  CA       -62.9730   -2.1210  -41.8210 C.3   122  TRP122      0.1605
      3  C        -63.8340   -3.1590  -42.5490 C.2   122  TRP122      0.2264
      4  O        -63.4510   -3.6020  -43.6350 O.2   122  TRP122     -0.2867
      5  CB       -61.8020   -2.7400  -41.0500 C.3   122  TRP122      0.0550
      6  CG       -62.1590   -3.8860  -40.1820 C.ar  122  TRP122      0.0003
      7  CD1      -63.1790   -3.9490  -39.2900 C.ar  122  TRP122      0.0946
      8  CD2      -61.4760   -5.1380  -40.0980 C.ar  122  TRP122      0.0152
      9  NE1      -63.1980   -5.1700  -38.6640 N.ar  122  TRP122     -0.2442
     10  CE2      -62.1580   -5.9200  -39.1400 C.ar  122  TRP122      0.0810
     11  CE3      -60.3640   -5.6800  -40.7440 C.ar  122  TRP122      0.0012
     12  CZ2      -61.7640   -7.2070  -38.8100 C.ar  122  TRP122      0.0191
     13  CZ3      -59.9810   -6.9650  -40.4190 C.ar  122  TRP122      0.0001
     14  CH2      -60.6740   -7.7110  -39.4560 C.ar  122  TRP122      0.0015
     15  N        -63.9500   -0.5240  -44.7440 N.3   125  THR125     -0.1203
     16  CA       -62.7060   -0.0460  -45.3620 C.3   125  THR125      0.1994
     17  C        -62.0980   -1.0090  -46.4070 C.2   125  THR125      0.2617
     18  O        -61.4480   -0.5660  -47.3580 O.2   125  THR125     -0.2717
     19  CB       -61.6980    0.4440  -44.2990 C.3   125  THR125      0.1784
     20  OG1      -62.3340    1.4400  -43.4800 O.3   125  THR125     -0.2211
     21  CG2      -60.4400    1.0550  -44.9460 C.3   125  THR125      0.0376
     22  N        -62.3120   -2.3110  -46.2400 N.am  126  ILE126     -0.1979
     23  CA       -62.3570   -3.1720  -47.4190 C.3   126  ILE126      0.1595
     24  C        -63.8280   -3.1280  -47.8820 C.2   126  ILE126      0.2287
     25  O        -64.7100   -3.7880  -47.3070 O.2   126  ILE126     -0.2864
     26  CB       -61.7400   -4.6150  -47.2080 C.3   126  ILE126      0.0276
     27  CG1      -62.6430   -5.7320  -47.7570 C.3   126  ILE126      0.0022
     28  CG2      -61.4460   -4.8950  -45.7310 C.3   126  ILE126      0.0022
     29  CD1      -62.8590   -5.7450  -49.2510 C.3   126  ILE126      0.0001
     30  N        -48.2730  -20.5910  -44.3460 N.3   181  LEU181     -0.1231
     31  CA       -49.1410  -19.7170  -43.5380 C.3   181  LEU181      0.1693
     32  C        -48.9460  -18.2510  -43.9120 C.2   181  LEU181      0.2592
     33  O        -49.3450  -17.8390  -45.0040 O.2   181  LEU181     -0.2718
     34  CB       -48.9100  -19.9660  -42.0320 C.3   181  LEU181      0.0284
     35  CG       -49.6610  -19.2170  -40.9170 C.3   181  LEU181      0.0019
     36  CD1      -51.1730  -19.2280  -41.0850 C.3   181  LEU181      0.0001
     37  CD2      -49.2840  -19.7820  -39.5510 C.3   181  LEU181      0.0001
     38  N        -48.3250  -17.4800  -43.0160 N.am  182  PHE182     -0.1976
     39  CA       -48.0470  -16.0490  -43.2120 C.3   182  PHE182      0.1639
     40  C        -47.9670  -15.5880  -44.6820 C.2   182  PHE182      0.2290
     41  O        -48.7450  -14.7360  -45.1130 O.2   182  PHE182     -0.2864
     42  CB       -46.7130  -15.6820  -42.5630 C.3   182  PHE182      0.0560
     43  CG       -46.7450  -15.5620  -41.0670 C.ar  182  PHE182     -0.0200
     44  CD1      -47.4600  -14.5470  -40.4460 C.ar  182  PHE182     -0.0042
     45  CD2      -45.9850  -16.4230  -40.2770 C.ar  182  PHE182     -0.0042
     46  CE1      -47.4590  -14.4180  -39.0520 C.ar  182  PHE182     -0.0003
     47  CE2      -45.9780  -16.3010  -38.8820 C.ar  182  PHE182     -0.0003
     48  CZ       -46.7210  -15.2980  -38.2690 C.ar  182  PHE182     -0.0000
     49  N        -50.7580  -16.2880  -46.6700 N.3   185  SER185     -0.1202
     50  CA       -51.8410  -15.7000  -45.8720 C.3   185  SER185      0.2020
     51  C        -51.8830  -14.2020  -46.0950 C.2   185  SER185      0.2619
     52  O        -52.9640  -13.6150  -46.2220 O.2   185  SER185     -0.2717
     53  CB       -51.6640  -16.0050  -44.3920 C.3   185  SER185      0.2103
     54  OG       -52.8690  -15.7610  -43.6860 O.3   185  SER185     -0.2182
     55  N        -50.6980  -13.5870  -46.1230 N.am  186  SER186     -0.1951
     56  CA       -50.5040  -12.3720  -46.9120 C.3   186  SER186      0.1924
     57  C        -50.7790  -12.8530  -48.3430 C.2   186  SER186      0.2314
     58  O        -51.7600  -13.5730  -48.5370 O.2   186  SER186     -0.2863
     59  CB       -49.1050  -11.7630  -46.7310 C.3   186  SER186      0.2116
     60  OG       -49.0950  -10.8300  -45.6600 O.3   186  SER186     -0.2180
     61  N        -54.3040  -12.2340  -49.1740 N.3   189  TRP189     -0.1241
     62  CA       -54.8620  -10.9530  -48.7350 C.3   189  TRP189      0.1605
     63  C        -54.5240   -9.8930  -49.7680 C.2   189  TRP189      0.2264
     64  O        -55.4250   -9.2210  -50.2680 O.2   189  TRP189     -0.2867
     65  CB       -54.3740  -10.5480  -47.3350 C.3   189  TRP189      0.0550
     66  CG       -55.0760   -9.3300  -46.7780 C.ar  189  TRP189      0.0003
     67  CD1      -54.4950   -8.1500  -46.4150 C.ar  189  TRP189      0.0946
     68  CD2      -56.4900   -9.1760  -46.5230 C.ar  189  TRP189      0.0152
     69  NE1      -55.4490   -7.2740  -45.9450 N.ar  189  TRP189     -0.2442
     70  CE2      -56.6820   -7.8730  -46.0070 C.ar  189  TRP189      0.0810
     71  CE3      -57.6080  -10.0090  -46.6750 C.ar  189  TRP189      0.0012
     72  CZ2      -57.9500   -7.3850  -45.6430 C.ar  189  TRP189      0.0191
     73  CZ3      -58.8640   -9.5220  -46.3100 C.ar  189  TRP189      0.0001
     74  CH2      -59.0210   -8.2230  -45.7990 C.ar  189  TRP189      0.0015
     75  N        -57.7130   -7.4260  -51.2820 N.3   193  LEU193     -0.1245
     76  CA       -57.7470   -5.9740  -51.2530 C.3   193  LEU193      0.1561
     77  C        -57.8100   -5.4250  -52.6730 C.2   193  LEU193      0.2260
     78  O        -58.5570   -4.4870  -52.9600 O.2   193  LEU193     -0.2867
     79  CB       -56.5050   -5.4290  -50.5580 C.3   193  LEU193      0.0270
     80  CG       -56.5490   -5.1660  -49.0560 C.3   193  LEU193      0.0019
     81  CD1      -55.1090   -5.0790  -48.5790 C.3   193  LEU193      0.0001
     82  CD2      -57.3040   -3.8790  -48.7300 C.3   193  LEU193      0.0001
     83  N        -53.9600    5.3440  -44.0150 N.3   267  LEU267     -0.1245
     84  CA       -52.9920    4.9450  -45.0290 C.3   267  LEU267      0.1561
     85  C        -53.6980    4.8700  -46.3690 C.2   267  LEU267      0.2260
     86  O        -54.8810    4.5150  -46.4320 O.2   267  LEU267     -0.2867
     87  CB       -52.3640    3.5890  -44.6640 C.3   267  LEU267      0.0270
     88  CG       -51.0310    3.5030  -43.8900 C.3   267  LEU267      0.0019
     89  CD1      -50.8700    4.5850  -42.8290 C.3   267  LEU267      0.0001
     90  CD2      -50.9010    2.1390  -43.2360 C.3   267  LEU267      0.0001
     91  N        -51.1350   -0.3410  -48.4870 N.3   272  VAL272     -0.1245
     92  CA       -51.3360   -1.4850  -47.5910 C.3   272  VAL272      0.1561
     93  C        -51.4140   -2.8290  -48.3540 C.2   272  VAL272      0.2260
     94  O        -51.8250   -3.8330  -47.7760 O.2   272  VAL272     -0.2867
     95  CB       -52.5910   -1.3270  -46.6450 C.3   272  VAL272      0.0252
     96  CG1      -52.6150    0.0310  -45.9240 C.3   272  VAL272      0.0019
     97  CG2      -53.8970   -1.5620  -47.3910 C.3   272  VAL272      0.0019
     98  N        -47.2880   -3.5570  -50.1760 N.3   275  HIS275     -0.1226
     99  CA       -46.6960   -4.0270  -48.9140 C.3   275  HIS275      0.1752
    100  C        -47.0520   -5.4740  -48.6270 C.2   275  HIS275      0.2596
    101  O        -46.1600   -6.3190  -48.4980 O.2   275  HIS275     -0.2718
    102  CB       -47.1520   -3.1950  -47.7160 C.3   275  HIS275      0.0759
    103  CG       -46.8740   -3.8540  -46.3940 C.ar  275  HIS275      0.0818
    104  ND1      -47.7840   -4.6780  -45.7620 N.ar  275  HIS275     -0.2268
    105  CD2      -45.7700   -3.8450  -45.6090 C.ar  275  HIS275      0.1154
    106  CE1      -47.2590   -5.1340  -44.6370 C.ar  275  HIS275      0.1986
    107  NE2      -46.0380   -4.6400  -44.5180 N.ar  275  HIS275     -0.2212
    108  N        -48.3590   -5.7350  -48.5050 N.am  276  HIS276     -0.1975
    109  CA       -48.8820   -7.0700  -48.2300 C.3   276  HIS276      0.1656
    110  C        -48.3880   -8.0580  -49.2600 C.2   276  HIS276      0.2291
    111  O        -48.0440   -9.2030  -48.9290 O.2   276  HIS276     -0.2864
    112  CB       -50.4020   -7.0590  -48.1980 C.3   276  HIS276      0.0771
    113  CG       -50.9580   -6.9510  -46.8150 C.ar  276  HIS276      0.0820
    114  ND1      -50.7640   -7.9280  -45.8650 N.ar  276  HIS276     -0.2267
    115  CD2      -51.6820   -5.9770  -46.2090 C.ar  276  HIS276      0.1154
    116  CE1      -51.3510   -7.5660  -44.7360 C.ar  276  HIS276      0.1986
    117  NE2      -51.9160   -6.3870  -44.9190 N.ar  276  HIS276     -0.2212
    118  N        -44.0190   -7.9180  -48.8050 N.3   279  ILE279     -0.1245
    119  CA       -43.4750   -8.8160  -47.7790 C.3   279  ILE279      0.1561
    120  C        -43.6760  -10.2820  -48.1480 C.2   279  ILE279      0.2260
    121  O        -42.8160  -11.1240  -47.8360 O.2   279  ILE279     -0.2867
    122  CB       -43.9650   -8.5290  -46.3160 C.3   279  ILE279      0.0252
    123  CG1      -45.4370   -8.9360  -46.1140 C.3   279  ILE279      0.0019
    124  CG2      -43.7220   -7.0650  -45.9400 C.3   279  ILE279      0.0019
    125  CD1      -45.7060   -9.6590  -44.7930 C.3   279  ILE279      0.0001
    126  N        -41.0750  -13.8440  -46.8440 N.3   283  PHE283     -0.1241
    127  CA       -41.5020  -15.0000  -46.0310 C.3   283  PHE283      0.1605
    128  C        -41.5300  -16.3090  -46.8360 C.2   283  PHE283      0.2264
    129  O        -41.1220  -17.3590  -46.3360 O.2   283  PHE283     -0.2867
    130  CB       -42.8880  -14.7460  -45.4270 C.3   283  PHE283      0.0534
    131  CG       -42.8650  -14.1530  -44.0400 C.ar  283  PHE283     -0.0203
    132  CD1      -41.6920  -13.6660  -43.4770 C.ar  283  PHE283     -0.0042
    133  CD2      -44.0400  -14.0520  -43.3090 C.ar  283  PHE283     -0.0042
    134  CE1      -41.6950  -13.1090  -42.1900 C.ar  283  PHE283     -0.0003
    135  CE2      -44.0490  -13.4980  -42.0280 C.ar  283  PHE283     -0.0003
    136  CZ       -42.8770  -13.0280  -41.4720 C.ar  283  PHE283     -0.0000
    137  N        -51.1100    1.5600  -34.6500 N.3   351  MET351     -0.1245
    138  CA       -52.5070    1.6770  -35.0520 C.3   351  MET351      0.1570
    139  C        -53.0630    3.0780  -34.8510 C.2   351  MET351      0.2261
    140  O        -54.1620    3.3820  -35.3240 O.2   351  MET351     -0.2867
    141  CB       -53.3730    0.6750  -34.3080 C.3   351  MET351      0.0387
    142  CG       -53.5000   -0.6260  -35.0270 C.3   351  MET351      0.0595
    143  SD       -55.2070   -1.1350  -35.0040 S.3   351  MET351     -0.1393
    144  CE       -56.0020    0.3960  -35.5590 C.3   351  MET351      0.0692
    145  N        -55.2660    2.7250  -40.4230 N.3   356  ALA356     -0.1231
    146  CA       -55.4780    2.3910  -41.8150 C.3   356  ALA356      0.1694
    147  C        -56.9620    2.3290  -42.1710 C.2   356  ALA356      0.2592
    148  O        -57.3690    1.5070  -42.9990 O.2   356  ALA356     -0.2718
    149  CB       -54.7870    1.0740  -42.1340 C.3   356  ALA356      0.0304
    150  N        -57.7770    3.1980  -41.5710 N.am  357  TYR357     -0.1976
    151  CA       -59.2240    3.1060  -41.8120 C.3   357  TYR357      0.1639
    152  C        -60.0220    4.3630  -42.2010 C.2   357  TYR357      0.2290
    153  O        -59.7530    5.4810  -41.7500 O.2   357  TYR357     -0.2864
    154  CB       -59.9170    2.3310  -40.6850 C.3   357  TYR357      0.0560
    155  CG       -59.4630    0.8880  -40.5930 C.ar  357  TYR357     -0.0198
    156  CD1      -59.2500    0.1280  -41.7480 C.ar  357  TYR357     -0.0009
    157  CD2      -59.2600    0.2800  -39.3490 C.ar  357  TYR357     -0.0009
    158  CE1      -58.8260   -1.1910  -41.6760 C.ar  357  TYR357      0.0417
    159  CE2      -58.8430   -1.0520  -39.2600 C.ar  357  TYR357      0.0417
    160  CZ       -58.6270   -1.7820  -40.4300 C.ar  357  TYR357      0.1957
    161  OH       -58.2190   -3.0970  -40.3540 O.3   357  TYR357     -0.2866
@<TRIPOS>BOND
     1    78    77    2
     2    77    76    1
     3    75    76    1
     4    76    79    1
     5    79    80    1
     6    64    63    2
     7    98    99    1
     8    63    62    1
     9   110   111    2
    10   110   109    1
    11    29    27    1
    12    61    62    1
    13    80    82    1
    14    80    81    1
    15    99   100    1
    16    99   102    1
    17   118   119    1
    18    62    65    1
    19   100   108   am
    20   100   101    2
    21    58    57    2
    22   108   109    1
    23    91    92    1
    24    93    94    2
    25    93    92    1
    26    57    56    1
    27   109   112    1
    28   112   113    1
    29   120   121    2
    30   120   119    1
    31    24    23    1
    32    24    25    2
    33   119   122    1
    34    27    26    1
    35   102   103    1
    36    92    95    1
    37    23    26    1
    38    23    22    1
    39    97    95    1
    40    18    17    2
    41    65    66    1
    42    26    28    1
    43    56    59    1
    44    56    55    1
    45   126   127    1
    46   128   129    2
    47   128   127    1
    48   113   115   ar
    49   113   114   ar
    50    66    68   ar
    51    66    67   ar
    52    59    60    1
    53    71    68   ar
    54    71    73   ar
    55    49    50    1
    56    95    96    1
    57    68    70   ar
    58    86    85    2
    59    67    69   ar
    60    17    22   am
    61    17    16    1
    62   103   104   ar
    63   103   105   ar
    64    85    84    1
    65   122   123    1
    66   122   124    1
    67    73    74   ar
    68    52    51    2
    69   115   117   ar
    70    55    51   am
    71   123   125    1
    72    51    50    1
    73   127   130    1
    74    70    69   ar
    75    70    72   ar
    76    50    53    1
    77   114   116   ar
    78    74    72   ar
    79   104   106   ar
    80   105   107   ar
    81   130   131    1
    82    16    15    1
    83    16    19    1
    84    41    40    2
    85    84    87    1
    86    84    83    1
    87    33    32    2
    88    21    19    1
    89   117   116   ar
    90    40    39    1
    91    87    88    1
    92   106   107   ar
    93    53    54    1
    94    30    31    1
    95    19    20    1
    96   131   132   ar
    97   131   133   ar
    98    32    31    1
    99    32    38   am
   100    88    90    1
   101    88    89    1
   102     4     3    2
   103    31    34    1
   104   132   134   ar
   105   133   135   ar
   106    39    38    1
   107    39    42    1
   108   148   147    2
   109    42    43    1
   110     3     2    1
   111   152   151    1
   112   152   153    2
   113   134   136   ar
   114   147   146    1
   115   147   150   am
   116   149   146    1
   117    34    35    1
   118   135   136   ar
   119     2     5    1
   120     2     1    1
   121   146   145    1
   122   151   150    1
   123   151   154    1
   124   156   158   ar
   125   156   155   ar
   126   158   160   ar
   127    36    35    1
   128    43    44   ar
   129    43    45   ar
   130     5     6    1
   131    35    37    1
   132    11    13   ar
   133    11     8   ar
   134   154   155    1
   135   155   157   ar
   136    44    46   ar
   137   160   161    1
   138   160   159   ar
   139    13    14   ar
   140    45    47   ar
   141     6     8   ar
   142     6     7   ar
   143     8    10   ar
   144    14    12   ar
   145   157   159   ar
   146     7     9   ar
   147    10    12   ar
   148    10     9   ar
   149    46    48   ar
   150    47    48   ar
   151   144   143    1
   152   140   139    2
   153   138   139    1
   154   138   137    1
   155   138   141    1
   156   142   143    1
   157   142   141    1
