@<TRIPOS>MOLECULE
tmp/2wsfE36.pdb
 152 148 0 0 0
SMALL
GASTEIGER

@<TRIPOS>ATOM
      1  N        -75.9950   -4.3940    6.0640 N.3   426  GLY426     -0.1225
      2  CA       -75.2190   -4.5610    4.8360 C.3   426  GLY426      0.1811
      3  C        -76.1370   -4.7760    3.6510 C.2   426  GLY426      0.2280
      4  O        -76.1000   -4.0060    2.6920 O.2   426  GLY426     -0.2866
      5  N        -76.4520   -1.3410    2.9630 N.3   430  PHE430     -0.1241
      6  CA       -75.6760   -0.7300    1.8600 C.3   430  PHE430      0.1605
      7  C        -76.2190   -0.9650    0.4370 C.2   430  PHE430      0.2264
      8  O        -76.3680   -0.0130   -0.3380 O.2   430  PHE430     -0.2867
      9  CB       -74.1650   -1.0380    1.9460 C.3   430  PHE430      0.0534
     10  CG       -73.4650   -1.0130    0.6120 C.ar  430  PHE430     -0.0203
     11  CD1      -73.5560    0.0980   -0.2330 C.ar  430  PHE430     -0.0042
     12  CD2      -72.7240   -2.1070    0.1920 C.ar  430  PHE430     -0.0042
     13  CE1      -72.9300    0.1120   -1.4780 C.ar  430  PHE430     -0.0003
     14  CE2      -72.0830   -2.1040   -1.0490 C.ar  430  PHE430     -0.0003
     15  CZ       -72.1860   -0.9870   -1.8860 C.ar  430  PHE430     -0.0000
     16  N        -77.3130    1.0360   -3.3940 N.3   434  ILE434     -0.1245
     17  CA       -77.0810    0.4420   -4.7180 C.3   434  ILE434      0.1561
     18  C        -78.3490    0.2410   -5.5420 C.2   434  ILE434      0.2260
     19  O        -78.3060    0.3200   -6.7770 O.2   434  ILE434     -0.2867
     20  CB       -76.3400   -0.8950   -4.6050 C.3   434  ILE434      0.0252
     21  CG1      -75.1500   -0.9390   -5.5660 C.3   434  ILE434      0.0019
     22  CG2      -77.2680   -2.0450   -4.8790 C.3   434  ILE434      0.0019
     23  CD1      -74.0860   -1.9000   -5.1060 C.3   434  ILE434      0.0001
     24  N        -78.9160    3.6420   -7.4840 N.3   437  ASP437     -0.1225
     25  CA       -78.1150    3.6590   -8.7100 C.3   437  ASP437      0.1805
     26  C        -78.7380    2.7650   -9.7510 C.2   437  ASP437      0.2598
     27  O        -79.1180    3.2240  -10.8260 O.2   437  ASP437     -0.2718
     28  CB       -76.6930    3.1760   -8.4620 C.3   437  ASP437      0.1424
     29  CG       -75.9820    4.0020   -7.4480 C.2   437  ASP437      0.3668
     30  OD1      -75.1060    4.8040   -7.8580 O.co2 437  ASP437     -0.2456
     31  OD2      -76.3060    3.8550   -6.2410 O.co2 437  ASP437     -0.2456
     32  N        -78.8700    1.4880   -9.4140 N.am  438  THR438     -0.1953
     33  CA       -79.2330    0.5060  -10.4160 C.3   438  THR438      0.1897
     34  C        -80.6100    0.7970  -10.9930 C.2   438  THR438      0.2313
     35  O        -80.9840    0.2270  -12.0080 O.2   438  THR438     -0.2863
     36  CB       -79.1970   -0.9230   -9.8580 C.3   438  THR438      0.1794
     37  OG1      -78.3220   -0.9820   -8.7210 O.3   438  THR438     -0.2208
     38  CG2      -78.6780   -1.8620  -10.9060 C.3   438  THR438      0.0378
     39  N        -76.1560    2.5660    8.0260 N.3   516  ILE516     -0.1245
     40  CA       -74.8350    2.0790    7.6090 C.3   516  ILE516      0.1561
     41  C        -73.8720    2.0850    8.8120 C.2   516  ILE516      0.2260
     42  O        -73.1130    1.1300    9.0030 O.2   516  ILE516     -0.2867
     43  CB       -74.2560    2.7810    6.3210 C.3   516  ILE516      0.0252
     44  CG1      -73.0540    2.0020    5.7700 C.3   516  ILE516      0.0019
     45  CG2      -73.8340    4.2170    6.5780 C.3   516  ILE516      0.0019
     46  CD1      -73.3540    0.5930    5.2500 C.3   516  ILE516      0.0001
     47  N        -74.3960   -1.2450   10.9120 N.3   519  PHE519     -0.1241
     48  CA       -73.6150   -2.2880   10.2370 C.3   519  PHE519      0.1605
     49  C        -72.0990   -2.0520   10.2520 C.2   519  PHE519      0.2264
     50  O        -71.3140   -3.0040   10.3110 O.2   519  PHE519     -0.2867
     51  CB       -74.0770   -2.4450    8.7850 C.3   519  PHE519      0.0534
     52  CG       -72.9920   -2.8910    7.8560 C.ar  519  PHE519     -0.0203
     53  CD1      -72.1680   -1.9600    7.2330 C.ar  519  PHE519     -0.0042
     54  CD2      -72.7720   -4.2370    7.6250 C.ar  519  PHE519     -0.0042
     55  CE1      -71.1500   -2.3660    6.3920 C.ar  519  PHE519     -0.0003
     56  CE2      -71.7550   -4.6450    6.7770 C.ar  519  PHE519     -0.0003
     57  CZ       -70.9470   -3.7140    6.1610 C.ar  519  PHE519     -0.0000
     58  N        -58.4250   -1.6130   10.4170 N.3   575  PHE575     -0.1227
     59  CA       -58.8490   -1.5100    9.0120 C.3   575  PHE575      0.1736
     60  C        -60.3080   -1.1410    8.7820 C.2   575  PHE575      0.2595
     61  O        -60.5980   -0.2850    7.9450 O.2   575  PHE575     -0.2718
     62  CB       -58.4170   -2.7150    8.1850 C.3   575  PHE575      0.0547
     63  CG       -57.0000   -2.6260    7.7430 C.ar  575  PHE575     -0.0202
     64  CD1      -56.4440   -1.3830    7.4590 C.ar  575  PHE575     -0.0042
     65  CD2      -56.2090   -3.7570    7.6230 C.ar  575  PHE575     -0.0042
     66  CE1      -55.1350   -1.2620    7.0640 C.ar  575  PHE575     -0.0003
     67  CE2      -54.8840   -3.6430    7.2220 C.ar  575  PHE575     -0.0003
     68  CZ       -54.3530   -2.3920    6.9390 C.ar  575  PHE575     -0.0000
     69  N        -61.2230   -1.7630    9.5210 N.am  576  TRP576     -0.1976
     70  CA       -62.5880   -1.2760    9.4750 C.3   576  TRP576      0.1640
     71  C        -62.6620    0.1130   10.1190 C.2   576  TRP576      0.2290
     72  O        -62.8470    1.0920    9.3980 O.2   576  TRP576     -0.2864
     73  CB       -63.6110   -2.2720   10.0370 C.3   576  TRP576      0.0576
     74  CG       -64.1700   -3.1990    8.9710 C.ar  576  TRP576      0.0006
     75  CD1      -63.5420   -4.2750    8.4130 C.ar  576  TRP576      0.0946
     76  CD2      -65.4570   -3.1210    8.3380 C.ar  576  TRP576      0.0152
     77  NE1      -64.3490   -4.8710    7.4820 N.ar  576  TRP576     -0.2442
     78  CE2      -65.5320   -4.1880    7.4170 C.ar  576  TRP576      0.0810
     79  CE3      -66.5530   -2.2560    8.4600 C.ar  576  TRP576      0.0012
     80  CZ2      -66.6590   -4.4160    6.6260 C.ar  576  TRP576      0.0191
     81  CZ3      -67.6780   -2.4830    7.6700 C.ar  576  TRP576      0.0001
     82  CH2      -67.7200   -3.5540    6.7680 C.ar  576  TRP576      0.0015
     83  N        -61.1530    2.6520   10.6740 N.3   578  TYR578     -0.1227
     84  CA       -60.7200    3.7370    9.7680 C.3   578  TYR578      0.1736
     85  C        -61.8790    4.1720    8.8810 C.2   578  TYR578      0.2595
     86  O        -62.0120    5.3470    8.5790 O.2   578  TYR578     -0.2718
     87  CB       -59.5170    3.3420    8.8860 C.3   578  TYR578      0.0548
     88  CG       -59.3770    4.1920    7.6160 C.ar  578  TYR578     -0.0200
     89  CD1      -58.7630    5.4470    7.6500 C.ar  578  TYR578     -0.0009
     90  CD2      -59.8810    3.7420    6.3880 C.ar  578  TYR578     -0.0009
     91  CE1      -58.6460    6.2270    6.4960 C.ar  578  TYR578      0.0417
     92  CE2      -59.7730    4.5170    5.2270 C.ar  578  TYR578      0.0417
     93  CZ       -59.1540    5.7590    5.2900 C.ar  578  TYR578      0.1957
     94  OH       -59.0440    6.5220    4.1470 O.3   578  TYR578     -0.2866
     95  N        -62.6850    3.2040    8.4470 N.am  579  ASN579     -0.1974
     96  CA       -63.9760    3.4850    7.8300 C.3   579  ASN579      0.1688
     97  C        -64.9890    4.0200    8.8530 C.2   579  ASN579      0.2292
     98  O        -65.5760    5.0880    8.6430 O.2   579  ASN579     -0.2864
     99  CB       -64.5400    2.2360    7.1330 C.3   579  ASN579      0.1181
    100  CG       -64.3500    2.2620    5.6270 C.2   579  ASN579      0.2629
    101  OD1      -64.3550    1.2180    4.9750 O.2   579  ASN579     -0.2716
    102  ND2      -64.1920    3.4570    5.0640 N.am  579  ASN579     -0.0877
    103  N        -75.1760    7.3630   -3.4580 N.3   621  ILE621     -0.1245
    104  CA       -73.7900    6.9090   -3.2270 C.3   621  ILE621      0.1561
    105  C        -72.8020    7.2970   -4.3430 C.2   621  ILE621      0.2260
    106  O        -71.6050    7.0260   -4.2510 O.2   621  ILE621     -0.2867
    107  CB       -73.7210    5.3730   -2.8900 C.3   621  ILE621      0.0252
    108  CG1      -72.6210    5.0960   -1.8560 C.3   621  ILE621      0.0019
    109  CG2      -73.5790    4.5030   -4.1640 C.3   621  ILE621      0.0019
    110  CD1      -72.8470    3.8360   -1.0600 C.3   621  ILE621      0.0001
    111  N        -70.0270   11.3440   -4.4820 N.3   625  LEU625     -0.1245
    112  CA       -68.9050   11.9810   -5.1750 C.3   625  LEU625      0.1561
    113  C        -69.3690   12.9740   -6.2680 C.2   625  LEU625      0.2260
    114  O        -68.6200   13.8900   -6.6210 O.2   625  LEU625     -0.2867
    115  CB       -67.8150   10.9850   -5.6470 C.3   625  LEU625      0.0270
    116  CG       -67.9400    9.7840   -6.6010 C.3   625  LEU625      0.0019
    117  CD1      -69.0910    8.8670   -6.2390 C.3   625  LEU625      0.0001
    118  CD2      -68.0380   10.2060   -8.0600 C.3   625  LEU625      0.0001
    119  N        -67.0370   14.3770   -2.6420 N.3   629  LEU629     -0.1245
    120  CA       -65.7320   14.2040   -3.2860 C.3   629  LEU629      0.1561
    121  C        -65.4500   14.9510   -4.6250 C.2   629  LEU629      0.2260
    122  O        -64.4030   15.5860   -4.7320 O.2   629  LEU629     -0.2867
    123  CB       -65.3670   12.7150   -3.3700 C.3   629  LEU629      0.0270
    124  CG       -64.5880   12.1600   -2.1630 C.3   629  LEU629      0.0019
    125  CD1      -65.4800   11.4790   -1.1140 C.3   629  LEU629      0.0001
    126  CD2      -63.5890   11.1700   -2.6920 C.3   629  LEU629      0.0001
    127  N        -50.6410    6.4810    1.6370 N.3   658  TRP658     -0.1241
    128  CA       -51.6630    5.4450    1.5820 C.3   658  TRP658      0.1605
    129  C        -51.3770    4.4760    0.4340 C.2   658  TRP658      0.2264
    130  O        -51.2270    3.2780    0.6580 O.2   658  TRP658     -0.2867
    131  CB       -53.0400    6.0750    1.4020 C.3   658  TRP658      0.0550
    132  CG       -54.1310    5.0840    1.3700 C.ar  658  TRP658      0.0003
    133  CD1      -54.7800    4.5640    2.4370 C.ar  658  TRP658      0.0946
    134  CD2      -54.7070    4.4790    0.2110 C.ar  658  TRP658      0.0152
    135  NE1      -55.7350    3.6740    2.0270 N.ar  658  TRP658     -0.2442
    136  CE2      -55.7100    3.5970    0.6610 C.ar  658  TRP658      0.0810
    137  CE3      -54.4720    4.5920   -1.1690 C.ar  658  TRP658      0.0012
    138  CZ2      -56.4810    2.8300   -0.2120 C.ar  658  TRP658      0.0191
    139  CZ3      -55.2460    3.8270   -2.0450 C.ar  658  TRP658      0.0001
    140  CH2      -56.2380    2.9570   -1.5590 C.ar  658  TRP658      0.0015
    141  N        -51.4580    2.9380    5.8660 N.3   710  TYR710     -0.1241
    142  CA       -52.8310    2.9720    5.3350 C.3   710  TYR710      0.1605
    143  C        -53.7320    3.9420    6.0700 C.2   710  TYR710      0.2264
    144  O        -54.7470    4.3760    5.5390 O.2   710  TYR710     -0.2867
    145  CB       -53.4650    1.5840    5.4410 C.3   710  TYR710      0.0534
    146  CG       -54.5850    1.3180    4.4580 C.ar  710  TYR710     -0.0201
    147  CD1      -54.3250    0.6600    3.2640 C.ar  710  TYR710     -0.0009
    148  CD2      -55.8940    1.7100    4.7220 C.ar  710  TYR710     -0.0009
    149  CE1      -55.3230    0.3980    2.3560 C.ar  710  TYR710      0.0417
    150  CE2      -56.9080    1.4530    3.8090 C.ar  710  TYR710      0.0417
    151  CZ       -56.6090    0.7950    2.6240 C.ar  710  TYR710      0.1957
    152  OH       -57.5980    0.5230    1.7020 O.3   710  TYR710     -0.2866
@<TRIPOS>BOND
     1    35    34    2
     2    34    33    1
     3    38    36    1
     4    27    26    2
     5    33    36    1
     6    33    32    1
     7    36    37    1
     8    26    32   am
     9    26    25    1
    10    25    28    1
    11    25    24    1
    12    28    29    1
    13   118   116    1
    14    30    29   ar
    15    29    31   ar
    16    19    18    2
    17   114   113    2
    18   116   117    1
    19   116   115    1
    20   113   112    1
    21   115   112    1
    22    21    23    1
    23    21    20    1
    24    18    17    1
    25   112   111    1
    26    22    20    1
    27   122   121    2
    28    17    20    1
    29    17    16    1
    30   121   120    1
    31   105   106    2
    32   105   104    1
    33   109   107    1
    34   103   104    1
    35   123   120    1
    36   123   124    1
    37   120   119    1
    38   104   107    1
    39   107   108    1
    40   126   124    1
    41   124   125    1
    42   139   140   ar
    43   139   137   ar
    44    15    13   ar
    45    15    14   ar
    46   108   110    1
    47   140   138   ar
    48    13    11   ar
    49   137   134   ar
    50    14    12   ar
    51     8     7    2
    52    11    10   ar
    53   138   136   ar
    54    12    10   ar
    55   134   136   ar
    56   134   132   ar
    57   129   130    2
    58   129   128    1
    59     7     6    1
    60    10     9    1
    61   136   135   ar
    62   132   131    1
    63   132   133   ar
    64   131   128    1
    65   128   127    1
    66   152   151    1
    67     6     9    1
    68     6     5    1
    69   135   133   ar
    70   149   151   ar
    71   149   147   ar
    72   151   150   ar
    73     4     3    2
    74   147   146   ar
    75     3     2    1
    76   150   148   ar
    77    94    93    1
    78   146   148   ar
    79   146   145    1
    80     2     1    1
    81   101   100    2
    82   102   100   am
    83    92    93   ar
    84    92    90   ar
    85    46    44    1
    86    93    91   ar
    87   142   145    1
    88   142   141    1
    89   142   143    1
    90   144   143    2
    91   100    99    1
    92    44    43    1
    93    57    55   ar
    94    57    56   ar
    95    43    45    1
    96    43    40    1
    97    90    88   ar
    98    55    53   ar
    99    91    89   ar
   100    80    82   ar
   101    80    78   ar
   102    82    81   ar
   103    56    54   ar
   104    68    66   ar
   105    68    67   ar
   106    66    64   ar
   107    99    96    1
   108    67    65   ar
   109    53    52   ar
   110    78    77   ar
   111    78    76   ar
   112    64    63   ar
   113    77    75   ar
   114    40    39    1
   115    40    41    1
   116    88    89   ar
   117    88    87    1
   118    65    63   ar
   119    54    52   ar
   120    81    79   ar
   121    63    62    1
   122    96    95    1
   123    96    97    1
   124    52    51    1
   125    61    60    2
   126    62    59    1
   127    76    79   ar
   128    76    74   ar
   129    75    74   ar
   130    95    85   am
   131    86    85    2
   132    98    97    2
   133    60    59    1
   134    60    69   am
   135    51    48    1
   136    41    42    2
   137    85    84    1
   138    87    84    1
   139    74    73    1
   140    59    58    1
   141    72    71    2
   142    70    69    1
   143    70    73    1
   144    70    71    1
   145    84    83    1
   146    48    49    1
   147    48    47    1
   148    49    50    2
