@<TRIPOS>MOLECULE
tmp/2wsfC09.pdb
 84 81 0 0 0
SMALL
GASTEIGER

@<TRIPOS>ATOM
      1  N        -23.2240   15.2120   48.1540 N.3     3  PRO3       -0.2102
      2  CA       -24.0310   15.6240   49.3130 C.3     3  PRO3        0.1504
      3  C        -25.2090   14.6870   49.6200 C.2     3  PRO3        0.2576
      4  O        -25.6360   13.9090   48.7570 O.2     3  PRO3       -0.2718
      5  CB       -24.5460   17.0040   48.8990 C.3     3  PRO3        0.0282
      6  CG       -23.4730   17.5400   48.0220 C.3     3  PRO3        0.0208
      7  CD       -22.9390   16.3530   47.2600 C.3     3  PRO3        0.0893
      8  N        -25.7280   14.7820   50.8420 N.am    4  GLU4       -0.1966
      9  CA       -26.7280   13.8330   51.3400 C.3     4  GLU4        0.1733
     10  C        -28.0960   14.4690   51.6140 C.2     4  GLU4        0.2616
     11  O        -28.2220   15.6950   51.7180 O.2     4  GLU4       -0.2715
     12  CB       -26.2010   13.1250   52.5960 C.3     4  GLU4        0.0429
     13  CG       -24.9290   12.2980   52.3760 C.3     4  GLU4        0.1163
     14  CD       -23.6580   13.1340   52.3300 C.2     4  GLU4        0.3649
     15  OE1      -23.7160   14.3430   52.6340 O.co2   4  GLU4       -0.2457
     16  OE2      -22.5940   12.5770   51.9900 O.co2   4  GLU4       -0.2457
     17  N        -29.1150   13.6220   51.7210 N.am    5  GLY5       -0.1955
     18  CA       -30.4680   14.0710   52.0280 C.3     5  GLY5        0.1869
     19  C        -31.3620   12.9100   52.4080 C.2     5  GLY5        0.2309
     20  O        -32.1600   12.4420   51.5930 O.2     5  GLY5       -0.2863
     21  N        -37.1640   18.8020   60.2080 N.3    15  LEU15      -0.1245
     22  CA       -36.9990   20.0620   59.4880 C.3    15  LEU15       0.1561
     23  C        -38.3470   20.7460   59.2700 C.2    15  LEU15       0.2260
     24  O        -38.3950   21.9400   58.9640 O.2    15  LEU15      -0.2867
     25  CB       -36.2820   19.8600   58.1490 C.3    15  LEU15       0.0270
     26  CG       -34.7460   19.8890   58.0930 C.3    15  LEU15       0.0019
     27  CD1      -34.0790   18.6760   58.7610 C.3    15  LEU15       0.0001
     28  CD2      -34.2920   20.0070   56.6420 C.3    15  LEU15       0.0001
     29  N        -38.9960   24.3580   60.6300 N.3    19  GLU19      -0.1245
     30  CA       -39.4980   25.4090   59.7250 C.3    19  GLU19       0.1567
     31  C        -40.4750   26.3470   60.4210 C.2    19  GLU19       0.2260
     32  O        -40.3870   27.5710   60.2780 O.2    19  GLU19      -0.2867
     33  CB       -40.1620   24.8180   58.4710 C.3    19  GLU19       0.0388
     34  CG       -39.2170   24.5990   57.2950 C.3    19  GLU19       0.1160
     35  CD       -39.8720   24.7810   55.9310 C.2    19  GLU19       0.3649
     36  OE1      -40.5380   25.8180   55.7010 O.co2  19  GLU19      -0.2457
     37  OE2      -39.6920   23.8910   55.0740 O.co2  19  GLU19      -0.2457
     38  N        -31.5660   37.5250   51.6970 N.3    65  MET65      -0.1230
     39  CA       -32.1520   36.2000   51.9360 C.3    65  MET65       0.1702
     40  C        -31.3710   35.0750   51.2530 C.2    65  MET65       0.2592
     41  O        -31.4290   33.9220   51.6800 O.2    65  MET65      -0.2718
     42  CB       -33.6230   36.2000   51.4990 C.3    65  MET65       0.0401
     43  CG       -34.4540   35.0230   51.9860 C.3    65  MET65       0.0596
     44  SD       -34.6070   33.7300   50.7480 S.3    65  MET65      -0.1393
     45  CE       -35.7550   34.4940   49.6020 C.3    65  MET65       0.0692
     46  N        -30.6400   35.4200   50.1990 N.am   66  ALA66      -0.1980
     47  CA       -29.7290   34.4850   49.5730 C.3    66  ALA66       0.1597
     48  C        -28.4210   34.4210   50.3500 C.2    66  ALA66       0.2287
     49  O        -28.0010   33.3380   50.7490 O.2    66  ALA66      -0.2864
     50  CB       -29.4780   34.8690   48.1240 C.3    66  ALA66       0.0319
     51  N        -28.7370   33.1360   53.7060 N.3    69  GLY69      -0.1210
     52  CA       -29.1070   31.7420   53.4950 C.3    69  GLY69       0.1956
     53  C        -27.8340   31.0010   53.1410 C.2    69  GLY69       0.2611
     54  O        -27.7790   29.7760   53.2300 O.2    69  GLY69      -0.2717
     55  N        -26.8130   31.7680   52.7440 N.am   70  PHE70      -0.1976
     56  CA       -25.4510   31.2770   52.5200 C.3    70  PHE70       0.1639
     57  C        -24.6910   31.2470   53.8570 C.2    70  PHE70       0.2290
     58  O        -23.4750   31.4680   53.9240 O.2    70  PHE70      -0.2864
     59  CB       -24.7390   32.1530   51.4790 C.3    70  PHE70       0.0560
     60  CG       -23.5990   31.4730   50.7680 C.ar   70  PHE70      -0.0200
     61  CD1      -23.8440   30.5240   49.7780 C.ar   70  PHE70      -0.0042
     62  CD2      -22.2780   31.8000   51.0720 C.ar   70  PHE70      -0.0042
     63  CE1      -22.7940   29.8990   49.1130 C.ar   70  PHE70      -0.0003
     64  CE2      -21.2200   31.1830   50.4130 C.ar   70  PHE70      -0.0003
     65  CZ       -21.4790   30.2290   49.4290 C.ar   70  PHE70      -0.0000
     66  N        -26.9930   29.6240   56.6960 N.3    72  GLU72      -0.1231
     67  CA       -27.8880   28.6160   57.2860 C.3    72  GLU72       0.1699
     68  C        -27.3490   27.2010   57.0510 C.2    72  GLU72       0.2592
     69  O        -27.4750   26.3240   57.9070 O.2    72  GLU72      -0.2718
     70  CB       -29.3140   28.7550   56.7220 C.3    72  GLU72       0.0402
     71  CG       -30.4210   28.0550   57.5370 C.3    72  GLU72       0.1161
     72  CD       -31.7910   28.0600   56.8460 C.2    72  GLU72       0.3649
     73  OE1      -32.7540   27.4900   57.4170 O.co2  72  GLU72      -0.2457
     74  OE2      -31.9150   28.6280   55.7320 O.co2  72  GLU72      -0.2457
     75  N        -26.7220   27.0090   55.8930 N.am   73  HIS73      -0.1976
     76  CA       -26.1620   25.7170   55.4970 C.3    73  HIS73       0.1656
     77  C        -24.6510   25.6040   55.7870 C.2    73  HIS73       0.2291
     78  O        -23.9470   24.7870   55.1780 O.2    73  HIS73      -0.2864
     79  CB       -26.4800   25.4570   54.0210 C.3    73  HIS73       0.0771
     80  CG       -27.9480   25.3750   53.7280 C.ar   73  HIS73       0.0820
     81  ND1      -28.5030   24.3440   53.0020 N.ar   73  HIS73      -0.2267
     82  CD2      -28.9770   26.1870   54.0740 C.ar   73  HIS73       0.1154
     83  CE1      -29.8080   24.5280   52.9060 C.ar   73  HIS73       0.1986
     84  NE2      -30.1220   25.6390   53.5470 N.ar   73  HIS73      -0.2212
@<TRIPOS>BOND
     1     7     6    1
     2     7     1    1
     3     6     5    1
     4    50    47    1
     5     1     2    1
     6     4     3    2
     7     5     2    1
     8    63    65   ar
     9    63    61   ar
    10     2     3    1
    11    65    64   ar
    12    47    46    1
    13    47    48    1
    14    45    44    1
    15     3     8   am
    16    61    60   ar
    17    46    40   am
    18    48    49    2
    19    64    62   ar
    20    44    43    1
    21    60    62   ar
    22    60    59    1
    23     8     9    1
    24    40    41    2
    25    40    39    1
    26     9    10    1
    27     9    12    1
    28    59    56    1
    29    42    39    1
    30    42    43    1
    31    20    19    2
    32    10    11    2
    33    10    17   am
    34    38    39    1
    35    17    18    1
    36    16    14   ar
    37    18    19    1
    38    14    13    1
    39    14    15   ar
    40    13    12    1
    41    56    55    1
    42    56    57    1
    43    55    53   am
    44    83    81   ar
    45    83    84   ar
    46    81    80   ar
    47    53    54    2
    48    53    52    1
    49    52    51    1
    50    84    82   ar
    51    80    79    1
    52    80    82   ar
    53    57    58    2
    54    79    76    1
    55    37    35   ar
    56    78    77    2
    57    76    77    1
    58    76    75    1
    59    36    35   ar
    60    74    72   ar
    61    75    68   am
    62    35    34    1
    63    28    26    1
    64    66    67    1
    65    70    67    1
    66    70    71    1
    67    72    73   ar
    68    72    71    1
    69    68    67    1
    70    68    69    2
    71    34    33    1
    72    26    25    1
    73    26    27    1
    74    25    22    1
    75    33    30    1
    76    24    23    2
    77    23    22    1
    78    22    21    1
    79    30    31    1
    80    30    29    1
    81    32    31    2
