@<TRIPOS>MOLECULE
tmp/2wsfC06.pdb
 124 118 0 0 0
SMALL
GASTEIGER

@<TRIPOS>ATOM
      1  N        -38.8290   28.5570   63.3680 N.3    22  ASN22      -0.1240
      2  CA       -38.2850   29.7960   62.8080 C.3    22  ASN22       0.1653
      3  C        -39.3920   30.7720   62.4160 C.2    22  ASN22       0.2266
      4  O        -39.2680   31.9790   62.6330 O.2    22  ASN22      -0.2867
      5  CB       -37.3820   29.5080   61.6020 C.3    22  ASN22       0.1155
      6  CG       -36.0040   29.0150   62.0040 C.2    22  ASN22       0.2627
      7  OD1      -35.8450   27.8930   62.4890 O.2    22  ASN22      -0.2716
      8  ND2      -34.9930   29.8510   61.7890 N.am   22  ASN22      -0.0877
      9  N        -41.0730   32.9340   65.3120 N.3    25  TYR25      -0.1227
     10  CA       -40.4910   34.2040   65.6860 C.3    25  TYR25       0.1736
     11  C        -40.3610   35.0880   64.4430 C.2    25  TYR25       0.2595
     12  O        -40.1490   36.3000   64.5490 O.2    25  TYR25      -0.2718
     13  CB       -39.1670   33.9830   66.4160 C.3    25  TYR25       0.0548
     14  CG       -39.3360   33.7070   67.8980 C.ar   25  TYR25      -0.0200
     15  CD1      -39.2210   34.7360   68.8350 C.ar   25  TYR25      -0.0009
     16  CD2      -39.6210   32.4220   68.3630 C.ar   25  TYR25      -0.0009
     17  CE1      -39.3810   34.4940   70.2020 C.ar   25  TYR25       0.0417
     18  CE2      -39.7840   32.1670   69.7280 C.ar   25  TYR25       0.0417
     19  CZ       -39.6620   33.2090   70.6400 C.ar   25  TYR25       0.1957
     20  OH       -39.8190   32.9670   71.9890 O.3    25  TYR25      -0.2866
     21  N        -40.5100   34.4650   63.2700 N.am   26  ALA26      -0.1980
     22  CA       -40.8110   35.1790   62.0240 C.3    26  ALA26       0.1597
     23  C        -42.3190   35.4590   61.9600 C.2    26  ALA26       0.2287
     24  O        -42.8130   36.0690   61.0050 O.2    26  ALA26      -0.2864
     25  CB       -40.3500   34.3870   60.8120 C.3    26  ALA26       0.0319
     26  N        -43.3410   37.3410   64.3070 N.3    28  LEU28      -0.1245
     27  CA       -42.8600   38.7210   64.3210 C.3    28  LEU28       0.1561
     28  C        -43.8670   39.7130   64.9170 C.2    28  LEU28       0.2260
     29  O        -43.6690   40.2000   66.0330 O.2    28  LEU28      -0.2867
     30  CB       -42.4340   39.1350   62.8990 C.3    28  LEU28       0.0270
     31  CG       -41.0800   39.8060   62.6450 C.3    28  LEU28       0.0019
     32  CD1      -40.5320   39.3780   61.2810 C.3    28  LEU28       0.0001
     33  CD2      -41.2020   41.3230   62.7050 C.3    28  LEU28       0.0001
     34  N        -46.0240   47.5880   60.0770 N.3    39  LEU39      -0.1245
     35  CA       -44.9330   46.9900   59.2950 C.3    39  LEU39       0.1561
     36  C        -45.2600   45.5590   58.8530 C.2    39  LEU39       0.2260
     37  O        -44.5340   44.9690   58.0480 O.2    39  LEU39      -0.2867
     38  CB       -43.6180   47.0090   60.0960 C.3    39  LEU39       0.0270
     39  CG       -42.2590   47.4230   59.4960 C.3    39  LEU39       0.0019
     40  CD1      -41.9570   46.7920   58.1320 C.3    39  LEU39       0.0001
     41  CD2      -42.1190   48.9450   59.4240 C.3    39  LEU39       0.0001
     42  N        -39.4440   51.6040   54.3490 N.3    56  ASP56      -0.1225
     43  CA       -38.0820   51.1110   54.2960 C.3    56  ASP56       0.1805
     44  C        -37.9380   50.1550   53.1080 C.2    56  ASP56       0.2598
     45  O        -37.3700   49.0650   53.2050 O.2    56  ASP56      -0.2718
     46  CB       -37.6080   50.5540   55.6510 C.3    56  ASP56       0.1424
     47  CG       -37.8100   49.0610   55.7910 C.2    56  ASP56       0.3668
     48  OD1      -38.9720   48.5970   55.7470 O.co2  56  ASP56      -0.2456
     49  OD2      -36.7930   48.3540   55.9600 O.co2  56  ASP56      -0.2456
     50  N        -38.5740   50.5750   52.0180 N.am   57  SER57      -0.1938
     51  CA       -38.0840   50.4010   50.6460 C.3    57  SER57       0.2055
     52  C        -37.0710   49.2900   50.2870 C.2    57  SER57       0.2643
     53  O        -36.5910   48.5270   51.1300 O.2    57  SER57      -0.2714
     54  CB       -37.5280   51.7560   50.1640 C.3    57  SER57       0.2130
     55  OG       -36.7460   52.3700   51.1830 O.3    57  SER57      -0.2179
     56  N        -36.8700   49.1750   48.9660 N.am   58  TYR58      -0.1973
     57  CA       -35.6370   48.7180   48.2690 C.3    58  TYR58       0.1639
     58  C        -35.4510   47.3010   47.6940 C.2    58  TYR58       0.2290
     59  O        -36.4030   46.5400   47.5020 O.2    58  TYR58      -0.2864
     60  CB       -34.2840   49.3870   48.6880 C.3    58  TYR58       0.0560
     61  CG       -33.9300   49.7110   50.1330 C.ar   58  TYR58      -0.0198
     62  CD1      -32.6160   50.0360   50.4710 C.ar   58  TYR58      -0.0009
     63  CD2      -34.8730   49.7270   51.1410 C.ar   58  TYR58      -0.0009
     64  CE1      -32.2630   50.3620   51.7780 C.ar   58  TYR58       0.0417
     65  CE2      -34.5350   50.0490   52.4520 C.ar   58  TYR58       0.0417
     66  CZ       -33.2300   50.3620   52.7660 C.ar   58  TYR58       0.1957
     67  OH       -32.8960   50.6720   54.0660 O.3    58  TYR58      -0.2866
     68  N        -31.8910   44.8970   46.4730 N.3    60  LEU60      -0.1231
     69  CA       -31.0790   44.3780   47.5650 C.3    60  LEU60       0.1693
     70  C        -31.9620   43.7990   48.6810 C.2    60  LEU60       0.2592
     71  O        -31.8320   44.1480   49.8630 O.2    60  LEU60      -0.2718
     72  CB       -30.2010   45.5360   48.0980 C.3    60  LEU60       0.0284
     73  CG       -29.5800   46.5340   47.0970 C.3    60  LEU60       0.0019
     74  CD1      -29.1770   47.8470   47.7760 C.3    60  LEU60       0.0001
     75  CD2      -28.4120   45.9280   46.3080 C.3    60  LEU60       0.0001
     76  N        -32.8740   42.9210   48.2720 N.am   61  PHE61      -0.1976
     77  CA       -33.7430   42.1660   49.1610 C.3    61  PHE61       0.1639
     78  C        -33.4630   40.6920   48.8920 C.2    61  PHE61       0.2290
     79  O        -33.4260   39.8870   49.8190 O.2    61  PHE61      -0.2864
     80  CB       -35.2170   42.4850   48.8800 C.3    61  PHE61       0.0560
     81  CG       -36.1530   42.0820   49.9880 C.ar   61  PHE61      -0.0200
     82  CD1      -36.4700   40.7490   50.2070 C.ar   61  PHE61      -0.0042
     83  CD2      -36.7270   43.0420   50.8140 C.ar   61  PHE61      -0.0042
     84  CE1      -37.3400   40.3720   51.2370 C.ar   61  PHE61      -0.0003
     85  CE2      -37.5990   42.6720   51.8440 C.ar   61  PHE61      -0.0003
     86  CZ       -37.9060   41.3320   52.0500 C.ar   61  PHE61      -0.0000
     87  N        -29.8450   39.6070   50.2830 N.3    64  GLU64      -0.1231
     88  CA       -29.8790   39.2870   51.7070 C.3    64  GLU64       0.1699
     89  C        -30.2890   37.8280   51.9430 C.2    64  GLU64       0.2592
     90  O        -29.4590   37.0020   52.3310 O.2    64  GLU64      -0.2718
     91  CB       -30.8140   40.2550   52.4460 C.3    64  GLU64       0.0402
     92  CG       -30.8600   40.0780   53.9640 C.3    64  GLU64       0.1161
     93  CD       -31.5690   38.8000   54.3820 C.2    64  GLU64       0.3649
     94  OE1      -32.7970   38.6910   54.1560 O.co2  64  GLU64      -0.2457
     95  OE2      -30.8870   37.8960   54.9180 O.co2  64  GLU64      -0.2457
     96  N        -31.5660   37.5250   51.6970 N.am   65  MET65      -0.1979
     97  CA       -32.1520   36.2000   51.9360 C.3    65  MET65       0.1605
     98  C        -31.3710   35.0750   51.2530 C.2    65  MET65       0.2287
     99  O        -31.4290   33.9220   51.6800 O.2    65  MET65      -0.2864
    100  CB       -33.6230   36.2000   51.4990 C.3    65  MET65       0.0413
    101  CG       -34.4540   35.0230   51.9860 C.3    65  MET65       0.0598
    102  SD       -34.6070   33.7300   50.7480 S.3    65  MET65      -0.1393
    103  CE       -35.7550   34.4940   49.6020 C.3    65  MET65       0.0692
    104  N        -27.4420   35.3990   53.3840 N.3    68  MET68      -0.1230
    105  CA       -27.5080   34.9230   54.7610 C.3    68  MET68       0.1702
    106  C        -28.2100   33.5780   54.8480 C.2    68  MET68       0.2592
    107  O        -28.2760   32.9620   55.9160 O.2    68  MET68      -0.2718
    108  CB       -28.1450   35.9650   55.6710 C.3    68  MET68       0.0401
    109  CG       -27.1210   36.8220   56.3950 C.3    68  MET68       0.0596
    110  SD       -25.9930   37.7140   55.3030 S.3    68  MET68      -0.1393
    111  CE       -27.0060   39.1380   54.8870 C.3    68  MET68       0.0692
    112  N        -28.7370   33.1360   53.7060 N.am   69  GLY69      -0.1957
    113  CA       -29.1070   31.7420   53.4950 C.3    69  GLY69       0.1869
    114  C        -27.8340   31.0010   53.1410 C.2    69  GLY69       0.2309
    115  O        -27.7790   29.7760   53.2300 O.2    69  GLY69      -0.2863
    116  N        -26.9930   29.6240   56.6960 N.3    72  GLU72      -0.1245
    117  CA       -27.8880   28.6160   57.2860 C.3    72  GLU72       0.1567
    118  C        -27.3490   27.2010   57.0510 C.2    72  GLU72       0.2260
    119  O        -27.4750   26.3240   57.9070 O.2    72  GLU72      -0.2867
    120  CB       -29.3140   28.7550   56.7220 C.3    72  GLU72       0.0388
    121  CG       -30.4210   28.0550   57.5370 C.3    72  GLU72       0.1160
    122  CD       -31.7910   28.0600   56.8460 C.2    72  GLU72       0.3649
    123  OE1      -32.7540   27.4900   57.4170 O.co2  72  GLU72      -0.2457
    124  OE2      -31.9150   28.6280   55.7320 O.co2  72  GLU72      -0.2457
@<TRIPOS>BOND
     1    75    73    1
     2    68    69    1
     3    73    74    1
     4    73    72    1
     5    59    58    2
     6    69    72    1
     7    69    70    1
     8    58    57    1
     9    57    60    1
    10    57    56    1
    11    76    70   am
    12    76    77    1
    13    70    71    2
    14    60    61    1
    15    80    77    1
    16    80    81    1
    17    78    77    1
    18    78    79    2
    19    56    52   am
    20   103   102    1
    21    81    82   ar
    22    81    83   ar
    23    61    62   ar
    24    61    63   ar
    25    54    51    1
    26    54    55    1
    27    82    84   ar
    28    87    88    1
    29    52    51    1
    30    52    53    2
    31    62    64   ar
    32    51    50    1
    33   102   101    1
    34    83    85   ar
    35    63    65   ar
    36    84    86   ar
    37    98    99    2
    38    98    97    1
    39   100    97    1
    40   100   101    1
    41    96    97    1
    42    96    89   am
    43    88    89    1
    44    88    91    1
    45    64    66   ar
    46    85    86   ar
    47    89    90    2
    48    50    44   am
    49    91    92    1
    50    65    66   ar
    51    66    67    1
    52    44    45    2
    53    44    43    1
    54   114   115    2
    55   114   113    1
    56   104   105    1
    57   113   112    1
    58   112   106   am
    59    92    93    1
    60    94    93   ar
    61    43    42    1
    62    43    46    1
    63    93    95   ar
    64   105   106    1
    65   105   108    1
    66   106   107    2
    67   111   110    1
    68   110   109    1
    69    46    47    1
    70   108   109    1
    71   124   122   ar
    72    48    47   ar
    73    47    49   ar
    74   116   117    1
    75   120   117    1
    76   120   121    1
    77   122   123   ar
    78   122   121    1
    79   118   117    1
    80   118   119    2
    81    37    36    2
    82    40    39    1
    83    36    35    1
    84    35    34    1
    85    35    38    1
    86    41    39    1
    87    39    38    1
    88    25    22    1
    89    24    23    2
    90    32    31    1
    91     5     6    1
    92     5     2    1
    93     8     6   am
    94    23    22    1
    95     6     7    2
    96    22    21    1
    97     3     4    2
    98     3     2    1
    99    31    33    1
   100    31    30    1
   101     2     1    1
   102    30    27    1
   103    21    11   am
   104    26    27    1
   105    27    28    1
   106    11    12    2
   107    11    10    1
   108    28    29    2
   109     9    10    1
   110    10    13    1
   111    13    14    1
   112    14    16   ar
   113    14    15   ar
   114    16    18   ar
   115    15    17   ar
   116    18    19   ar
   117    17    19   ar
   118    19    20    1
