@<TRIPOS>MOLECULE
tmp/2wsfE05.pdb
 136 126 0 0 0
SMALL
GASTEIGER

@<TRIPOS>ATOM
      1  N        -60.3510    5.6670   43.7810 N.3   183  LEU183     -0.1245
      2  CA       -61.3920    6.5290   43.2090 C.3   183  LEU183      0.1561
      3  C        -61.8690    7.5140   44.2710 C.2   183  LEU183      0.2260
      4  O        -62.0380    8.7100   43.9980 O.2   183  LEU183     -0.2867
      5  CB       -62.5540    5.6790   42.6730 C.3   183  LEU183      0.0270
      6  CG       -62.1280    4.3560   42.0020 C.3   183  LEU183      0.0019
      7  CD1      -61.9840    3.1990   43.0180 C.3   183  LEU183      0.0001
      8  CD2      -63.0670    3.9770   40.8540 C.3   183  LEU183      0.0001
      9  N        -62.3290   11.0820   42.1770 N.3   187  LEU187     -0.1245
     10  CA       -63.6240   11.6970   41.8460 C.3   187  LEU187      0.1561
     11  C        -64.0690   12.7390   42.8640 C.2   187  LEU187      0.2260
     12  O        -64.6960   13.7270   42.4960 O.2   187  LEU187     -0.2867
     13  CB       -64.7340   10.6590   41.6360 C.3   187  LEU187      0.0270
     14  CG       -65.6080   10.2190   42.8170 C.3   187  LEU187      0.0019
     15  CD1      -67.0620   10.1470   42.4200 C.3   187  LEU187      0.0001
     16  CD2      -65.1570    8.8670   43.3050 C.3   187  LEU187      0.0001
     17  N        -61.7080   15.7770   40.3050 N.3   191  LEU191     -0.1245
     18  CA       -62.9220   15.6330   39.5460 C.3   191  LEU191      0.1561
     19  C        -63.8600   16.6550   40.2060 C.2   191  LEU191      0.2260
     20  O        -64.4340   17.5090   39.5240 O.2   191  LEU191     -0.2867
     21  CB       -63.4570   14.1960   39.6540 C.3   191  LEU191      0.0270
     22  CG       -62.8900   12.9960   38.8510 C.3   191  LEU191      0.0019
     23  CD1      -63.2900   13.0500   37.3620 C.3   191  LEU191      0.0001
     24  CD2      -61.3730   12.7680   38.9920 C.3   191  LEU191      0.0001
     25  N        -71.4000   16.3790   43.5910 N.3   289  LEU289     -0.1231
     26  CA       -71.3130   14.9740   43.2460 C.3   289  LEU289      0.1693
     27  C        -69.8980   14.7820   42.7110 C.2   289  LEU289      0.2592
     28  O        -69.4660   15.4970   41.7970 O.2   289  LEU289     -0.2718
     29  CB       -72.3760   14.6730   42.1900 C.3   289  LEU289      0.0284
     30  CG       -72.4490   13.3630   41.4290 C.3   289  LEU289      0.0019
     31  CD1      -73.7190   13.3750   40.5960 C.3   289  LEU289      0.0001
     32  CD2      -71.2520   13.2130   40.5240 C.3   289  LEU289      0.0001
     33  N        -69.1950   13.8060   43.2760 N.am  290  PHE290     -0.1976
     34  CA       -67.7330   13.7930   43.3290 C.3   290  PHE290      0.1639
     35  C        -67.3610   14.2340   44.7520 C.2   290  PHE290      0.2290
     36  O        -66.7320   13.4750   45.4910 O.2   290  PHE290     -0.2864
     37  CB       -67.0750   14.7090   42.2690 C.3   290  PHE290      0.0560
     38  CG       -67.1100   14.1610   40.8460 C.ar  290  PHE290     -0.0200
     39  CD1      -67.4560   12.8330   40.5840 C.ar  290  PHE290     -0.0042
     40  CD2      -66.7720   14.9790   39.7680 C.ar  290  PHE290     -0.0042
     41  CE1      -67.4830   12.3310   39.2710 C.ar  290  PHE290     -0.0003
     42  CE2      -66.7870   14.4850   38.4570 C.ar  290  PHE290     -0.0003
     43  CZ       -67.1440   13.1610   38.2080 C.ar  290  PHE290     -0.0000
     44  N        -69.6590   14.8950   47.2250 N.3   292  ILE292     -0.1231
     45  CA       -70.3530   13.6950   47.6810 C.3   292  ILE292      0.1692
     46  C        -70.2790   12.7050   46.5170 C.2   292  ILE292      0.2591
     47  O        -70.6980   13.0190   45.4040 O.2   292  ILE292     -0.2718
     48  CB       -71.8200   13.9610   48.1780 C.3   292  ILE292      0.0266
     49  CG1      -72.1450   13.0740   49.3950 C.3   292  ILE292      0.0019
     50  CG2      -72.8610   13.8150   47.0420 C.3   292  ILE292      0.0020
     51  CD1      -73.4330   13.5030   50.1640 C.3   292  ILE292      0.0001
     52  N        -69.6860   11.5410   46.7840 N.am  293  ALA293     -0.1980
     53  CA       -69.5240   10.4310   45.8260 C.3   293  ALA293      0.1597
     54  C        -68.1590    9.7680   45.9810 C.2   293  ALA293      0.2287
     55  O        -68.0660    8.5430   46.0850 O.2   293  ALA293     -0.2864
     56  CB       -69.7330   10.8710   44.3840 C.3   293  ALA293      0.0319
     57  N        -67.2850    7.0470   49.0860 N.3   296  MET296     -0.1245
     58  CA       -67.2800    5.6310   49.3200 C.3   296  MET296      0.1570
     59  C        -65.7630    5.5630   49.5440 C.2   296  MET296      0.2261
     60  O        -64.9950    6.2250   48.8350 O.2   296  MET296     -0.2867
     61  CB       -67.7100    4.7730   48.1270 C.3   296  MET296      0.0387
     62  CG       -69.1900    4.6450   47.7550 C.3   296  MET296      0.0595
     63  SD       -69.5250    4.5820   45.9430 S.3   296  MET296     -0.1393
     64  CE       -70.6130    3.2330   45.8340 C.3   296  MET296      0.0692
     65  N        -64.1470   -4.0450   49.4360 N.3   299  ILE299     -0.1231
     66  CA       -64.3050   -3.6370   48.0660 C.3   299  ILE299      0.1692
     67  C        -65.0850   -4.7100   47.3190 C.2   299  ILE299      0.2591
     68  O        -66.0100   -4.4350   46.5840 O.2   299  ILE299     -0.2718
     69  CB       -62.9550   -3.3860   47.4180 C.3   299  ILE299      0.0266
     70  CG1      -61.9570   -4.4390   47.8150 C.3   299  ILE299      0.0019
     71  CG2      -62.3750   -2.0770   47.8380 C.3   299  ILE299      0.0020
     72  CD1      -60.6810   -4.2250   47.1360 C.3   299  ILE299      0.0001
     73  N        -64.7650   -5.9660   47.5430 N.am  300  LYS300     -0.1980
     74  CA       -65.5680   -6.9540   46.8390 C.3   300  LYS300      0.1596
     75  C        -67.0120   -6.6500   47.1760 C.2   300  LYS300      0.2287
     76  O        -67.6890   -5.9830   46.4110 O.2   300  LYS300     -0.2864
     77  CB       -65.1850   -8.3740   47.2580 C.3   300  LYS300      0.0298
     78  CG       -65.9470   -9.4800   46.5380 C.3   300  LYS300      0.0038
     79  CD       -65.0440  -10.7030   46.3950 C.3   300  LYS300      0.0206
     80  CE       -65.6640  -11.9460   47.0330 C.3   300  LYS300      0.1093
     81  NZ       -64.6520  -12.8720   47.6460 N.3   300  LYS300     -0.1314
     82  N        -69.8180   -5.4260   47.1270 N.3   302  ILE302     -0.1231
     83  CA       -70.8600   -5.0230   46.1810 C.3   302  ILE302      0.1692
     84  C        -70.9860   -5.9210   44.9590 C.2   302  ILE302      0.2591
     85  O        -72.0780   -6.0980   44.4240 O.2   302  ILE302     -0.2718
     86  CB       -70.6110   -3.6140   45.6590 C.3   302  ILE302      0.0266
     87  CG1      -70.2900   -2.6580   46.8140 C.3   302  ILE302      0.0019
     88  CG2      -71.8130   -3.1370   44.8590 C.3   302  ILE302      0.0020
     89  CD1      -69.3920   -1.4750   46.4030 C.3   302  ILE302      0.0001
     90  N        -69.8610   -6.4580   44.5040 N.am  303  LEU303     -0.1980
     91  CA       -69.8430   -7.3300   43.3470 C.3   303  LEU303      0.1596
     92  C        -69.9840   -8.7590   43.8440 C.2   303  LEU303      0.2287
     93  O        -70.6320   -9.5900   43.2090 O.2   303  LEU303     -0.2864
     94  CB       -68.5520   -7.1200   42.5620 C.3   303  LEU303      0.0297
     95  CG       -68.3780   -7.9060   41.2680 C.3   303  LEU303      0.0022
     96  CD1      -67.0530   -7.5660   40.6120 C.3   303  LEU303      0.0001
     97  CD2      -68.4120   -9.3580   41.6100 C.3   303  LEU303      0.0001
     98  N        -74.9240   -9.5870   44.1270 N.3   306  HIS306     -0.1241
     99  CA       -75.9980   -9.9380   43.1770 C.3   306  HIS306      0.1621
    100  C        -75.6270  -10.9650   42.0900 C.2   306  HIS306      0.2264
    101  O        -74.9320  -10.6500   41.1120 O.2   306  HIS306     -0.2867
    102  CB       -76.7980   -8.7240   42.6180 C.3   306  HIS306      0.0745
    103  CG       -75.9990   -7.4680   42.3720 C.ar  306  HIS306      0.0817
    104  ND1      -74.7010   -7.2840   42.8070 N.ar  306  HIS306     -0.2268
    105  CD2      -76.3540   -6.3110   41.7590 C.ar  306  HIS306      0.1154
    106  CE1      -74.2850   -6.0780   42.4520 C.ar  306  HIS306      0.1986
    107  NE2      -75.2740   -5.4640   41.8230 N.ar  306  HIS306     -0.2212
    108  N        -60.3510   -2.1260   29.7490 N.3   332  ILE332     -0.1245
    109  CA       -61.4480   -1.4130   30.3790 C.3   332  ILE332      0.1561
    110  C        -60.8360   -0.0780   30.7970 C.2   332  ILE332      0.2260
    111  O        -59.7640   -0.0490   31.4210 O.2   332  ILE332     -0.2867
    112  CB       -62.1090   -2.2020   31.5640 C.3   332  ILE332      0.0252
    113  CG1      -63.1830   -1.3580   32.2540 C.3   332  ILE332      0.0019
    114  CG2      -61.0880   -2.7100   32.5750 C.3   332  ILE332      0.0019
    115  CD1      -64.2120   -0.7670   31.2950 C.3   332  ILE332      0.0001
    116  N        -62.1340    1.5590   26.3150 N.3   335  ALA335     -0.1231
    117  CA       -63.5220    1.4630   25.8610 C.3   335  ALA335      0.1694
    118  C        -64.3290    2.6460   26.3780 C.2   335  ALA335      0.2591
    119  O        -65.1720    3.1710   25.6650 O.2   335  ALA335     -0.2718
    120  CB       -64.1480    0.1470   26.3070 C.3   335  ALA335      0.0304
    121  N        -64.0440    3.0730   27.6100 N.am  336  MET336     -0.1979
    122  CA       -64.7700    4.1790   28.2250 C.3   336  MET336      0.1605
    123  C        -64.1550    5.5190   27.8870 C.2   336  MET336      0.2287
    124  O        -64.7950    6.3160   27.2140 O.2   336  MET336     -0.2864
    125  CB       -64.8830    3.9940   29.7300 C.3   336  MET336      0.0413
    126  CG       -65.6530    2.7530   30.1350 C.3   336  MET336      0.0598
    127  SD       -67.1780    2.4750   29.2250 S.3   336  MET336     -0.1393
    128  CE       -68.0150    4.0570   29.3730 C.3   336  MET336      0.0692
    129  N        -64.4250   -8.6570   18.7590 N.3   529  LEU529     -0.1245
    130  CA       -65.0810   -9.4660   19.7810 C.3   529  LEU529      0.1561
    131  C        -64.5660  -10.8860   19.6540 C.2   529  LEU529      0.2260
    132  O        -63.8210  -11.3420   20.5180 O.2   529  LEU529     -0.2867
    133  CB       -66.6150   -9.3860   19.6700 C.3   529  LEU529      0.0270
    134  CG       -67.5270   -9.8160   20.8310 C.3   529  LEU529      0.0019
    135  CD1      -66.8360   -9.7670   22.2090 C.3   529  LEU529      0.0001
    136  CD2      -68.8310   -8.9980   20.8270 C.3   529  LEU529      0.0001
@<TRIPOS>BOND
     1   129   130    1
     2   131   130    1
     3   131   132    2
     4   133   130    1
     5   133   134    1
     6   136   134    1
     7   134   135    1
     8   119   118    2
     9   117   120    1
    10   117   116    1
    11   117   118    1
    12   118   121   am
    13   124   123    2
    14   121   122    1
    15   123   122    1
    16   122   125    1
    17   127   128    1
    18   127   126    1
    19   125   126    1
    20   108   109    1
    21   109   110    1
    22   109   112    1
    23   110   111    2
    24   115   113    1
    25   112   113    1
    26   112   114    1
    27    23    22    1
    28    43    42   ar
    29    43    41   ar
    30    42    40   ar
    31    22    24    1
    32    22    21    1
    33    41    39   ar
    34    20    19    2
    35    18    21    1
    36    18    19    1
    37    18    17    1
    38    40    38   ar
    39    32    30    1
    40    39    38   ar
    41    31    30    1
    42    96    95    1
    43    38    37    1
    44     8     6    1
    45   101   100    2
    46    95    97    1
    47    95    94    1
    48    30    29    1
    49    13    10    1
    50    13    14    1
    51   105   107   ar
    52   105   103   ar
    53    28    27    2
    54   107   106   ar
    55    10     9    1
    56    10    11    1
    57     6     5    1
    58     6     7    1
    59   100    99    1
    60    29    26    1
    61    37    34    1
    62   103   102    1
    63   103   104   ar
    64    15    14    1
    65   106   104   ar
    66    12    11    2
    67    94    91    1
    68   102    99    1
    69     5     2    1
    70    27    26    1
    71    27    33   am
    72    14    16    1
    73    99    98    1
    74    93    92    2
    75     2     1    1
    76     2     3    1
    77    26    25    1
    78    33    34    1
    79    34    35    1
    80    91    92    1
    81    91    90    1
    82     4     3    2
    83    56    53    1
    84    85    84    2
    85    90    84   am
    86    35    36    2
    87    88    86    1
    88    84    83    1
    89    47    46    2
    90    86    83    1
    91    86    87    1
    92    53    54    1
    93    53    52    1
    94    64    63    1
    95    63    62    1
    96    54    55    2
    97    83    82    1
    98    79    78    1
    99    79    80    1
   100    89    87    1
   101    76    75    2
   102    46    52   am
   103    46    45    1
   104    78    77    1
   105    68    67    2
   106    74    75    1
   107    74    77    1
   108    74    73    1
   109    80    81    1
   110    50    48    1
   111    72    70    1
   112    44    45    1
   113    67    73   am
   114    67    66    1
   115    69    70    1
   116    69    71    1
   117    69    66    1
   118    45    48    1
   119    62    61    1
   120    66    65    1
   121    61    58    1
   122    48    49    1
   123    60    59    2
   124    57    58    1
   125    58    59    1
   126    49    51    1
