@<TRIPOS>MOLECULE
tmp/2wsiA00.pdb
 246 234 0 0 0
SMALL
GASTEIGER

@<TRIPOS>ATOM
      1  N         20.2050   28.2420   26.7030 N.3    59  SER59      -0.1202
      2  CA        21.0470   28.0500   25.5110 C.3    59  SER59       0.2020
      3  C         20.1710   27.8380   24.2840 C.2    59  SER59       0.2619
      4  O         19.4130   26.8740   24.1780 O.2    59  SER59      -0.2717
      5  CB        22.0920   26.9250   25.6600 C.3    59  SER59       0.2103
      6  OG        21.4870   25.6690   25.9280 O.3    59  SER59      -0.2182
      7  N         20.2880   28.7610   23.3490 N.am   60  TYR60      -0.1961
      8  CA        19.3990   28.7920   22.2010 C.3    60  TYR60       0.1771
      9  C         20.2280   28.8600   20.9150 C.2    60  TYR60       0.2619
     10  O         21.1110   29.7120   20.7900 O.2    60  TYR60      -0.2715
     11  CB        18.5240   30.0310   22.3050 C.3    60  TYR60       0.0574
     12  CG        17.5220   30.1930   21.1850 C.ar   60  TYR60      -0.0198
     13  CD1       16.5140   29.2470   20.9910 C.ar   60  TYR60      -0.0009
     14  CD2       17.5590   31.3050   20.3350 C.ar   60  TYR60      -0.0009
     15  CE1       15.5820   29.3880   19.9800 C.ar   60  TYR60       0.0417
     16  CE2       16.6350   31.4560   19.3260 C.ar   60  TYR60       0.0417
     17  CZ        15.6390   30.4860   19.1480 C.ar   60  TYR60       0.1957
     18  OH        14.6790   30.5830   18.1720 O.3    60  TYR60      -0.2866
     19  N         19.9160   28.0020   19.9480 N.am   61  ASN61      -0.1972
     20  CA        20.6360   28.0010   18.6650 C.3    61  ASN61       0.1688
     21  C         19.6580   28.0210   17.4830 C.2    61  ASN61       0.2292
     22  O         20.0590   27.8120   16.3370 O.2    61  ASN61      -0.2864
     23  CB        21.5690   26.7890   18.5420 C.3    61  ASN61       0.1181
     24  CG        20.8050   25.4590   18.5530 C.2    61  ASN61       0.2629
     25  OD1       19.5750   25.4270   18.6250 O.2    61  ASN61      -0.2716
     26  ND2       21.5420   24.3560   18.4870 N.am   61  ASN61      -0.0877
     27  N         14.4650   21.8930   18.3220 N.3    65  ASP65      -0.1225
     28  CA        14.3840   21.3830   19.6830 C.3    65  ASP65       0.1805
     29  C         14.4650   22.5330   20.6920 C.2    65  ASP65       0.2598
     30  O         13.6480   22.6260   21.6190 O.2    65  ASP65      -0.2718
     31  CB        15.5240   20.4180   19.9670 C.3    65  ASP65       0.1424
     32  CG        15.3690   19.0640   19.2660 C.2    65  ASP65       0.3668
     33  OD1       14.3060   18.7840   18.6970 O.co2  65  ASP65      -0.2456
     34  OD2       16.3330   18.2710   19.2930 O.co2  65  ASP65      -0.2456
     35  N         15.4480   23.4180   20.5560 N.am   66  CYS66      -0.1970
     36  CA        15.5020   24.4620   21.5850 C.3    66  CYS66       0.1712
     37  C         14.4150   25.5150   21.3720 C.2    66  CYS66       0.2296
     38  O         13.9790   26.1530   22.3400 O.2    66  CYS66      -0.2864
     39  CB        16.8820   25.0740   21.7520 C.3    66  CYS66       0.0983
     40  SG        17.4210   25.7240   20.3230 S.3    66  CYS66      -0.0798
     41  N         21.9490   32.4510   25.6540 N.3    97  VAL97      -0.1231
     42  CA        23.3100   32.3210   25.1610 C.3    97  VAL97       0.1692
     43  C         23.3010   31.5740   23.8460 C.2    97  VAL97       0.2592
     44  O         22.6760   30.5220   23.7630 O.2    97  VAL97      -0.2718
     45  CB        24.2280   31.5780   26.1650 C.3    97  VAL97       0.0266
     46  CG1       23.5260   30.3740   26.7470 C.3    97  VAL97       0.0020
     47  CG2       25.5340   31.1340   25.4820 C.3    97  VAL97       0.0020
     48  N         23.9830   32.1260   22.8340 N.am   98  PHE98      -0.1962
     49  CA        24.0860   31.5060   21.5230 C.3    98  PHE98       0.1771
     50  C         25.5540   31.4050   21.1840 C.2    98  PHE98       0.2619
     51  O         26.2540   32.4200   21.1560 O.2    98  PHE98      -0.2715
     52  CB        23.3940   32.3520   20.4480 C.3    98  PHE98       0.0574
     53  CG        23.6170   31.8390   19.0310 C.ar   98  PHE98      -0.0200
     54  CD1       23.5440   30.4770   18.7460 C.ar   98  PHE98      -0.0042
     55  CD2       23.8920   32.7240   17.9930 C.ar   98  PHE98      -0.0042
     56  CE1       23.7330   30.0040   17.4570 C.ar   98  PHE98      -0.0003
     57  CE2       24.0980   32.2530   16.6820 C.ar   98  PHE98      -0.0003
     58  CZ        24.0150   30.8960   16.4250 C.ar   98  PHE98      -0.0000
     59  N         26.0340   30.1960   20.9210 N.am   99  ILE99      -0.1977
     60  CA        27.4230   30.0730   20.5030 C.3    99  ILE99       0.1596
     61  C         27.4610   30.1180   18.9870 C.2    99  ILE99       0.2287
     62  O         26.9720   29.2060   18.3150 O.2    99  ILE99      -0.2864
     63  CB        28.1020   28.8210   21.0640 C.3    99  ILE99       0.0276
     64  CG1       27.9390   28.7560   22.5920 C.3    99  ILE99       0.0022
     65  CG2       29.5960   28.8180   20.6770 C.3    99  ILE99       0.0022
     66  CD1       28.4650   30.0230   23.3420 C.3    99  ILE99       0.0001
     67  N         29.5260   30.1340   15.4740 N.3   101  GLN101     -0.1245
     68  CA        30.7650   29.5200   15.0030 C.3   101  GLN101      0.1566
     69  C         31.0070   29.8550   13.5300 C.2   101  GLN101      0.2260
     70  O         30.1140   30.3550   12.8540 O.2   101  GLN101     -0.2867
     71  CB        30.6980   28.0140   15.2480 C.3   101  GLN101      0.0367
     72  CG        30.1930   27.6990   16.6670 C.3   101  GLN101      0.0905
     73  CD        30.0050   26.2060   16.9290 C.2   101  GLN101      0.2608
     74  OE1       29.0050   25.6070   16.5240 O.2   101  GLN101     -0.2717
     75  NE2       30.9650   25.6050   17.6200 N.am  101  GLN101     -0.0878
     76  N         32.6370   23.4260   22.2860 N.3   131  MET131     -0.1245
     77  CA        31.5360   24.0140   23.0290 C.3   131  MET131      0.1570
     78  C         31.8670   24.1500   24.5210 C.2   131  MET131      0.2261
     79  O         31.5200   25.1450   25.1220 O.2   131  MET131     -0.2867
     80  CB        30.2500   23.2360   22.7810 C.3   131  MET131      0.0387
     81  CG        29.6410   23.5640   21.4210 C.3   131  MET131      0.0595
     82  SD        28.4640   24.9390   21.5060 S.3   131  MET131     -0.1393
     83  CE        27.0140   24.0210   21.9070 C.3   131  MET131      0.0692
     84  N         31.5440   27.7500   26.5770 N.3   135  PHE135     -0.1241
     85  CA        30.7770   27.9780   27.7990 C.3   135  PHE135      0.1605
     86  C         31.6860   28.3460   28.9620 C.2   135  PHE135      0.2264
     87  O         31.2820   29.0900   29.8590 O.2   135  PHE135     -0.2867
     88  CB        29.8510   26.7970   28.1200 C.3   135  PHE135      0.0534
     89  CG        28.5590   26.8610   27.3610 C.ar  135  PHE135     -0.0203
     90  CD1       28.4640   26.3170   26.0900 C.ar  135  PHE135     -0.0042
     91  CD2       27.4520   27.5230   27.8960 C.ar  135  PHE135     -0.0042
     92  CE1       27.2870   26.4240   25.3510 C.ar  135  PHE135     -0.0003
     93  CE2       26.2610   27.6270   27.1620 C.ar  135  PHE135     -0.0003
     94  CZ        26.1840   27.0630   25.8870 C.ar  135  PHE135     -0.0000
     95  N         22.0030   26.2860   33.1180 N.3   148  ILE148     -0.1245
     96  CA        21.7550   26.5660   31.7260 C.3   148  ILE148      0.1561
     97  C         20.7260   25.5820   31.1700 C.2   148  ILE148      0.2260
     98  O         20.8600   24.3860   31.3630 O.2   148  ILE148     -0.2867
     99  CB        23.0470   26.4620   30.9360 C.3   148  ILE148      0.0252
    100  CG1       24.0680   27.3820   31.6220 C.3   148  ILE148      0.0019
    101  CG2       22.8030   26.8400   29.4610 C.3   148  ILE148      0.0019
    102  CD1       25.1170   27.9610   30.7350 C.3   148  ILE148      0.0001
    103  N         18.9760   23.5390   28.2500 N.3   150  ILE150     -0.1231
    104  CA        19.5700   22.8790   27.0820 C.3   150  ILE150      0.1692
    105  C         18.4770   22.0260   26.4410 C.2   150  ILE150      0.2593
    106  O         17.8720   21.2120   27.1380 O.2   150  ILE150     -0.2718
    107  CB        20.6650   21.9080   27.5350 C.3   150  ILE150      0.0266
    108  CG1       21.7370   22.6790   28.3230 C.3   150  ILE150      0.0019
    109  CG2       21.2440   21.1420   26.3510 C.3   150  ILE150      0.0020
    110  CD1       22.7660   21.7620   29.0280 C.3   150  ILE150      0.0001
    111  N         18.2330   22.2060   25.1410 N.am  151  GLY151     -0.1942
    112  CA        17.1290   21.5220   24.4740 C.3   151  GLY151      0.2014
    113  C         17.5040   20.1260   23.9630 C.2   151  GLY151      0.2639
    114  O         16.9830   19.6640   22.9510 O.2   151  GLY151     -0.2714
    115  N         18.3920   19.4570   24.6770 N.am  152  ILE152     -0.1963
    116  CA        18.8830   18.1470   24.2670 C.3   152  ILE152      0.1727
    117  C         17.7740   17.0980   24.4040 C.2   152  ILE152      0.2616
    118  O         16.9470   17.1760   25.2780 O.2   152  ILE152     -0.2715
    119  CB        20.1030   17.7550   25.1220 C.3   152  ILE152      0.0290
    120  CG1       20.7910   16.4860   24.5940 C.3   152  ILE152      0.0022
    121  CG2       19.6930   17.6140   26.5700 C.3   152  ILE152      0.0023
    122  CD1       22.2540   16.3440   25.1060 C.3   152  ILE152      0.0001
    123  N         17.7300   16.1320   23.5010 N.am  153  ARG153     -0.1977
    124  CA        16.9310   14.9470   23.7940 C.3   153  ARG153      0.1597
    125  C         17.5310   13.7270   23.1070 C.2   153  ARG153      0.2287
    126  O         18.6100   13.8050   22.5680 O.2   153  ARG153     -0.2864
    127  CB        15.4380   15.1230   23.4730 C.3   153  ARG153      0.0334
    128  CG        15.1220   15.8850   22.2340 C.3   153  ARG153      0.0492
    129  CD        13.8730   15.3780   21.5200 C.3   153  ARG153      0.2205
    130  NE        14.0550   15.8410   20.1890 N.pl3 153  ARG153     -0.0865
    131  CZ        14.1360   15.1240   19.0770 C.cat 153  ARG153      0.5346
    132  NH1       13.8780   13.8150   18.9740 N.pl3 153  ARG153      0.1354
    133  NH2       14.4170   15.8090   18.0180 N.pl3 153  ARG153      0.1354
    134  N         18.1510   11.3850   20.2900 N.3   155  THR155     -0.1218
    135  CA        17.9970   11.4100   18.8430 C.3   155  THR155      0.1862
    136  C         18.7850   10.2980   18.1760 C.2   155  THR155      0.2287
    137  O         18.9880   10.3200   16.9660 O.2   155  THR155     -0.2866
    138  CB        18.3900   12.7800   18.2660 C.3   155  THR155      0.1770
    139  OG1       19.7960   13.0040   18.4500 O.3   155  THR155     -0.2211
    140  CG2       17.6110   13.8550   18.9700 C.3   155  THR155      0.0375
    141  N         21.4280   10.8410   30.5350 N.3   162  LEU162     -0.1245
    142  CA        21.0840   12.2380   30.7380 C.3   162  LEU162      0.1561
    143  C         19.9550   12.2610   31.7560 C.2   162  LEU162      0.2260
    144  O         19.1260   11.3530   31.7870 O.2   162  LEU162     -0.2867
    145  CB        20.6590   12.8970   29.4030 C.3   162  LEU162      0.0270
    146  CG        21.7550   13.0800   28.3360 C.3   162  LEU162      0.0019
    147  CD1       21.1850   13.6230   27.0110 C.3   162  LEU162      0.0001
    148  CD2       22.8620   13.9820   28.8120 C.3   162  LEU162      0.0001
    149  N         27.2280   19.3140   35.2620 N.3   168  THR168     -0.1203
    150  CA        28.0950   19.0760   34.1080 C.3   168  THR168      0.1994
    151  C         29.1590   18.0900   34.5160 C.2   168  THR168      0.2617
    152  O         29.3630   17.8820   35.7010 O.2   168  THR168     -0.2717
    153  CB        28.7870   20.3310   33.6470 C.3   168  THR168      0.1784
    154  OG1       29.3850   20.9620   34.7910 O.3   168  THR168     -0.2211
    155  CG2       27.7720   21.2820   32.9490 C.3   168  THR168      0.0376
    156  N         29.8160   17.4740   33.5300 N.am  169  ASP169     -0.1973
    157  CA        30.9180   16.5440   33.7950 C.3   169  ASP169      0.1709
    158  C         32.1840   17.3660   34.0470 C.2   169  ASP169      0.2293
    159  O         32.1590   18.5990   33.9490 O.2   169  ASP169     -0.2864
    160  CB        31.1210   15.5460   32.6320 C.3   169  ASP169      0.1436
    161  CG        29.9060   14.6540   32.3930 C.2   169  ASP169      0.3671
    162  OD1       29.5600   13.8280   33.2610 O.co2 169  ASP169     -0.2456
    163  OD2       29.2980   14.7530   31.3150 O.co2 169  ASP169     -0.2456
    164  N         35.0230   17.5190   32.5240 N.3   171  ASN171     -0.1225
    165  CA        35.4430   18.1580   31.2850 C.3   171  ASN171      0.1785
    166  C         34.9420   19.6120   31.2000 C.2   171  ASN171      0.2597
    167  O         35.6300   20.5160   30.7310 O.2   171  ASN171     -0.2718
    168  CB        34.8580   17.3240   30.1360 C.3   171  ASN171      0.1169
    169  CG        35.1450   17.9040   28.7640 C.2   171  ASN171      0.2627
    170  OD1       35.8120   18.9310   28.6210 O.2   171  ASN171     -0.2716
    171  ND2       34.6430   17.2310   27.7340 N.am  171  ASN171     -0.0877
    172  N         33.7300   19.8320   31.6760 N.am  172  TRP172     -0.1976
    173  CA        33.0430   21.1070   31.4810 C.3   172  TRP172      0.1640
    174  C         33.1900   22.0250   32.6950 C.2   172  TRP172      0.2290
    175  O         33.5540   21.5840   33.7670 O.2   172  TRP172     -0.2864
    176  CB        31.5660   20.8280   31.2090 C.3   172  TRP172      0.0576
    177  CG        31.2900   20.4800   29.8100 C.ar  172  TRP172      0.0006
    178  CD1       31.6760   19.3450   29.1470 C.ar  172  TRP172      0.0946
    179  CD2       30.5640   21.2750   28.8590 C.ar  172  TRP172      0.0152
    180  NE1       31.2320   19.3860   27.8440 N.ar  172  TRP172     -0.2442
    181  CE2       30.5470   20.5570   27.6410 C.ar  172  TRP172      0.0810
    182  CE3       29.9180   22.5140   28.9230 C.ar  172  TRP172      0.0012
    183  CZ2       29.9150   21.0400   26.4970 C.ar  172  TRP172      0.0191
    184  CZ3       29.2870   23.0020   27.7750 C.ar  172  TRP172      0.0001
    185  CH2       29.2930   22.2620   26.5800 C.ar  172  TRP172      0.0015
    186  N         28.2870   24.0500   36.1560 N.3   175  PHE175     -0.1241
    187  CA        26.9640   24.6620   36.2900 C.3   175  PHE175      0.1605
    188  C         25.9550   23.5260   36.1910 C.2   175  PHE175      0.2264
    189  O         26.3300   22.3920   35.8950 O.2   175  PHE175     -0.2867
    190  CB        26.6800   25.7250   35.2140 C.3   175  PHE175      0.0534
    191  CG        26.8440   25.2410   33.7870 C.ar  175  PHE175     -0.0203
    192  CD1       25.8240   24.5760   33.1390 C.ar  175  PHE175     -0.0042
    193  CD2       28.0190   25.5020   33.0820 C.ar  175  PHE175     -0.0042
    194  CE1       25.9690   24.1340   31.8220 C.ar  175  PHE175     -0.0003
    195  CE2       28.1790   25.0750   31.7630 C.ar  175  PHE175     -0.0003
    196  CZ        27.1470   24.4040   31.1220 C.ar  175  PHE175     -0.0000
    197  N         23.0560   21.5260   34.4630 N.3   177  ARG177     -0.1245
    198  CA        22.3480   21.3290   33.2020 C.3   177  ARG177      0.1563
    199  C         20.8590   21.1130   33.4900 C.2   177  ARG177      0.2260
    200  O         20.4840   20.2760   34.3260 O.2   177  ARG177     -0.2867
    201  CB        22.9170   20.1210   32.4460 C.3   177  ARG177      0.0307
    202  CG        24.3720   20.2670   32.0870 C.3   177  ARG177      0.0489
    203  CD        24.8550   19.0550   31.2520 C.3   177  ARG177      0.2205
    204  NE        25.2520   17.9490   32.1170 N.pl3 177  ARG177     -0.0865
    205  CZ        25.6760   16.7670   31.6790 C.cat 177  ARG177      0.5346
    206  NH1       25.7630   16.5380   30.3750 N.pl3 177  ARG177      0.1354
    207  NH2       26.0340   15.8220   32.5460 N.pl3 177  ARG177      0.1354
    208  N         17.5700   20.0720   31.5120 N.3   179  GLN179     -0.1245
    209  CA        17.3390   19.3160   30.2760 C.3   179  GLN179      0.1566
    210  C         15.9100   18.7510   30.3150 C.2   179  GLN179      0.2260
    211  O         15.7050   17.5330   30.3690 O.2   179  GLN179     -0.2867
    212  CB        18.3890   18.1770   30.1930 C.3   179  GLN179      0.0367
    213  CG        19.8060   18.7310   30.0620 C.3   179  GLN179      0.0905
    214  CD        20.9150   17.6900   30.1540 C.2   179  GLN179      0.2608
    215  OE1       20.8870   16.7670   30.9880 O.2   179  GLN179     -0.2717
    216  NE2       21.9290   17.8790   29.3540 N.am  179  GLN179     -0.0878
    217  N         20.1210   20.3170   12.3410 N.3   211  ILE211     -0.1245
    218  CA        20.9840   21.3750   11.8220 C.3   211  ILE211      0.1561
    219  C         22.3060   21.4090   12.5780 C.2   211  ILE211      0.2260
    220  O         22.3360   21.5440   13.8030 O.2   211  ILE211     -0.2867
    221  CB        20.3120   22.7750   11.8730 C.3   211  ILE211      0.0252
    222  CG1       19.0190   22.7850   11.0510 C.3   211  ILE211      0.0019
    223  CG2       21.2680   23.8290   11.3320 C.3   211  ILE211      0.0019
    224  CD1       18.1560   24.0760   11.2530 C.3   211  ILE211      0.0001
    225  N         19.3870   12.1220   12.3820 N.3   281  ARG281     -0.1245
    226  CA        20.6860   12.7250   12.1550 C.3   281  ARG281      0.1563
    227  C         21.3470   12.1930   10.8740 C.2   281  ARG281      0.2260
    228  O         22.5480   12.3180   10.7100 O.2   281  ARG281     -0.2867
    229  CB        21.5910   12.4660   13.3640 C.3   281  ARG281      0.0307
    230  CG        21.1000   13.1580   14.6350 C.3   281  ARG281      0.0489
    231  CD        22.0740   12.9590   15.7640 C.3   281  ARG281      0.2205
    232  NE        23.3420   13.6130   15.4770 N.pl3 281  ARG281     -0.0865
    233  CZ        23.6740   14.8290   15.9030 C.cat 281  ARG281      0.5346
    234  NH1       22.8370   15.5310   16.6550 N.pl3 281  ARG281      0.1354
    235  NH2       24.8540   15.3380   15.5780 N.pl3 281  ARG281      0.1354
    236  N         23.7000   14.2950    8.9370 N.3   284  ARG284     -0.1245
    237  CA        24.8680   14.7580    9.6900 C.3   284  ARG284      0.1563
    238  C         26.1280   13.8720    9.5220 C.2   284  ARG284      0.2260
    239  O         26.0640   12.7800    8.9590 O.2   284  ARG284     -0.2867
    240  CB        24.5200   14.8250   11.1760 C.3   284  ARG284      0.0307
    241  CG        23.2600   15.6100   11.4910 C.3   284  ARG284      0.0489
    242  CD        23.5450   17.0840   11.4330 C.3   284  ARG284      0.2205
    243  NE        24.6160   17.4590   12.3540 N.pl3 284  ARG284     -0.0865
    244  CZ        24.4230   17.9290   13.5820 C.cat 284  ARG284      0.5346
    245  NH1       23.1990   18.0890   14.0460 N.pl3 284  ARG284      0.1354
    246  NH2       25.4570   18.2460   14.3510 N.pl3 284  ARG284      0.1354
@<TRIPOS>BOND
     1   236   237    1
     2   239   238    2
     3   238   237    1
     4   237   240    1
     5   228   227    2
     6   227   226    1
     7   222   224    1
     8   222   221    1
     9   240   241    1
    10   223   221    1
    11   242   241    1
    12   242   243    1
    13   218   221    1
    14   218   217    1
    15   218   219    1
    16   226   225    1
    17   226   229    1
    18   243   244    2
    19   219   220    2
    20    70    69    2
    21   229   230    1
    22    69    68    1
    23   244   245    1
    24   244   246    1
    25   230   231    1
    26    68    71    1
    27    68    67    1
    28    71    72    1
    29   232   231    1
    30   232   233    2
    31   235   233    1
    32   233   234    1
    33    22    21    2
    34    58    57   ar
    35    58    56   ar
    36    74    73    2
    37    72    73    1
    38    57    55   ar
    39    73    75   am
    40   137   136    2
    41    56    54   ar
    42    21    20    1
    43    55    53   ar
    44   133   131    1
    45    18    17    1
    46   136   135    1
    47   138   139    1
    48   138   135    1
    49   138   140    1
    50    62    61    2
    51    27    28    1
    52    26    24   am
    53    23    24    1
    54    23    20    1
    55    24    25    2
    56    20    19    1
    57    33    32   ar
    58    54    53   ar
    59   135   134    1
    60   132   131    1
    61    61    60    1
    62    53    52    1
    63   131   130    2
    64    17    16   ar
    65    17    15   ar
    66    32    34   ar
    67    32    31    1
    68    16    14   ar
    69    28    31    1
    70    28    29    1
    71    19     9   am
    72    15    13   ar
    73   130   129    1
    74    40    39    1
    75    14    12   ar
    76    52    49    1
    77    60    59    1
    78    60    63    1
    79    35    29   am
    80    35    36    1
    81    65    63    1
    82    29    30    2
    83    10     9    2
    84     9     8    1
    85    59    50   am
    86    13    12   ar
    87    63    64    1
    88    51    50    2
    89    50    49    1
    90    12    11    1
    91    37    36    1
    92    37    38    2
    93    81    82    1
    94    81    80    1
    95    82    83    1
    96   129   128    1
    97    49    48    1
    98    36    39    1
    99     8    11    1
   100     8     7    1
   101   128   127    1
   102    76    77    1
   103   126   125    2
   104    64    66    1
   105    80    77    1
   106    48    43   am
   107   114   113    2
   108    77    78    1
   109   125   124    1
   110     7     3   am
   111   127   124    1
   112   123   124    1
   113   123   117   am
   114    44    43    2
   115    43    42    1
   116   113   112    1
   117   113   115   am
   118     4     3    2
   119   116   117    1
   120   116   115    1
   121   116   119    1
   122     3     2    1
   123   117   118    2
   124   112   111    1
   125    78    79    2
   126   120   122    1
   127   120   119    1
   128   119   121    1
   129   111   105   am
   130    42    41    1
   131    42    45    1
   132    92    94   ar
   133    92    90   ar
   134    47    45    1
   135     2     5    1
   136     2     1    1
   137     5     6    1
   138    94    93   ar
   139    90    89   ar
   140    45    46    1
   141   109   107    1
   142   105   104    1
   143   105   106    2
   144   183   185   ar
   145   183   181   ar
   146    84    85    1
   147   185   184   ar
   148   147   146    1
   149   104   107    1
   150   104   103    1
   151    93    91   ar
   152    89    91   ar
   153    89    88    1
   154   107   108    1
   155   181   180   ar
   156   181   179   ar
   157   171   169   am
   158   184   182   ar
   159    85    88    1
   160    85    86    1
   161   180   178   ar
   162   108   110    1
   163   146   148    1
   164   146   145    1
   165   170   169    2
   166   169   168    1
   167   179   182   ar
   168   179   177   ar
   169    86    87    2
   170   178   177   ar
   171   216   214   am
   172   145   142    1
   173   101    99    1
   174   177   176    1
   175   213   214    1
   176   213   212    1
   177   168   165    1
   178   214   215    2
   179   212   209    1
   180   209   210    1
   181   209   208    1
   182   210   211    2
   183   206   205    1
   184   141   142    1
   185   167   166    2
   186   102   100    1
   187   142   143    1
   188    99   100    1
   189    99    96    1
   190   196   195   ar
   191   196   194   ar
   192    97    98    2
   193    97    96    1
   194   166   165    1
   195   166   172   am
   196   176   173    1
   197   203   202    1
   198   203   204    1
   199   165   164    1
   200   163   161   ar
   201   173   172    1
   202   173   174    1
   203   205   204    2
   204   205   207    1
   205    96    95    1
   206   143   144    2
   207   195   193   ar
   208   194   192   ar
   209   202   201    1
   210   161   160    1
   211   161   162   ar
   212   201   198    1
   213   160   157    1
   214   174   175    2
   215   155   153    1
   216   193   191   ar
   217   192   191   ar
   218   198   199    1
   219   198   197    1
   220   199   200    2
   221   156   157    1
   222   156   151   am
   223   153   150    1
   224   153   154    1
   225   191   190    1
   226   157   158    1
   227   159   158    2
   228   150   151    1
   229   150   149    1
   230   151   152    2
   231   190   187    1
   232   189   188    2
   233   186   187    1
   234   188   187    1
