@<TRIPOS>MOLECULE
tmp/2wspB01.pdb
 139 135 0 0 0
SMALL
GASTEIGER

@<TRIPOS>ATOM
      1  N         36.5150   -2.4060   30.3000 N.3    46  LEU46      -0.1245
      2  CA        35.4180   -1.8800   31.1150 C.3    46  LEU46       0.1561
      3  C         35.7720   -1.9070   32.6060 C.2    46  LEU46       0.2260
      4  O         36.9430   -1.7900   32.9860 O.2    46  LEU46      -0.2867
      5  CB        34.1460   -2.7020   30.8670 C.3    46  LEU46       0.0270
      6  CG        32.8400   -2.2390   31.5260 C.3    46  LEU46       0.0019
      7  CD1       32.3720   -0.8980   30.9610 C.3    46  LEU46       0.0001
      8  CD2       31.7710   -3.3050   31.3500 C.3    46  LEU46       0.0001
      9  N         34.2910    6.1540   33.1370 N.3    49  MET49      -0.1245
     10  CA        33.0050    5.8540   32.4970 C.3    49  MET49       0.1570
     11  C         32.3020    7.0650   31.8660 C.2    49  MET49       0.2261
     12  O         31.4040    6.8920   31.0380 O.2    49  MET49      -0.2867
     13  CB        32.0620    5.1580   33.4900 C.3    49  MET49       0.0387
     14  CG        31.0580    4.2130   32.8340 C.3    49  MET49       0.0595
     15  SD        31.8280    2.7760   32.0440 S.3    49  MET49      -0.1393
     16  CE        30.3880    2.0050   31.2980 C.3    49  MET49       0.0692
     17  N         33.8320    7.1650   28.4350 N.3    52  TRP52      -0.1227
     18  CA        33.5290    5.8810   27.7780 C.3    52  TRP52       0.1737
     19  C         32.7380    6.0020   26.4740 C.2    52  TRP52       0.2595
     20  O         33.2300    5.6140   25.4230 O.2    52  TRP52      -0.2718
     21  CB        32.7790    4.9540   28.7430 C.3    52  TRP52       0.0564
     22  CG        32.3020    3.6700   28.1220 C.ar   52  TRP52       0.0003
     23  CD1       31.0940    3.4490   27.5300 C.ar   52  TRP52       0.0946
     24  CD2       33.0210    2.4350   28.0340 C.ar   52  TRP52       0.0152
     25  NE1       31.0150    2.1570   27.0760 N.ar   52  TRP52      -0.2442
     26  CE2       32.1840    1.5110   27.3740 C.ar   52  TRP52       0.0810
     27  CE3       34.2910    2.0200   28.4460 C.ar   52  TRP52       0.0012
     28  CZ2       32.5750    0.1980   27.1200 C.ar   52  TRP52       0.0191
     29  CZ3       34.6790    0.7140   28.1930 C.ar   52  TRP52       0.0001
     30  CH2       33.8210   -0.1830   27.5380 C.ar   52  TRP52       0.0015
     31  N         31.5200    6.5360   26.5460 N.am   53  PHE53      -0.1976
     32  CA        30.6340    6.6070   25.3740 C.3    53  PHE53       0.1639
     33  C         31.1320    7.5460   24.2680 C.2    53  PHE53       0.2290
     34  O         30.6940    7.4390   23.1240 O.2    53  PHE53      -0.2864
     35  CB        29.2120    7.0000   25.7910 C.3    53  PHE53       0.0560
     36  CG        28.5340    5.9710   26.6400 C.ar   53  PHE53      -0.0200
     37  CD1       28.0470    4.8030   26.0740 C.ar   53  PHE53      -0.0042
     38  CD2       28.4010    6.1550   28.0100 C.ar   53  PHE53      -0.0042
     39  CE1       27.4330    3.8380   26.8600 C.ar   53  PHE53      -0.0003
     40  CE2       27.7890    5.1950   28.7970 C.ar   53  PHE53      -0.0003
     41  CZ        27.3050    4.0350   28.2200 C.ar   53  PHE53      -0.0000
     42  N         33.9810    5.1370   22.6320 N.3    56  ASN56      -0.1240
     43  CA        33.4260    3.8130   22.8980 C.3    56  ASN56       0.1653
     44  C         34.2370    2.7080   22.2260 C.2    56  ASN56       0.2266
     45  O         34.3450    2.6880   21.0050 O.2    56  ASN56      -0.2867
     46  CB        31.9600    3.7520   22.4460 C.3    56  ASN56       0.1155
     47  CG        31.1830    2.6120   23.0980 C.2    56  ASN56       0.2627
     48  OD1       31.7470    1.5980   23.5090 O.2    56  ASN56      -0.2716
     49  ND2       29.8730    2.7810   23.1860 N.am   56  ASN56      -0.0877
     50  N         33.4500   -0.4660   22.1410 N.3    58  TYR58      -0.1241
     51  CA        32.5420   -1.4560   21.5660 C.3    58  TYR58       0.1605
     52  C         32.1320   -1.0220   20.1630 C.2    58  TYR58       0.2264
     53  O         31.4930    0.0200   19.9810 O.2    58  TYR58      -0.2867
     54  CB        31.3070   -1.6230   22.4570 C.3    58  TYR58       0.0534
     55  CG        31.5650   -2.2620   23.8150 C.ar   58  TYR58      -0.0201
     56  CD1       30.5100   -2.5020   24.6940 C.ar   58  TYR58      -0.0009
     57  CD2       32.8500   -2.6370   24.2190 C.ar   58  TYR58      -0.0009
     58  CE1       30.7280   -3.0780   25.9380 C.ar   58  TYR58       0.0417
     59  CE2       33.0740   -3.2160   25.4600 C.ar   58  TYR58       0.0417
     60  CZ        32.0150   -3.4330   26.3160 C.ar   58  TYR58       0.1957
     61  OH        32.2510   -4.0130   27.5440 O.3    58  TYR58      -0.2866
     62  N         28.3600   -0.4130   19.1490 N.3    61  TRP61      -0.1241
     63  CA        27.7850    0.8740   19.5120 C.3    61  TRP61       0.1605
     64  C         28.0310    1.9470   18.4540 C.2    61  TRP61       0.2264
     65  O         27.8420    3.1320   18.7220 O.2    61  TRP61      -0.2867
     66  CB        28.3330    1.3250   20.8740 C.3    61  TRP61       0.0550
     67  CG        27.6380    0.6730   22.0210 C.ar   61  TRP61       0.0003
     68  CD1       27.6900   -0.6390   22.3670 C.ar   61  TRP61       0.0946
     69  CD2       26.7650    1.3060   22.9630 C.ar   61  TRP61       0.0152
     70  NE1       26.9070   -0.8690   23.4660 N.ar   61  TRP61      -0.2442
     71  CE2       26.3250    0.3100   23.8540 C.ar   61  TRP61       0.0810
     72  CE3       26.3120    2.6210   23.1400 C.ar   61  TRP61       0.0012
     73  CZ2       25.4570    0.5870   24.9230 C.ar   61  TRP61       0.0191
     74  CZ3       25.4470    2.8950   24.2010 C.ar   61  TRP61       0.0001
     75  CH2       25.0320    1.8810   25.0760 C.ar   61  TRP61       0.0015
     76  N         21.2530   -3.3600   20.0010 N.3   123  HIS123     -0.1241
     77  CA        20.7020   -2.0460   20.3400 C.3   123  HIS123      0.1621
     78  C         20.2310   -1.2510   19.1290 C.2   123  HIS123      0.2264
     79  O         19.3170   -0.4480   19.2510 O.2   123  HIS123     -0.2867
     80  CB        21.7070   -1.2180   21.1470 C.3   123  HIS123      0.0745
     81  CG        22.2330   -1.9220   22.3610 C.ar  123  HIS123      0.0817
     82  ND1       21.4790   -2.8180   23.0900 N.ar  123  HIS123     -0.2268
     83  CD2       23.4340   -1.8500   22.9830 C.ar  123  HIS123      0.1154
     84  CE1       22.2010   -3.2830   24.0930 C.ar  123  HIS123      0.1986
     85  NE2       23.3910   -2.7130   24.0520 N.ar  123  HIS123     -0.2212
     86  N         26.3430    7.4040   31.3790 N.3   182  PRO182     -0.2116
     87  CA        25.5520    6.3120   31.9600 C.3   182  PRO182      0.1372
     88  C         24.1660    6.7440   32.4510 C.2   182  PRO182      0.2244
     89  O         23.2150    5.9720   32.3630 O.2   182  PRO182     -0.2868
     90  CB        26.4140    5.8420   33.1400 C.3   182  PRO182      0.0268
     91  CG        27.7910    6.2210   32.7740 C.3   182  PRO182      0.0207
     92  CD        27.6830    7.4930   31.9900 C.3   182  PRO182      0.0892
     93  N         20.9510    6.4760   30.2150 N.3   185  LEU185     -0.1245
     94  CA        20.2350    5.1960   30.1530 C.3   185  LEU185      0.1561
     95  C         18.9850    5.1190   31.0280 C.2   185  LEU185      0.2260
     96  O         18.1280    4.2560   30.8070 O.2   185  LEU185     -0.2867
     97  CB        21.1650    4.0470   30.5310 C.3   185  LEU185      0.0270
     98  CG        22.3170    3.7840   29.5640 C.3   185  LEU185      0.0019
     99  CD1       23.3090    2.8110   30.1870 C.3   185  LEU185      0.0001
    100  CD2       21.7930    3.2530   28.2310 C.3   185  LEU185      0.0001
    101  N         20.4910   -5.3060   28.6220 N.3   219  MET219     -0.1245
    102  CA        20.1040   -3.9590   29.0610 C.3   219  MET219      0.1570
    103  C         18.7310   -3.8360   29.7240 C.2   219  MET219      0.2261
    104  O         18.1200   -2.7620   29.7050 O.2   219  MET219     -0.2867
    105  CB        20.2240   -2.9730   27.8940 C.3   219  MET219      0.0387
    106  CG        21.6420   -2.8460   27.3460 C.3   219  MET219      0.0595
    107  SD        22.7780   -2.1160   28.5410 S.3   219  MET219     -0.1393
    108  CE        22.0470   -0.4930   28.7510 C.3   219  MET219      0.0692
    109  N         19.1830  -10.2370   33.1500 N.3   248  ARG248     -0.1245
    110  CA        19.1280   -8.8440   32.7210 C.3   248  ARG248      0.1563
    111  C         17.7600   -8.5050   32.1650 C.2   248  ARG248      0.2260
    112  O         17.6420   -7.9140   31.0910 O.2   248  ARG248     -0.2867
    113  CB        20.2060   -8.5740   31.6920 C.3   248  ARG248      0.0307
    114  CG        21.5770   -8.9200   32.2000 C.3   248  ARG248      0.0489
    115  CD        22.6400   -8.3360   31.3150 C.3   248  ARG248      0.2205
    116  NE        23.9570   -8.8440   31.6700 N.pl3 248  ARG248     -0.0865
    117  CZ        25.0980   -8.4380   31.1200 C.cat 248  ARG248      0.5346
    118  NH1       25.1080   -7.4990   30.1700 N.pl3 248  ARG248      0.1354
    119  NH2       26.2390   -8.9810   31.5250 N.pl3 248  ARG248      0.1354
    120  N         30.0550   -8.9540   33.7110 N.3   260  GLU260     -0.1245
    121  CA        30.8960   -8.4460   32.6200 C.3   260  GLU260      0.1567
    122  C         32.1700   -7.7830   33.1570 C.2   260  GLU260      0.2260
    123  O         32.9870   -7.2810   32.3800 O.2   260  GLU260     -0.2867
    124  CB        30.1140   -7.5250   31.6620 C.3   260  GLU260      0.0388
    125  CG        28.7400   -7.0330   32.1540 C.3   260  GLU260      0.1160
    126  CD        28.8110   -5.7900   33.0290 C.2   260  GLU260      0.3649
    127  OE1       28.2960   -5.8290   34.1750 O.co2 260  GLU260     -0.2457
    128  OE2       29.3770   -4.7750   32.5670 O.co2 260  GLU260     -0.2457
    129  N         32.9490   -6.2380   21.3730 N.3   277  PHE277     -0.1241
    130  CA        32.1350   -7.4170   21.0900 C.3   277  PHE277      0.1605
    131  C         31.9500   -7.5430   19.5790 C.2   277  PHE277      0.2264
    132  O         32.1750   -8.6050   18.9980 O.2   277  PHE277     -0.2867
    133  CB        30.7940   -7.3570   21.8280 C.3   277  PHE277      0.0534
    134  CG        30.9120   -7.6090   23.3040 C.ar  277  PHE277     -0.0203
    135  CD1       31.1770   -6.5680   24.1840 C.ar  277  PHE277     -0.0042
    136  CD2       30.7820   -8.8920   23.8100 C.ar  277  PHE277     -0.0042
    137  CE1       31.2980   -6.8040   25.5440 C.ar  277  PHE277     -0.0003
    138  CE2       30.9040   -9.1320   25.1730 C.ar  277  PHE277     -0.0003
    139  CZ        31.1610   -8.0870   26.0390 C.ar  277  PHE277     -0.0000
@<TRIPOS>BOND
     1    64    65    2
     2    64    63    1
     3   132   131    2
     4    78    79    2
     5    78    77    1
     6    62    63    1
     7    63    66    1
     8   131   130    1
     9    53    52    2
    10    76    77    1
    11    52    51    1
    12    77    80    1
    13    66    67    1
    14    45    44    2
    15   130   129    1
    16   130   133    1
    17    80    81    1
    18    51    50    1
    19    51    54    1
    20   133   134    1
    21    67    68   ar
    22    67    69   ar
    23    44    43    1
    24    81    83   ar
    25    81    82   ar
    26    68    70   ar
    27    46    43    1
    28    46    47    1
    29    54    55    1
    30    42    43    1
    31    69    72   ar
    32    69    71   ar
    33    83    85   ar
    34    82    84   ar
    35    47    49   am
    36    47    48    2
    37    34    33    2
    38    72    74   ar
    39   134   136   ar
    40   134   135   ar
    41    70    71   ar
    42   136   138   ar
    43    55    57   ar
    44    55    56   ar
    45    71    73   ar
    46    85    84   ar
    47   135   137   ar
    48    74    75   ar
    49    57    59   ar
    50    33    32    1
    51    56    58   ar
    52    73    75   ar
    53   138   139   ar
    54    32    35    1
    55    32    31    1
    56    20    19    2
    57    59    60   ar
    58   137   139   ar
    59    35    36    1
    60    58    60   ar
    61    37    36   ar
    62    37    39   ar
    63    60    61    1
    64    19    31   am
    65    19    18    1
    66    36    38   ar
    67    39    41   ar
    68    25    26   ar
    69    25    23   ar
    70    28    26   ar
    71    28    30   ar
    72   106   105    1
    73   106   107    1
    74    26    24   ar
    75    23    22   ar
    76    30    29   ar
    77    18    17    1
    78    18    21    1
    79   105   102    1
    80    38    40   ar
    81    24    22   ar
    82    24    27   ar
    83    22    21    1
    84    29    27   ar
    85    41    40   ar
    86   100    98    1
    87   107   108    1
    88   101   102    1
    89   102   103    1
    90    98    99    1
    91    98    97    1
    92   104   103    2
    93    94    93    1
    94    94    97    1
    95    94    95    1
    96   118   117    1
    97     1     2    1
    98    96    95    2
    99     5     2    1
   100     5     6    1
   101     7     6    1
   102    12    11    2
   103   112   111    2
   104     2     3    1
   105   117   119    1
   106   117   116    2
   107    16    15    1
   108   115   116    1
   109   115   114    1
   110     8     6    1
   111    86    87    1
   112    86    92    1
   113   124   125    1
   114   124   121    1
   115   113   114    1
   116   113   110    1
   117    11    10    1
   118    87    88    1
   119    87    90    1
   120    92    91    1
   121    15    14    1
   122   125   126    1
   123   111   110    1
   124    89    88    2
   125   123   122    2
   126    10     9    1
   127    10    13    1
   128   128   126   ar
   129     3     4    2
   130   121   122    1
   131   121   120    1
   132   110   109    1
   133    91    90    1
   134    14    13    1
   135   126   127   ar
