@<TRIPOS>MOLECULE
tmp/2wssA00.pdb
 133 130 0 0 0
SMALL
GASTEIGER

@<TRIPOS>ATOM
      1  N          0.9590   79.6340   27.5850 N.3   171  ARG171     -0.1231
      2  CA         2.2570   80.2810   27.7140 C.3   171  ARG171      0.1694
      3  C          3.2810   79.5600   26.8430 C.2   171  ARG171      0.2592
      4  O          3.0930   78.3940   26.5210 O.2   171  ARG171     -0.2718
      5  CB         2.7060   80.2330   29.1680 C.3   171  ARG171      0.0321
      6  CG         2.9640   78.8240   29.6430 C.3   171  ARG171      0.0489
      7  CD         3.2640   78.6930   31.1370 C.3   171  ARG171      0.2205
      8  NE         2.9930   77.3250   31.5730 N.pl3 171  ARG171     -0.0865
      9  CZ         3.8400   76.3090   31.4300 C.cat 171  ARG171      0.5346
     10  NH1        5.0510   76.4810   30.8930 N.pl3 171  ARG171      0.1354
     11  NH2        3.4720   75.1120   31.8370 N.pl3 171  ARG171      0.1354
     12  N          4.3570   80.2510   26.4670 N.am  172  GLN172     -0.1966
     13  CA         5.5050   79.6320   25.8050 C.3   172  GLN172      0.1733
     14  C          5.0750   78.8980   24.5490 C.2   172  GLN172      0.2617
     15  O          5.3630   77.7150   24.3810 O.2   172  GLN172     -0.2715
     16  CB         6.2420   78.6530   26.7500 C.3   172  GLN172      0.0408
     17  CG         6.7280   79.2010   28.1230 C.3   172  GLN172      0.0908
     18  CD         8.0090   80.0420   28.0200 C.2   172  GLN172      0.2608
     19  OE1        8.5870   80.2010   26.9270 O.2   172  GLN172     -0.2717
     20  NE2        8.4620   80.5800   29.1640 N.am  172  GLN172     -0.0878
     21  N          4.3690   79.5880   23.6670 N.am  173  THR173     -0.1937
     22  CA         3.9560   78.9690   22.4060 C.3   173  THR173      0.2028
     23  C          4.2150   79.8340   21.1880 C.2   173  THR173      0.2643
     24  O          3.9730   79.4270   20.0580 O.2   173  THR173     -0.2714
     25  CB         2.4800   78.5890   22.4130 C.3   173  THR173      0.1808
     26  OG1        1.7030   79.7050   22.8440 O.3   173  THR173     -0.2208
     27  CG2        2.2530   77.4290   23.3410 C.3   173  THR173      0.0379
     28  N          4.6960   81.0390   21.4320 N.am  174  GLY174     -0.1939
     29  CA         5.1680   81.8820   20.3620 C.3   174  GLY174      0.2014
     30  C          4.2290   83.0140   20.0780 C.2   174  GLY174      0.2639
     31  O          4.2240   83.5570   18.9730 O.2   174  GLY174     -0.2714
     32  N          3.4190   83.3560   21.0670 N.am  175  LYS175     -0.1963
     33  CA         2.4850   84.4480   20.9110 C.3   175  LYS175      0.1728
     34  C          3.2430   85.7360   20.6340 C.2   175  LYS175      0.2617
     35  O          2.8870   86.4860   19.7420 O.2   175  LYS175     -0.2715
     36  CB         1.6540   84.6300   22.1760 C.3   175  LYS175      0.0311
     37  CG         0.8050   83.4450   22.6000 C.3   175  LYS175      0.0038
     38  CD        -0.1880   83.8490   23.6860 C.3   175  LYS175      0.0206
     39  CE         0.5090   84.3060   24.9440 C.3   175  LYS175      0.1093
     40  NZ         1.0330   83.1610   25.7030 N.3   175  LYS175     -0.1314
     41  N          4.2910   85.9920   21.4090 N.am  176  THR176     -0.1937
     42  CA         5.0360   87.2350   21.2810 C.3   176  THR176      0.2028
     43  C          5.8340   87.2570   19.9950 C.2   176  THR176      0.2642
     44  O          5.8330   88.2590   19.3050 O.2   176  THR176     -0.2714
     45  CB         5.9450   87.5400   22.4880 C.3   176  THR176      0.1808
     46  OG1        5.1610   87.6710   23.6800 O.3   176  THR176     -0.2208
     47  CG2        6.6320   88.8360   22.2780 C.3   176  THR176      0.0379
     48  N          6.4820   86.1560   19.6330 N.am  177  SER177     -0.1949
     49  CA         7.1600   86.0840   18.3250 C.3   177  SER177      0.1924
     50  C          6.2780   86.4890   17.1490 C.2   177  SER177      0.2314
     51  O          6.6770   87.2980   16.3180 O.2   177  SER177     -0.2863
     52  CB         7.7080   84.6930   18.0600 C.3   177  SER177      0.2116
     53  OG         8.6170   84.3540   19.0740 O.3   177  SER177     -0.2180
     54  N          0.9160   93.3390   24.4410 N.3   269  ASP269     -0.1239
     55  CA         1.4920   92.1200   25.0140 C.3   269  ASP269      0.1674
     56  C          1.7840   92.4870   26.4710 C.2   269  ASP269      0.2266
     57  O          2.9060   92.8770   26.8060 O.2   269  ASP269     -0.2867
     58  CB         2.7970   91.8000   24.2740 C.3   269  ASP269      0.1410
     59  CG         3.3830   90.4550   24.6420 C.2   269  ASP269      0.3668
     60  OD1        2.7740   89.7620   25.4660 O.co2 269  ASP269     -0.2456
     61  OD2        4.4590   90.0960   24.1110 O.co2 269  ASP269     -0.2456
     62  N         -2.9700   85.4550   27.3920 N.3   328  GLU328     -0.1245
     63  CA        -2.4490   84.1780   27.8600 C.3   328  GLU328      0.1567
     64  C         -3.6020   83.3460   28.4030 C.2   328  GLU328      0.2260
     65  O         -4.3730   83.8290   29.2310 O.2   328  GLU328     -0.2867
     66  CB        -1.4030   84.4050   28.9430 C.3   328  GLU328      0.0388
     67  CG        -0.7850   83.1410   29.5170 C.3   328  GLU328      0.1160
     68  CD         0.5240   83.3980   30.2790 C.2   328  GLU328      0.3649
     69  OE1        1.5380   83.7830   29.6390 O.co2 328  GLU328     -0.2457
     70  OE2        0.5410   83.1910   31.5170 O.co2 328  GLU328     -0.2457
     71  N          3.6230   72.8570   18.5300 N.3   357  PHE357     -0.1241
     72  CA         4.9950   73.3180   18.6770 C.3   357  PHE357      0.1605
     73  C          6.0320   72.1880   18.6280 C.2   357  PHE357      0.2264
     74  O          7.0430   72.2970   17.9430 O.2   357  PHE357     -0.2867
     75  CB         5.1560   74.1450   19.9610 C.3   357  PHE357      0.0534
     76  CG         6.4620   74.8610   20.0400 C.ar  357  PHE357     -0.0203
     77  CD1        6.5380   76.2140   19.8000 C.ar  357  PHE357     -0.0042
     78  CD2        7.6250   74.1760   20.3180 C.ar  357  PHE357     -0.0042
     79  CE1        7.7550   76.8700   19.8520 C.ar  357  PHE357     -0.0003
     80  CE2        8.8390   74.8260   20.3790 C.ar  357  PHE357     -0.0003
     81  CZ         8.9030   76.1700   20.1440 C.ar  357  PHE357     -0.0000
     82  N          6.1140   74.8200   13.7650 N.3   362  ARG362     -0.1231
     83  CA         6.5370   76.1190   14.2720 C.3   362  ARG362      0.1679
     84  C          6.6300   77.0100   13.0530 C.2   362  ARG362      0.2434
     85  O          7.2830   76.6350   12.0760 O.2   362  ARG362     -0.2733
     86  CB         7.9040   76.0410   14.9660 C.3   362  ARG362      0.0321
     87  CG         7.9460   75.0850   16.1610 C.3   362  ARG362      0.0489
     88  CD         9.2710   75.0940   16.9260 C.3   362  ARG362      0.2205
     89  NE        10.3550   74.4580   16.1800 N.pl3 362  ARG362     -0.0865
     90  CZ        10.6970   73.1790   16.2870 C.cat 362  ARG362      0.5346
     91  NH1       10.0380   72.3830   17.1170 N.pl3 362  ARG362      0.1354
     92  NH2       11.6970   72.6970   15.5610 N.pl3 362  ARG362      0.1354
     93  N          5.9540   78.1740   13.0760 N.am  363  PRO363     -0.2729
     94  CA         5.1380   78.6400   14.1890 C.3   363  PRO363      0.1401
     95  C          4.0560   77.6180   14.4500 C.2   363  PRO363      0.2269
     96  O          3.6410   76.9010   13.5290 O.2   363  PRO363     -0.2865
     97  CB         4.4940   79.8980   13.6240 C.3   363  PRO363      0.0296
     98  CG         4.3590   79.5860   12.1890 C.3   363  PRO363      0.0237
     99  CD         5.6860   78.9700   11.8680 C.3   363  PRO363      0.0939
    100  N          7.9880   77.7450    9.3540 N.3   430  GLN430     -0.1231
    101  CA         8.7710   78.9530    9.0660 C.3   430  GLN430      0.1698
    102  C          9.7150   79.2160   10.2170 C.2   430  GLN430      0.2593
    103  O          9.3910   78.9590   11.3660 O.2   430  GLN430     -0.2718
    104  CB         7.8370   80.1550    8.8610 C.3   430  GLN430      0.0381
    105  CG         8.4150   81.3770    8.1540 C.3   430  GLN430      0.0905
    106  CD         7.3280   82.3560    7.7000 C.2   430  GLN430      0.2608
    107  OE1        7.6250   83.5190    7.4020 O.2   430  GLN430     -0.2717
    108  NE2        6.0630   81.8870    7.6450 N.am  430  GLN430     -0.0878
    109  N         10.8990   79.7220    9.9200 N.am  431  GLY431     -0.1942
    110  CA        11.8720   79.9550   10.9720 C.3   431  GLY431      0.2014
    111  C         11.6080   81.2480   11.7010 C.2   431  GLY431      0.2639
    112  O         10.8090   82.0790   11.2670 O.2   431  GLY431     -0.2714
    113  N         12.2950   81.4460   12.8080 N.am  432  GLN432     -0.1963
    114  CA        12.0310   82.6420   13.5830 C.3   432  GLN432      0.1733
    115  C         12.7260   83.8850   13.0270 C.2   432  GLN432      0.2616
    116  O         13.8030   83.8050   12.4390 O.2   432  GLN432     -0.2715
    117  CB        12.3980   82.4180   15.0370 C.3   432  GLN432      0.0408
    118  CG        11.6290   83.3040   15.9870 C.3   432  GLN432      0.0908
    119  CD        11.9820   83.0240   17.4260 C.2   432  GLN432      0.2608
    120  OE1       11.4500   83.6580   18.3310 O.2   432  GLN432     -0.2717
    121  NE2       12.8980   82.0740   17.6490 N.am  432  GLN432     -0.0878
    122  N         12.0900   85.0340   13.2090 N.am  433  TYR433     -0.1974
    123  CA        12.6540   86.2980   12.7730 C.3   433  TYR433      0.1639
    124  C         12.9700   86.3110   11.2810 C.2   433  TYR433      0.2290
    125  O         13.9220   86.9740   10.8710 O.2   433  TYR433     -0.2864
    126  CB        13.9440   86.6250   13.5330 C.3   433  TYR433      0.0560
    127  CG        13.9370   86.3580   15.0200 C.ar  433  TYR433     -0.0198
    128  CD1       14.7500   85.3840   15.5700 C.ar  433  TYR433     -0.0009
    129  CD2       13.1410   87.0930   15.8740 C.ar  433  TYR433     -0.0009
    130  CE1       14.7560   85.1400   16.9300 C.ar  433  TYR433      0.0417
    131  CE2       13.1370   86.8560   17.2380 C.ar  433  TYR433      0.0417
    132  CZ        13.9490   85.8790   17.7600 C.ar  433  TYR433      0.1957
    133  OH        13.9600   85.6320   19.1160 O.3   433  TYR433     -0.2866
@<TRIPOS>BOND
     1   107   106    2
     2   108   106   am
     3   106   105    1
     4   105   104    1
     5   104   101    1
     6   101   100    1
     7   101   102    1
     8   109   102   am
     9   109   110    1
    10   102   103    2
    11   125   124    2
    12   110   111    1
    13   112   111    2
    14   124   123    1
    15   111   113   am
    16    99    98    1
    17    99    93    1
    18    85    84    2
    19    98    97    1
    20   116   115    2
    21   123   122    1
    22   123   126    1
    23   113   114    1
    24   115   122   am
    25   115   114    1
    26    84    93   am
    27    84    83    1
    28    93    94    1
    29    96    95    2
    30   126   127    1
    31   114   117    1
    32    97    94    1
    33    82    83    1
    34    94    95    1
    35    83    86    1
    36    86    87    1
    37   127   128   ar
    38   127   129   ar
    39   117   118    1
    40    92    90    1
    41   128   130   ar
    42   129   131   ar
    43   118   119    1
    44    87    88    1
    45    89    90    2
    46    89    88    1
    47    90    91    1
    48    51    50    2
    49   130   132   ar
    50    50    49    1
    51   131   132   ar
    52   119   121   am
    53   119   120    2
    54   132   133    1
    55    74    73    2
    56    52    49    1
    57    52    53    1
    58    49    48    1
    59    71    72    1
    60    73    72    1
    61    72    75    1
    62    31    30    2
    63    44    43    2
    64    48    43   am
    65    35    34    2
    66    77    79   ar
    67    77    76   ar
    68    79    81   ar
    69    75    76    1
    70    43    42    1
    71    76    78   ar
    72    24    23    2
    73    30    29    1
    74    30    32   am
    75    81    80   ar
    76    78    80   ar
    77    29    28    1
    78    34    33    1
    79    34    41   am
    80    33    32    1
    81    33    36    1
    82    23    28   am
    83    23    22    1
    84    42    41    1
    85    42    45    1
    86    36    37    1
    87    47    45    1
    88    22    25    1
    89    22    21    1
    90    25    26    1
    91    25    27    1
    92    45    46    1
    93    37    38    1
    94    21    14   am
    95    38    39    1
    96    61    59   ar
    97    58    59    1
    98    58    55    1
    99    15    14    2
   100    54    55    1
   101    14    13    1
   102    59    60   ar
   103    39    40    1
   104    55    56    1
   105    13    12    1
   106    13    16    1
   107    12     3   am
   108    56    57    2
   109     4     3    2
   110    16    17    1
   111     3     2    1
   112    19    18    2
   113    62    63    1
   114     1     2    1
   115     2     5    1
   116    63    64    1
   117    63    66    1
   118    18    17    1
   119    18    20   am
   120    64    65    2
   121    66    67    1
   122     5     6    1
   123    67    68    1
   124    69    68   ar
   125     6     7    1
   126    68    70   ar
   127    10     9    1
   128     7     8    1
   129     9     8    2
   130     9    11    1
