@<TRIPOS>MOLECULE
tmp/2wswA01.pdb
 104 99 0 0 0
SMALL
GASTEIGER

@<TRIPOS>ATOM
      1  N         36.9420   25.3110   11.9320 N.3   103  SER103     -0.1217
      2  CA        36.3170   26.5390   11.4600 C.3   103  SER103      0.1889
      3  C         36.7970   26.9310   10.0680 C.2   103  SER103      0.2288
      4  O         36.2500   27.8470    9.4630 O.2   103  SER103     -0.2866
      5  CB        36.6260   27.6850   12.4260 C.3   103  SER103      0.2089
      6  OG        38.0250   27.9310   12.4810 O.3   103  SER103     -0.2183
      7  N         28.6130   42.3610   22.5680 N.3   174  ILE174     -0.1245
      8  CA        27.9690   41.8300   21.3700 C.3   174  ILE174      0.1561
      9  C         28.3460   42.7020   20.1880 C.2   174  ILE174      0.2260
     10  O         28.8330   42.2070   19.1710 O.2   174  ILE174     -0.2867
     11  CB        26.4340   41.8030   21.4740 C.3   174  ILE174      0.0252
     12  CG1       25.9830   41.1140   22.7650 C.3   174  ILE174      0.0019
     13  CG2       25.8430   41.1000   20.2570 C.3   174  ILE174      0.0019
     14  CD1       24.4980   41.2460   23.0210 C.3   174  ILE174      0.0001
     15  N         29.0160   48.7060   10.9020 N.3   201  TYR201     -0.1241
     16  CA        29.4610   47.3410   11.0890 C.3   201  TYR201      0.1605
     17  C         28.4170   46.3520   10.5910 C.2   201  TYR201      0.2264
     18  O         28.7320   45.4150    9.8630 O.2   201  TYR201     -0.2867
     19  CB        29.7660   47.0720   12.5660 C.3   201  TYR201      0.0534
     20  CG        30.2660   45.6700   12.8230 C.ar  201  TYR201     -0.0201
     21  CD1       29.4660   44.7310   13.4540 C.ar  201  TYR201     -0.0009
     22  CD2       31.5370   45.2780   12.4030 C.ar  201  TYR201     -0.0009
     23  CE1       29.9240   43.4440   13.6840 C.ar  201  TYR201      0.0417
     24  CE2       32.0000   43.9930   12.6240 C.ar  201  TYR201      0.0417
     25  CZ        31.1910   43.0830   13.2600 C.ar  201  TYR201      0.1957
     26  OH        31.6530   41.8090   13.4770 O.3   201  TYR201     -0.2866
     27  N         35.9320   40.1870    8.1650 N.3   332  TYR332     -0.1241
     28  CA        35.6230   39.0940    9.0960 C.3   332  TYR332      0.1605
     29  C         36.4320   39.0700   10.3830 C.2   332  TYR332      0.2264
     30  O         36.3000   38.1380   11.1780 O.2   332  TYR332     -0.2867
     31  CB        35.7430   37.7460    8.3980 C.3   332  TYR332      0.0534
     32  CG        34.6160   37.4740    7.4320 C.ar  332  TYR332     -0.0201
     33  CD1       33.3010   37.4180    7.8760 C.ar  332  TYR332     -0.0009
     34  CD2       34.8640   37.2700    6.0790 C.ar  332  TYR332     -0.0009
     35  CE1       32.2620   37.1640    7.0040 C.ar  332  TYR332      0.0417
     36  CE2       33.8280   37.0140    5.1920 C.ar  332  TYR332      0.0417
     37  CZ        32.5300   36.9650    5.6630 C.ar  332  TYR332      0.1957
     38  OH        31.4980   36.7140    4.7990 O.3   332  TYR332     -0.2866
     39  N         34.3470   39.2750   13.8700 N.3   335  GLN335     -0.1231
     40  CA        33.5600   38.0590   14.0110 C.3   335  GLN335      0.1698
     41  C         34.4150   36.8420   14.3550 C.2   335  GLN335      0.2592
     42  O         34.1330   36.1270   15.3130 O.2   335  GLN335     -0.2718
     43  CB        32.7600   37.8140   12.7390 C.3   335  GLN335      0.0381
     44  CG        32.0700   39.0740   12.2150 C.3   335  GLN335      0.0905
     45  CD        32.9320   39.8860   11.2390 C.2   335  GLN335      0.2608
     46  OE1       32.8310   39.7050   10.0280 O.2   335  GLN335     -0.2717
     47  NE2       33.7730   40.7740   11.7610 N.am  335  GLN335     -0.0878
     48  N         35.4620   36.6140   13.5710 N.am  336  MET336     -0.1979
     49  CA        36.3680   35.5010   13.8050 C.3   336  MET336      0.1605
     50  C         37.1050   35.6240   15.1390 C.2   336  MET336      0.2287
     51  O         37.2960   34.6340   15.8560 O.2   336  MET336     -0.2864
     52  CB        37.3850   35.4190   12.6620 C.3   336  MET336      0.0413
     53  CG        38.2550   34.1800   12.7220 C.3   336  MET336      0.0598
     54  SD        37.3070   32.6480   12.5180 S.3   336  MET336     -0.1393
     55  CE        38.5330   31.4430   13.0070 C.3   336  MET336      0.0692
     56  N         36.1230   37.0870   17.8680 N.3   338  ILE338     -0.1231
     57  CA        35.2220   36.8190   18.9870 C.3   338  ILE338      0.1692
     58  C         35.1580   35.3090   19.1910 C.2   338  ILE338      0.2592
     59  O         35.2810   34.8180   20.3080 O.2   338  ILE338     -0.2718
     60  CB        33.8100   37.3740   18.7270 C.3   338  ILE338      0.0266
     61  CG1       33.7540   38.8580   19.0730 C.3   338  ILE338      0.0019
     62  CG2       32.7700   36.6010   19.5230 C.3   338  ILE338      0.0020
     63  CD1       32.5250   39.5570   18.5140 C.3   338  ILE338      0.0001
     64  N         35.0030   34.5750   18.0940 N.am  339  PHE339     -0.1976
     65  CA        34.9360   33.1200   18.1700 C.3   339  PHE339      0.1639
     66  C         36.2360   32.4980   18.6960 C.2   339  PHE339      0.2290
     67  O         36.2050   31.5330   19.4480 O.2   339  PHE339     -0.2864
     68  CB        34.5760   32.5120   16.8070 C.3   339  PHE339      0.0560
     69  CG        34.9340   31.0640   16.6950 C.ar  339  PHE339     -0.0200
     70  CD1       36.1240   30.6730   16.1010 C.ar  339  PHE339     -0.0042
     71  CD2       34.1010   30.0910   17.2170 C.ar  339  PHE339     -0.0042
     72  CE1       36.4650   29.3430   16.0260 C.ar  339  PHE339     -0.0003
     73  CE2       34.4350   28.7550   17.1340 C.ar  339  PHE339     -0.0003
     74  CZ        35.6160   28.3810   16.5460 C.ar  339  PHE339     -0.0000
     75  N         24.3290   30.2820   11.7440 N.3   430  ALA430     -0.1245
     76  CA        25.2320   31.1550   12.4890 C.3   430  ALA430      0.1562
     77  C         25.0410   32.6190   12.1070 C.2   430  ALA430      0.2260
     78  O         25.0540   33.5010   12.9680 O.2   430  ALA430     -0.2867
     79  CB        26.6820   30.7300   12.2870 C.3   430  ALA430      0.0290
     80  N         21.7820   34.0460   13.5490 N.3   433  TYR433     -0.1227
     81  CA        22.0200   34.2100   14.9790 C.3   433  TYR433      0.1736
     82  C         22.7390   35.5190   15.3110 C.2   433  TYR433      0.2596
     83  O         22.2880   36.2890   16.1610 O.2   433  TYR433     -0.2718
     84  CB        22.8180   33.0260   15.5340 C.3   433  TYR433      0.0548
     85  CG        23.1990   33.1970   16.9860 C.ar  433  TYR433     -0.0200
     86  CD1       22.4100   32.6660   18.0040 C.ar  433  TYR433     -0.0009
     87  CD2       24.3430   33.9060   17.3430 C.ar  433  TYR433     -0.0009
     88  CE1       22.7590   32.8320   19.3430 C.ar  433  TYR433      0.0417
     89  CE2       24.6980   34.0780   18.6710 C.ar  433  TYR433      0.0417
     90  CZ        23.9060   33.5400   19.6670 C.ar  433  TYR433      0.1957
     91  OH        24.2720   33.7170   20.9810 O.3   433  TYR433     -0.2866
     92  N         23.8610   35.7620   14.6450 N.am  434  THR434     -0.1953
     93  CA        24.6790   36.9400   14.9200 C.3   434  THR434      0.1897
     94  C         23.9170   38.2340   14.6530 C.2   434  THR434      0.2313
     95  O         23.9790   39.1710   15.4440 O.2   434  THR434     -0.2863
     96  CB        25.9660   36.9420   14.0560 C.3   434  THR434      0.1794
     97  OG1       26.7320   35.7650   14.3300 O.3   434  THR434     -0.2208
     98  CG2       26.8030   38.1740   14.3380 C.3   434  THR434      0.0378
     99  N         22.6570   41.0450   17.4510 N.3   438  SER438     -0.1217
    100  CA        23.2790   42.3600   17.3440 C.3   438  SER438      0.1889
    101  C         22.2710   43.4830   17.1660 C.2   438  SER438      0.2288
    102  O         22.6020   44.6580   17.3310 O.2   438  SER438     -0.2866
    103  CB        24.2770   42.3820   16.1870 C.3   438  SER438      0.2089
    104  OG        25.2690   41.3900   16.3720 O.3   438  SER438     -0.2183
@<TRIPOS>BOND
     1    38    37    1
     2    36    37   ar
     3    36    34   ar
     4    37    35   ar
     5    34    32   ar
     6    35    33   ar
     7    32    33   ar
     8    32    31    1
     9    27    28    1
    10    31    28    1
    11    28    29    1
    12     4     3    2
    13    18    17    2
    14    46    45    2
    15     3     2    1
    16    29    30    2
    17    17    16    1
    18    15    16    1
    19    16    19    1
    20    45    47   am
    21    45    44    1
    22     2     1    1
    23     2     5    1
    24    75    76    1
    25    77    76    1
    26    77    78    2
    27    44    43    1
    28    79    76    1
    29    22    24   ar
    30    22    20   ar
    31     5     6    1
    32    54    53    1
    33    54    55    1
    34    19    20    1
    35    24    25   ar
    36    52    53    1
    37    52    49    1
    38    43    40    1
    39    20    21   ar
    40    25    26    1
    41    25    23   ar
    42    21    23   ar
    43    80    81    1
    44    48    49    1
    45    48    41   am
    46    49    50    1
    47    39    40    1
    48    40    41    1
    49    96    97    1
    50    96    98    1
    51    96    93    1
    52    41    42    2
    53    92    93    1
    54    92    82   am
    55    94    93    1
    56    94    95    2
    57    81    82    1
    58    81    84    1
    59    50    51    2
    60    82    83    2
    61    84    85    1
    62    72    70   ar
    63    72    74   ar
    64    70    69   ar
    65   103   104    1
    66   103   100    1
    67    74    73   ar
    68    69    68    1
    69    69    71   ar
    70    68    65    1
    71    85    87   ar
    72    85    86   ar
    73    73    71   ar
    74   101   102    2
    75   101   100    1
    76    87    89   ar
    77   100    99    1
    78    56    57    1
    79    86    88   ar
    80    64    65    1
    81    64    58   am
    82    65    66    1
    83    63    61    1
    84    89    90   ar
    85    66    67    2
    86    60    57    1
    87    60    61    1
    88    60    62    1
    89    57    58    1
    90    10     9    2
    91    58    59    2
    92    88    90   ar
    93    90    91    1
    94     9     8    1
    95    13    11    1
    96     8    11    1
    97     8     7    1
    98    11    12    1
    99    12    14    1
