@<TRIPOS>MOLECULE
tmp/2wsxB00.pdb
 144 145 0 0 0
SMALL
GASTEIGER

@<TRIPOS>ATOM
      1  N         37.5580   33.9040   -9.8070 N.3    92  CYS92      -0.1235
      2  CA        37.5370   33.0390  -10.9880 C.3    92  CYS92       0.1677
      3  C         37.3980   33.7460  -12.3360 C.2    92  CYS92       0.2270
      4  O         37.8800   33.2400  -13.3460 O.2    92  CYS92      -0.2867
      5  CB        36.4430   31.9750  -10.8580 C.3    92  CYS92       0.0956
      6  SG        36.8520   30.5710   -9.7860 S.3    92  CYS92      -0.0801
      7  N         38.3770   35.5630  -15.1640 N.3    94  SER94      -0.1217
      8  CA        39.4170   36.1640  -15.9970 C.3    94  SER94       0.1889
      9  C         38.9130   36.4790  -17.4050 C.2    94  SER94       0.2288
     10  O         37.8090   36.0900  -17.8110 O.2    94  SER94      -0.2866
     11  CB        40.6550   35.2640  -16.1020 C.3    94  SER94       0.2089
     12  OG        41.4600   35.6450  -17.2150 O.3    94  SER94      -0.2183
     13  N         40.4440   35.4090  -20.1290 N.3    96  ALA96      -0.1231
     14  CA        40.7060   34.1880  -20.8870 C.3    96  ALA96       0.1694
     15  C         39.6630   33.1200  -20.6610 C.2    96  ALA96       0.2591
     16  O         39.5130   32.1950  -21.4580 O.2    96  ALA96      -0.2718
     17  CB        42.0820   33.6410  -20.5180 C.3    96  ALA96       0.0304
     18  N         38.9660   33.2370  -19.5470 N.am   97  VAL97      -0.1980
     19  CA        37.9810   32.2540  -19.1780 C.3    97  VAL97       0.1595
     20  C         36.7240   32.5400  -19.9780 C.2    97  VAL97       0.2287
     21  O         35.9760   31.6330  -20.3450 O.2    97  VAL97      -0.2864
     22  CB        37.6970   32.3270  -17.6820 C.3    97  VAL97       0.0276
     23  CG1       36.3690   33.0230  -17.4200 C.3    97  VAL97       0.0022
     24  CG2       37.7640   30.9450  -17.0720 C.3    97  VAL97       0.0022
     25  N         37.4140   30.4930  -23.4300 N.3   100  TRP100     -0.1241
     26  CA        37.1010   29.0750  -23.3790 C.3   100  TRP100      0.1605
     27  C         35.6180   28.8220  -23.0580 C.2   100  TRP100      0.2264
     28  O         34.9360   28.0810  -23.7730 O.2   100  TRP100     -0.2867
     29  CB        37.9950   28.3650  -22.3680 C.3   100  TRP100      0.0550
     30  CG        39.4640   28.3990  -22.6790 C.ar  100  TRP100      0.0003
     31  CD1       40.4600   28.8090  -21.8520 C.ar  100  TRP100      0.0946
     32  CD2       40.1060   27.9960  -23.9000 C.ar  100  TRP100      0.0152
     33  NE1       41.6810   28.6870  -22.4700 N.ar  100  TRP100     -0.2442
     34  CE2       41.4910   28.1900  -23.7280 C.ar  100  TRP100      0.0810
     35  CE3       39.6420   27.4960  -25.1210 C.ar  100  TRP100      0.0012
     36  CZ2       42.4140   27.8950  -24.7270 C.ar  100  TRP100      0.0191
     37  CZ3       40.5660   27.2010  -26.1100 C.ar  100  TRP100      0.0001
     38  CH2       41.9280   27.4000  -25.9050 C.ar  100  TRP100      0.0015
     39  N         36.0910   22.0260  -15.5420 N.3   135  TRP135     -0.1241
     40  CA        36.0490   23.1460  -14.5980 C.3   135  TRP135      0.1605
     41  C         35.0670   22.8850  -13.4980 C.2   135  TRP135      0.2264
     42  O         34.3030   23.7930  -13.1350 O.2   135  TRP135     -0.2867
     43  CB        35.5670   24.3940  -15.2730 C.3   135  TRP135      0.0550
     44  CG        36.0960   24.4500  -16.5850 C.ar  135  TRP135      0.0003
     45  CD1       35.5650   23.8830  -17.7110 C.ar  135  TRP135      0.0946
     46  CD2       37.3290   25.0530  -16.9780 C.ar  135  TRP135      0.0152
     47  NE1       36.3850   24.1230  -18.7860 N.ar  135  TRP135     -0.2442
     48  CE2       37.4750   24.8370  -18.3560 C.ar  135  TRP135      0.0810
     49  CE3       38.3180   25.7660  -16.3000 C.ar  135  TRP135      0.0012
     50  CZ2       38.5630   25.3070  -19.0560 C.ar  135  TRP135      0.0191
     51  CZ3       39.3800   26.2210  -16.9940 C.ar  135  TRP135      0.0001
     52  CH2       39.5030   25.9980  -18.3540 C.ar  135  TRP135      0.0015
     53  N         39.2710   21.8160   -8.9400 N.3   140  TRP140     -0.1241
     54  CA        39.4670   22.6690   -7.7570 C.3   140  TRP140      0.1605
     55  C         40.0120   21.8700   -6.5640 C.2   140  TRP140      0.2264
     56  O         40.9350   22.3100   -5.8800 O.2   140  TRP140     -0.2867
     57  CB        38.1390   23.2840   -7.3710 C.3   140  TRP140      0.0550
     58  CG        37.7400   24.3600   -8.2710 C.ar  140  TRP140      0.0003
     59  CD1       36.5400   24.5110   -8.9230 C.ar  140  TRP140      0.0946
     60  CD2       38.5450   25.4750   -8.6470 C.ar  140  TRP140      0.0152
     61  NE1       36.5490   25.6720   -9.6790 N.ar  140  TRP140     -0.2442
     62  CE2       37.7660   26.2810   -9.5290 C.ar  140  TRP140      0.0810
     63  CE3       39.8450   25.8790   -8.3220 C.ar  140  TRP140      0.0012
     64  CZ2       38.2480   27.4590  -10.0850 C.ar  140  TRP140      0.0191
     65  CZ3       40.3160   27.0410   -8.8700 C.ar  140  TRP140      0.0001
     66  CH2       39.5220   27.8220   -9.7520 C.ar  140  TRP140      0.0015
     67  N         43.6280   21.4940   -5.7010 N.3   143  TYR143     -0.1241
     68  CA        44.2950   22.6690   -5.1460 C.3   143  TYR143      0.1605
     69  C         44.3420   22.6990   -3.6310 C.2   143  TYR143      0.2264
     70  O         45.3210   23.1440   -3.0250 O.2   143  TYR143     -0.2867
     71  CB        43.5940   23.9170   -5.6360 C.3   143  TYR143      0.0534
     72  CG        44.1120   24.3790   -6.9750 C.ar  143  TYR143     -0.0201
     73  CD1       44.9510   23.5560   -7.7570 C.ar  143  TYR143     -0.0009
     74  CD2       43.7590   25.6300   -7.4650 C.ar  143  TYR143     -0.0009
     75  CE1       45.4260   23.9740   -8.9750 C.ar  143  TYR143      0.0417
     76  CE2       44.2250   26.0610   -8.6960 C.ar  143  TYR143      0.0417
     77  CZ        45.0530   25.2360   -9.4530 C.ar  143  TYR143      0.1957
     78  OH        45.4750   25.7200  -10.6800 O.3   143  TYR143     -0.2866
     79  N         47.8290   33.8010  -21.5010 N.3   200  SER200     -0.1217
     80  CA        46.5470   34.2590  -20.9870 C.3   200  SER200      0.1889
     81  C         46.2340   35.6030  -21.6310 C.2   200  SER200      0.2288
     82  O         45.1120   35.8610  -22.0890 O.2   200  SER200     -0.2866
     83  CB        46.5970   34.3750  -19.4660 C.3   200  SER200      0.2089
     84  OG        47.7700   35.0520  -19.0680 O.3   200  SER200     -0.2183
     85  N         44.6010   21.2900  -20.7420 N.3   313  TYR313     -0.1241
     86  CA        44.0140   21.9360  -19.5470 C.3   313  TYR313      0.1605
     87  C         44.6930   21.4890  -18.2180 C.2   313  TYR313      0.2264
     88  O         45.2330   22.3230  -17.4960 O.2   313  TYR313     -0.2867
     89  CB        42.5150   21.7000  -19.4590 C.3   313  TYR313      0.0534
     90  CG        41.6620   22.5690  -20.3210 C.ar  313  TYR313     -0.0201
     91  CD1       40.3590   22.1820  -20.6280 C.ar  313  TYR313     -0.0009
     92  CD2       42.1290   23.7710  -20.8260 C.ar  313  TYR313     -0.0009
     93  CE1       39.5250   22.9770  -21.4240 C.ar  313  TYR313      0.0417
     94  CE2       41.2950   24.5840  -21.6410 C.ar  313  TYR313      0.0417
     95  CZ        40.0010   24.1720  -21.9300 C.ar  313  TYR313      0.1957
     96  OH        39.1830   24.9510  -22.7050 O.3   313  TYR313     -0.2866
     97  N         47.7210   23.4640  -17.6720 N.3   316  TRP316     -0.1227
     98  CA        47.5570   24.8640  -17.3180 C.3   316  TRP316      0.1737
     99  C         47.3270   24.9330  -15.8190 C.2   316  TRP316      0.2595
    100  O         47.9230   25.7430  -15.1220 O.2   316  TRP316     -0.2718
    101  CB        46.3630   25.4560  -18.0440 C.3   316  TRP316      0.0564
    102  CG        46.4450   26.9440  -18.3300 C.ar  316  TRP316      0.0003
    103  CD1       47.2210   27.8710  -17.6910 C.ar  316  TRP316      0.0946
    104  CD2       45.6970   27.6740  -19.3190 C.ar  316  TRP316      0.0152
    105  NE1       47.0170   29.1220  -18.2280 N.ar  316  TRP316     -0.2442
    106  CE2       46.0810   29.0340  -19.2210 C.ar  316  TRP316      0.0810
    107  CE3       44.7500   27.3080  -20.2850 C.ar  316  TRP316      0.0012
    108  CZ2       45.5420   30.0320  -20.0470 C.ar  316  TRP316      0.0191
    109  CZ3       44.2200   28.3040  -21.1200 C.ar  316  TRP316      0.0001
    110  CH2       44.6140   29.6480  -20.9870 C.ar  316  TRP316      0.0015
    111  N         46.4540   24.0610  -15.3310 N.am  317  TRP317     -0.1976
    112  CA        46.1330   23.9650  -13.9030 C.3   317  TRP317      0.1640
    113  C         47.3520   23.7250  -13.0270 C.2   317  TRP317      0.2290
    114  O         47.4060   24.1880  -11.8950 O.2   317  TRP317     -0.2864
    115  CB        45.1330   22.8300  -13.6170 C.3   317  TRP317      0.0576
    116  CG        43.7060   23.1220  -13.9440 C.ar  317  TRP317      0.0006
    117  CD1       43.1090   23.0050  -15.1640 C.ar  317  TRP317      0.0946
    118  CD2       42.6820   23.5630  -13.0380 C.ar  317  TRP317      0.0152
    119  NE1       41.7820   23.3570  -15.0820 N.ar  317  TRP317     -0.2442
    120  CE2       41.4950   23.7010  -13.7850 C.ar  317  TRP317      0.0810
    121  CE3       42.6530   23.8610  -11.6730 C.ar  317  TRP317      0.0012
    122  CZ2       40.2910   24.1120  -13.2060 C.ar  317  TRP317      0.0191
    123  CZ3       41.4590   24.2720  -11.1040 C.ar  317  TRP317      0.0001
    124  CH2       40.2980   24.3910  -11.8690 C.ar  317  TRP317      0.0015
    125  N         49.2430   27.5340  -12.6850 N.3   320  TYR320     -0.1241
    126  CA        48.5480   28.4020  -11.7390 C.3   320  TYR320      0.1605
    127  C         48.3090   27.7720  -10.3560 C.2   320  TYR320      0.2264
    128  O         47.8390   28.4430   -9.4380 O.2   320  TYR320     -0.2867
    129  CB        47.2100   28.8210  -12.3090 C.3   320  TYR320      0.0534
    130  CG        47.2970   29.7950  -13.4480 C.ar  320  TYR320     -0.0201
    131  CD1       46.8990   29.4240  -14.7100 C.ar  320  TYR320     -0.0009
    132  CD2       47.7460   31.0920  -13.2580 C.ar  320  TYR320     -0.0009
    133  CE1       46.9420   30.3060  -15.7560 C.ar  320  TYR320      0.0417
    134  CE2       47.7990   31.9850  -14.3060 C.ar  320  TYR320      0.0417
    135  CZ        47.3910   31.5780  -15.5550 C.ar  320  TYR320      0.1957
    136  OH        47.4210   32.4260  -16.6350 O.3   320  TYR320     -0.2866
    137  N         47.4600   30.2310   -6.8130 N.3   324  MET324     -0.1245
    138  CA        46.1440   30.2440   -6.1830 C.3   324  MET324      0.1570
    139  C         46.1910   29.7470   -4.7390 C.2   324  MET324      0.2261
    140  O         45.7750   30.4480   -3.8170 O.2   324  MET324     -0.2867
    141  CB        45.1540   29.4050   -6.9940 C.3   324  MET324      0.0387
    142  CG        43.6960   29.6550   -6.6440 C.3   324  MET324      0.0595
    143  SD        42.7440   30.2860   -8.0400 S.3   324  MET324     -0.1393
    144  CE        41.6870   31.4760   -7.2180 C.3   324  MET324      0.0692
@<TRIPOS>BOND
     1    37    38   ar
     2    37    35   ar
     3    38    36   ar
     4    35    32   ar
     5    36    34   ar
     6    32    34   ar
     7    32    30   ar
     8    28    27    2
     9    34    33   ar
    10    25    26    1
    11    26    27    1
    12    26    29    1
    13    96    95    1
    14    30    29    1
    15    30    31   ar
    16    33    31   ar
    17    82    81    2
    18    95    94   ar
    19    95    93   ar
    20    94    92   ar
    21    81    80    1
    22    79    80    1
    23    16    15    2
    24    93    91   ar
    25   109   110   ar
    26   109   107   ar
    27   110   108   ar
    28    80    83    1
    29    14    15    1
    30    14    17    1
    31    14    13    1
    32    92    90   ar
    33    85    86    1
    34    15    18   am
    35    91    90   ar
    36    21    20    2
    37    90    89    1
    38   107   104   ar
    39   108   106   ar
    40    20    19    1
    41    86    89    1
    42    86    87    1
    43    18    19    1
    44    83    84    1
    45   104   106   ar
    46   104   102   ar
    47   106   105   ar
    48    19    22    1
    49    50    48   ar
    50    50    52   ar
    51    47    48   ar
    52    47    45   ar
    53    48    46   ar
    54    52    51   ar
    55   102   101    1
    56   102   103   ar
    57   105   103   ar
    58    87    88    2
    59   101    98    1
    60    10     9    2
    61    45    44   ar
    62    22    23    1
    63    22    24    1
    64    97    98    1
    65     9     8    1
    66    98    99    1
    67    12    11    1
    68    51    49   ar
    69    46    44   ar
    70    46    49   ar
    71   136   135    1
    72    44    43    1
    73    11     8    1
    74     8     7    1
    75    99   111   am
    76    99   100    2
    77   133   135   ar
    78   133   131   ar
    79   135   134   ar
    80    39    40    1
    81   111   112    1
    82    43    40    1
    83   117   119   ar
    84   117   116   ar
    85   119   120   ar
    86   131   130   ar
    87    40    41    1
    88   134   132   ar
    89   116   115    1
    90   116   118   ar
    91   112   115    1
    92   112   113    1
    93   120   122   ar
    94   120   118   ar
    95    41    42    2
    96   130   132   ar
    97   130   129    1
    98     4     3    2
    99   122   124   ar
   100   118   121   ar
   101   113   114    2
   102   125   126    1
   103     3     2    1
   104   129   126    1
   105   124   123   ar
   106   126   127    1
   107   121   123   ar
   108     2     5    1
   109     2     1    1
   110     5     6    1
   111    78    77    1
   112   127   128    2
   113    64    66   ar
   114    64    62   ar
   115    66    65   ar
   116    61    62   ar
   117    61    59   ar
   118    62    60   ar
   119    77    75   ar
   120    77    76   ar
   121    75    73   ar
   122    53    54    1
   123    59    58   ar
   124    65    63   ar
   125    76    74   ar
   126    60    63   ar
   127    60    58   ar
   128    58    57    1
   129   143   144    1
   130   143   142    1
   131    73    72   ar
   132    54    57    1
   133    54    55    1
   134    74    72   ar
   135   141   142    1
   136   141   138    1
   137    72    71    1
   138   137   138    1
   139    55    56    2
   140   138   139    1
   141    67    68    1
   142    71    68    1
   143    68    69    1
   144   139   140    2
   145    69    70    2
