@<TRIPOS>MOLECULE
tmp/2wsxB01.pdb
 114 113 0 0 0
SMALL
GASTEIGER

@<TRIPOS>ATOM
      1  N         54.4710   19.8760  -28.6240 N.3    37  PHE37      -0.1241
      2  CA        53.1260   19.5690  -28.1850 C.3    37  PHE37       0.1605
      3  C         52.8510   18.0900  -28.3130 C.2    37  PHE37       0.2264
      4  O         52.5340   17.4220  -27.3270 O.2    37  PHE37      -0.2867
      5  CB        52.0900   20.3440  -28.9980 C.3    37  PHE37       0.0534
      6  CG        50.6770   19.8890  -28.7490 C.ar   37  PHE37      -0.0203
      7  CD1       49.9930   20.2840  -27.6030 C.ar   37  PHE37      -0.0042
      8  CD2       50.0360   19.0430  -29.6450 C.ar   37  PHE37      -0.0042
      9  CE1       48.6970   19.8590  -27.3660 C.ar   37  PHE37      -0.0003
     10  CE2       48.7280   18.6110  -29.3990 C.ar   37  PHE37      -0.0003
     11  CZ        48.0660   19.0230  -28.2620 C.ar   37  PHE37      -0.0000
     12  N         37.4140   30.4930  -23.4300 N.3   100  TRP100     -0.1241
     13  CA        37.1010   29.0750  -23.3790 C.3   100  TRP100      0.1605
     14  C         35.6180   28.8220  -23.0580 C.2   100  TRP100      0.2264
     15  O         34.9360   28.0810  -23.7730 O.2   100  TRP100     -0.2867
     16  CB        37.9950   28.3650  -22.3680 C.3   100  TRP100      0.0550
     17  CG        39.4640   28.3990  -22.6790 C.ar  100  TRP100      0.0003
     18  CD1       40.4600   28.8090  -21.8520 C.ar  100  TRP100      0.0946
     19  CD2       40.1060   27.9960  -23.9000 C.ar  100  TRP100      0.0152
     20  NE1       41.6810   28.6870  -22.4700 N.ar  100  TRP100     -0.2442
     21  CE2       41.4910   28.1900  -23.7280 C.ar  100  TRP100      0.0810
     22  CE3       39.6420   27.4960  -25.1210 C.ar  100  TRP100      0.0012
     23  CZ2       42.4140   27.8950  -24.7270 C.ar  100  TRP100      0.0191
     24  CZ3       40.5660   27.2010  -26.1100 C.ar  100  TRP100      0.0001
     25  CH2       41.9280   27.4000  -25.9050 C.ar  100  TRP100      0.0015
     26  N         33.6920   22.8110  -30.0210 N.3   107  TYR107     -0.1241
     27  CA        34.5920   21.7550  -30.4540 C.3   107  TYR107      0.1605
     28  C         34.1920   20.4200  -29.8800 C.2   107  TYR107      0.2264
     29  O         34.4120   19.3690  -30.4700 O.2   107  TYR107     -0.2867
     30  CB        36.0230   22.0560  -30.0230 C.3   107  TYR107      0.0534
     31  CG        36.6250   23.2870  -30.6670 C.ar  107  TYR107     -0.0201
     32  CD1       37.1640   23.2370  -31.9430 C.ar  107  TYR107     -0.0009
     33  CD2       36.6620   24.4910  -29.9880 C.ar  107  TYR107     -0.0009
     34  CE1       37.7040   24.3420  -32.5180 C.ar  107  TYR107      0.0417
     35  CE2       37.2040   25.6060  -30.5580 C.ar  107  TYR107      0.0417
     36  CZ        37.7240   25.5300  -31.8190 C.ar  107  TYR107      0.1957
     37  OH        38.2690   26.6660  -32.3750 O.3   107  TYR107     -0.2866
     38  N         34.1390   18.1370  -33.0180 N.3   111  THR111     -0.1218
     39  CA        34.8390   16.8710  -32.9280 C.3   111  THR111      0.1862
     40  C         34.7770   16.3500  -31.4940 C.2   111  THR111      0.2287
     41  O         35.5200   16.8080  -30.6220 O.2   111  THR111     -0.2866
     42  CB        36.2910   16.9730  -33.4630 C.3   111  THR111      0.1770
     43  OG1       37.1490   16.1190  -32.6900 O.3   111  THR111     -0.2211
     44  CG2       36.8000   18.4490  -33.4540 C.3   111  THR111      0.0375
     45  N         42.7800   12.9620  -31.0480 N.3   304  GLY304     -0.1210
     46  CA        43.5360   13.7660  -30.0970 C.3   304  GLY304      0.1956
     47  C         42.8420   14.2440  -28.8300 C.2   304  GLY304      0.2611
     48  O         43.4960   14.7520  -27.9200 O.2   304  GLY304     -0.2717
     49  N         41.5270   14.0600  -28.7670 N.am  305  PHE305     -0.1976
     50  CA        40.6710   14.7070  -27.7650 C.3   305  PHE305      0.1639
     51  C         41.2780   14.9050  -26.3750 C.2   305  PHE305      0.2290
     52  O         41.4040   16.0450  -25.9170 O.2   305  PHE305     -0.2864
     53  CB        39.3210   13.9940  -27.6520 C.3   305  PHE305      0.0560
     54  CG        38.2630   14.8360  -27.0180 C.ar  305  PHE305     -0.0200
     55  CD1       37.1600   15.2600  -27.7420 C.ar  305  PHE305     -0.0042
     56  CD2       38.3900   15.2430  -25.7140 C.ar  305  PHE305     -0.0042
     57  CE1       36.1870   16.0530  -27.1630 C.ar  305  PHE305     -0.0003
     58  CE2       37.4340   16.0380  -25.1310 C.ar  305  PHE305     -0.0003
     59  CZ        36.3300   16.4470  -25.8560 C.ar  305  PHE305     -0.0000
     60  N         44.5700   17.0010  -26.4660 N.3   308  GLY308     -0.1210
     61  CA        44.4580   18.3730  -26.9060 C.3   308  GLY308      0.1956
     62  C         43.6020   19.2030  -25.9820 C.2   308  GLY308      0.2611
     63  O         43.6810   20.4290  -25.9950 O.2   308  GLY308     -0.2717
     64  N         42.7780   18.5370  -25.1790 N.am  309  TRP309     -0.1976
     65  CA        41.9000   19.2500  -24.2570 C.3   309  TRP309      0.1640
     66  C         42.2620   19.0210  -22.7970 C.2   309  TRP309      0.2290
     67  O         42.6250   19.9450  -22.0820 O.2   309  TRP309     -0.2864
     68  CB        40.4650   18.8340  -24.4890 C.3   309  TRP309      0.0576
     69  CG        39.8210   19.5430  -25.6000 C.ar  309  TRP309      0.0006
     70  CD1       39.2090   18.9830  -26.6740 C.ar  309  TRP309      0.0946
     71  CD2       39.7060   20.9530  -25.7530 C.ar  309  TRP309      0.0152
     72  NE1       38.7050   19.9600  -27.4880 N.ar  309  TRP309     -0.2442
     73  CE2       38.9970   21.1810  -26.9430 C.ar  309  TRP309      0.0810
     74  CE3       40.1250   22.0460  -24.9940 C.ar  309  TRP309      0.0012
     75  CZ2       38.6950   22.4520  -27.3960 C.ar  309  TRP309      0.0191
     76  CZ3       39.8270   23.3110  -25.4500 C.ar  309  TRP309      0.0001
     77  CH2       39.1120   23.5010  -26.6390 C.ar  309  TRP309      0.0015
     78  N         46.1750   19.3260  -22.1360 N.3   312  PHE312     -0.1241
     79  CA        46.4270   20.7400  -22.2700 C.3   312  PHE312      0.1605
     80  C         45.8950   21.4510  -21.0540 C.2   312  PHE312      0.2264
     81  O         46.6660   22.1420  -20.3840 O.2   312  PHE312     -0.2867
     82  CB        45.8170   21.2760  -23.5680 C.3   312  PHE312      0.0534
     83  CG        45.5030   22.7540  -23.5740 C.ar  312  PHE312     -0.0203
     84  CD1       44.3320   23.2050  -24.1820 C.ar  312  PHE312     -0.0042
     85  CD2       46.3410   23.6890  -23.0120 C.ar  312  PHE312     -0.0042
     86  CE1       43.9980   24.5800  -24.2220 C.ar  312  PHE312     -0.0003
     87  CE2       46.0070   25.0640  -23.0350 C.ar  312  PHE312     -0.0003
     88  CZ        44.8430   25.5070  -23.6460 C.ar  312  PHE312     -0.0000
     89  N         46.0440   28.1670  -31.9950 N.3   462  LEU462     -0.1231
     90  CA        45.9730   27.8640  -30.5820 C.3   462  LEU462      0.1693
     91  C         47.1610   26.9850  -30.2100 C.2   462  LEU462      0.2591
     92  O         47.6150   27.0200  -29.0760 O.2   462  LEU462     -0.2718
     93  CB        44.6250   27.2020  -30.2100 C.3   462  LEU462      0.0284
     94  CG        43.3160   28.0050  -30.4140 C.3   462  LEU462      0.0019
     95  CD1       42.0580   27.1260  -30.4280 C.3   462  LEU462      0.0001
     96  CD2       43.1570   29.1200  -29.4040 C.3   462  LEU462      0.0001
     97  N         47.6760   26.2150  -31.1630 N.am  463  LYS463     -0.1980
     98  CA        48.8170   25.3340  -30.9000 C.3   463  LYS463      0.1596
     99  C         49.9910   25.9880  -30.1410 C.2   463  LYS463      0.2287
    100  O         50.6270   25.3320  -29.3050 O.2   463  LYS463     -0.2864
    101  CB        49.3250   24.7220  -32.2010 C.3   463  LYS463      0.0298
    102  CG        48.7440   23.3740  -32.5400 C.3   463  LYS463      0.0038
    103  CD        49.2300   22.2790  -31.5800 C.3   463  LYS463      0.0206
    104  CE        48.4860   20.9820  -31.8590 C.3   463  LYS463      0.1093
    105  NZ        46.9870   21.1800  -31.8800 N.3   463  LYS463     -0.1314
    106  N         48.6970   26.4600  -26.3840 N.3   466  GLN466     -0.1245
    107  CA        48.6960   25.2270  -25.6150 C.3   466  GLN466      0.1566
    108  C         50.0590   24.5660  -25.4440 C.2   466  GLN466      0.2260
    109  O         50.3080   23.9270  -24.4190 O.2   466  GLN466     -0.2867
    110  CB        47.6660   24.2240  -26.1470 C.3   466  GLN466      0.0367
    111  CG        47.7490   23.9470  -27.6350 C.3   466  GLN466      0.0905
    112  CD        46.5430   23.1910  -28.1390 C.2   466  GLN466      0.2608
    113  OE1       45.6110   23.7840  -28.7200 O.2   466  GLN466     -0.2717
    114  NE2       46.5370   21.8730  -27.9060 N.am  466  GLN466     -0.0878
@<TRIPOS>BOND
     1    42    44    1
     2    42    39    1
     3    42    43    1
     4    38    39    1
     5    39    40    1
     6   102   101    1
     7   102   103    1
     8    34    32   ar
     9    34    36   ar
    10    37    36    1
    11   101    98    1
    12    89    90    1
    13    32    31   ar
    14   105   104    1
    15   104   103    1
    16    36    35   ar
    17    40    41    2
    18    97    98    1
    19    97    91   am
    20    45    46    1
    21    98    99    1
    22    31    30    1
    23    31    33   ar
    24    90    91    1
    25    90    93    1
    26    35    33   ar
    27    29    28    2
    28    27    30    1
    29    27    26    1
    30    27    28    1
    31    95    94    1
    32    94    93    1
    33    94    96    1
    34    91    92    2
    35    99   100    2
    36    46    47    1
    37     8    10   ar
    38     8     6   ar
    39    10    11   ar
    40     5     6    1
    41     5     2    1
    42    47    49   am
    43    47    48    2
    44    49    50    1
    45     6     7   ar
    46   113   112    2
    47     1     2    1
    48     3     2    1
    49     3     4    2
    50    11     9   ar
    51   112   114   am
    52   112   111    1
    53    50    53    1
    54    50    51    1
    55    55    57   ar
    56    55    54   ar
    57    53    54    1
    58   111   110    1
    59     7     9   ar
    60    72    73   ar
    61    72    70   ar
    62    75    73   ar
    63    75    77   ar
    64    57    59   ar
    65    54    56   ar
    66    73    71   ar
    67    61    60    1
    68    61    62    1
    69    70    69   ar
    70    77    76   ar
    71   106   107    1
    72    51    52    2
    73   110   107    1
    74    24    25   ar
    75    24    22   ar
    76    63    62    2
    77    62    64   am
    78    25    23   ar
    79    59    58   ar
    80    71    69   ar
    81    71    74   ar
    82    56    58   ar
    83   107   108    1
    84    69    68    1
    85    76    74   ar
    86   108   109    2
    87    64    65    1
    88    22    19   ar
    89    23    21   ar
    90    68    65    1
    91    65    66    1
    92    86    84   ar
    93    86    88   ar
    94    84    83   ar
    95    19    21   ar
    96    19    17   ar
    97    15    14    2
    98    21    20   ar
    99    88    87   ar
   100    83    82    1
   101    83    85   ar
   102    82    79    1
   103    12    13    1
   104    13    14    1
   105    13    16    1
   106    87    85   ar
   107    66    67    2
   108    17    16    1
   109    17    18   ar
   110    20    18   ar
   111    79    78    1
   112    79    80    1
   113    80    81    2
