@<TRIPOS>MOLECULE
tmp/2wt9A00.pdb
 127 122 0 0 0
SMALL
GASTEIGER

@<TRIPOS>ATOM
      1  N         18.9900    2.3670   14.8190 N.3    12  ASP12      -0.1239
      2  CA        17.7100    3.0590   14.9750 C.3    12  ASP12       0.1674
      3  C         17.7620    4.4820   15.5760 C.2    12  ASP12       0.2266
      4  O         17.0090    4.8290   16.5290 O.2    12  ASP12      -0.2867
      5  CB        16.7980    2.1940   15.8160 C.3    12  ASP12       0.1410
      6  CG        16.5660    0.8240   15.2140 C.2    12  ASP12       0.3668
      7  OD1       17.0140    0.5390   14.0690 O.co2  12  ASP12      -0.2456
      8  OD2       15.9110   -0.0090   15.9180 O.co2  12  ASP12      -0.2456
      9  N         12.1960    7.0260   18.1550 N.3    17  PHE17      -0.1241
     10  CA        12.8130    6.6400   19.4310 C.3    17  PHE17       0.1605
     11  C         13.4350    7.8400   20.1090 C.2    17  PHE17       0.2264
     12  O         14.0360    7.6510   21.1580 O.2    17  PHE17      -0.2867
     13  CB        13.8950    5.5630   19.2160 C.3    17  PHE17       0.0534
     14  CG        13.3290    4.3050   18.5330 C.ar   17  PHE17      -0.0203
     15  CD1       12.3150    3.6280   19.1180 C.ar   17  PHE17      -0.0042
     16  CD2       13.8210    3.8570   17.3280 C.ar   17  PHE17      -0.0042
     17  CE1       11.7560    2.4950   18.5140 C.ar   17  PHE17      -0.0003
     18  CE2       13.2970    2.7270   16.7260 C.ar   17  PHE17      -0.0003
     19  CZ        12.2770    2.0330   17.3170 C.ar   17  PHE17      -0.0000
     20  N          7.6940    6.6160   20.2780 N.3    23  LEU23      -0.1245
     21  CA         8.2740    5.7550   21.3190 C.3    23  LEU23       0.1561
     22  C          9.5490    6.4200   21.8250 C.2    23  LEU23       0.2260
     23  O         10.5760    5.8340   21.7480 O.2    23  LEU23      -0.2867
     24  CB         8.6660    4.4270   20.7840 C.3    23  LEU23       0.0270
     25  CG         9.0780    3.2160   21.6600 C.3    23  LEU23       0.0019
     26  CD1        8.4680    3.1970   23.0440 C.3    23  LEU23       0.0001
     27  CD2        8.8470    1.8480   20.9100 C.3    23  LEU23       0.0001
     28  N         14.4350    0.6190   12.0520 N.3    50  ASP50      -0.1239
     29  CA        13.2120   -0.1020   12.4000 C.3    50  ASP50       0.1674
     30  C         12.1920    0.3390   11.3370 C.2    50  ASP50       0.2266
     31  O         12.0970    1.5110   11.0170 O.2    50  ASP50      -0.2867
     32  CB        12.7620    0.2730   13.8120 C.3    50  ASP50       0.1410
     33  CG        12.2650   -0.9190   14.6440 C.2    50  ASP50       0.3668
     34  OD1       12.6560   -2.0830   14.4230 O.co2  50  ASP50      -0.2456
     35  OD2       11.4970   -0.6630   15.5810 O.co2  50  ASP50      -0.2456
     36  N          8.4580   -0.9360   10.2540 N.3    52  HIS52      -0.1241
     37  CA         7.3460   -1.8010   10.5180 C.3    52  HIS52       0.1621
     38  C          6.1260   -1.5160    9.6120 C.2    52  HIS52       0.2264
     39  O          5.7300   -0.3680    9.3860 O.2    52  HIS52      -0.2867
     40  CB         6.9130   -1.4940   11.9420 C.3    52  HIS52       0.0745
     41  CG         7.8020   -2.0250   13.0280 C.ar   52  HIS52       0.0817
     42  ND1        8.4430   -3.2380   12.9730 N.ar   52  HIS52      -0.2268
     43  CD2        8.0940   -1.5160   14.2490 C.ar   52  HIS52       0.1154
     44  CE1        9.0760   -3.4590   14.1190 C.ar   52  HIS52       0.1986
     45  NE2        8.8390   -2.4440   14.9030 N.ar   52  HIS52      -0.2212
     46  N          4.2470   -2.5780   22.0360 N.3    82  TRP82      -0.1241
     47  CA         4.6390   -1.1780   21.9920 C.3    82  TRP82       0.1605
     48  C          3.5630   -0.2230   21.4250 C.2    82  TRP82       0.2264
     49  O          2.6570   -0.6620   20.6930 O.2    82  TRP82      -0.2867
     50  CB         5.8840   -1.0740   21.1260 C.3    82  TRP82       0.0550
     51  CG         7.0010   -1.9800   21.5200 C.ar   82  TRP82       0.0003
     52  CD1        7.2980   -3.1700   20.9530 C.ar   82  TRP82       0.0946
     53  CD2        8.0120   -1.7490   22.5380 C.ar   82  TRP82       0.0152
     54  NE1        8.3900   -3.7270   21.5790 N.ar   82  TRP82      -0.2442
     55  CE2        8.8590   -2.8690   22.5390 C.ar   82  TRP82       0.0810
     56  CE3        8.2510   -0.7320   23.4530 C.ar   82  TRP82       0.0012
     57  CZ2        9.9790   -2.9800   23.4180 C.ar   82  TRP82       0.0191
     58  CZ3        9.3540   -0.8390   24.3250 C.ar   82  TRP82       0.0001
     59  CH2       10.1790   -1.9670   24.3000 C.ar   82  TRP82       0.0015
     60  N          5.0470    2.6370   16.1340 N.3    85  HIS85      -0.1241
     61  CA         6.2540    3.4030   15.9120 C.3    85  HIS85       0.1621
     62  C          6.9230    2.9880   14.6160 C.2    85  HIS85       0.2264
     63  O          6.8410    1.8350   14.1930 O.2    85  HIS85      -0.2867
     64  CB         7.1640    3.1760   17.1110 C.3    85  HIS85       0.0745
     65  CG         7.6510    1.7640   17.2600 C.ar   85  HIS85       0.0817
     66  ND1        6.9530    0.7800   17.9360 N.ar   85  HIS85      -0.2268
     67  CD2        8.7590    1.1550   16.7590 C.ar   85  HIS85       0.1154
     68  CE1        7.6080   -0.3640   17.8450 C.ar   85  HIS85       0.1986
     69  NE2        8.7220   -0.1540   17.1500 N.ar   85  HIS85      -0.2212
     70  N          8.7250   -9.6480   14.9470 N.3   117  ASP117     -0.1239
     71  CA         9.6130   -8.4930   15.3100 C.3   117  ASP117      0.1674
     72  C         11.0920   -8.7490   15.0130 C.2   117  ASP117      0.2266
     73  O         11.5250   -9.8700   14.6990 O.2   117  ASP117     -0.2867
     74  CB         9.4360   -8.1170   16.7600 C.3   117  ASP117      0.1410
     75  CG         9.6830   -6.6310   17.0290 C.2   117  ASP117      0.3668
     76  OD1       10.1020   -5.8480   16.0990 O.co2 117  ASP117     -0.2456
     77  OD2        9.4380   -6.2260   18.1900 O.co2 117  ASP117     -0.2456
     78  N         14.1670   -6.7130   16.8150 N.3   119  TYR119     -0.1241
     79  CA        15.0640   -5.7510   17.5160 C.3   119  TYR119      0.1605
     80  C         16.4930   -5.8070   16.9250 C.2   119  TYR119      0.2264
     81  O         17.0880   -4.7820   16.6690 O.2   119  TYR119     -0.2867
     82  CB        15.1380   -6.0320   19.0130 C.3   119  TYR119      0.0534
     83  CG        13.8300   -5.9850   19.7850 C.ar  119  TYR119     -0.0201
     84  CD1       12.8350   -5.0740   19.4840 C.ar  119  TYR119     -0.0009
     85  CD2       13.5920   -6.9000   20.7950 C.ar  119  TYR119     -0.0009
     86  CE1       11.6380   -5.0840   20.1670 C.ar  119  TYR119      0.0417
     87  CE2       12.3930   -6.9080   21.4740 C.ar  119  TYR119      0.0417
     88  CZ        11.4290   -5.9950   21.1580 C.ar  119  TYR119      0.1957
     89  OH        10.2420   -5.9880   21.8500 O.3   119  TYR119     -0.2866
     90  N         19.8870    3.1400   19.7420 N.3   150  ILE150     -0.1231
     91  CA        18.7910    3.2490   20.6160 C.3   150  ILE150      0.1692
     92  C         17.9480    1.9960   20.3380 C.2   150  ILE150      0.2591
     93  O         17.8710    1.6360   19.1650 O.2   150  ILE150     -0.2718
     94  CB        17.8700    4.4440   20.2510 C.3   150  ILE150      0.0266
     95  CG1       18.6710    5.7850   20.2230 C.3   150  ILE150      0.0019
     96  CG2       16.6980    4.5290   21.2190 C.3   150  ILE150      0.0020
     97  CD1       17.9250    6.9680   19.6050 C.3   150  ILE150      0.0001
     98  N         17.4180    1.3180   21.3280 N.am  151  ALA151     -0.1980
     99  CA        17.6340    1.4390   22.7260 C.3   151  ALA151      0.1597
    100  C         18.7060    0.4430   23.1560 C.2   151  ALA151      0.2287
    101  O         18.8040   -0.7190   22.6420 O.2   151  ALA151     -0.2864
    102  CB        16.3120    1.1780   23.5270 C.3   151  ALA151      0.0319
    103  N         17.3770   -2.9880   24.0260 N.3   154  PHE154     -0.1227
    104  CA        16.5840   -3.7250   23.0480 C.3   154  PHE154      0.1736
    105  C         17.3400   -3.9040   21.7260 C.2   154  PHE154      0.2595
    106  O         18.0490   -4.8650   21.6010 O.2   154  PHE154     -0.2718
    107  CB        15.1890   -3.1310   22.9520 C.3   154  PHE154      0.0547
    108  CG        14.3720   -3.3890   24.1880 C.ar  154  PHE154     -0.0202
    109  CD1       13.5640   -4.5170   24.3020 C.ar  154  PHE154     -0.0042
    110  CD2       14.4530   -2.5420   25.2660 C.ar  154  PHE154     -0.0042
    111  CE1       12.8700   -4.7720   25.4890 C.ar  154  PHE154     -0.0003
    112  CE2       13.7370   -2.7690   26.4630 C.ar  154  PHE154     -0.0003
    113  CZ        12.9380   -3.8890   26.5590 C.ar  154  PHE154     -0.0000
    114  N         17.2280   -2.9950   20.7740 N.am  155  CYS155     -0.1970
    115  CA        17.8080   -3.1680   19.4940 C.3   155  CYS155      0.1712
    116  C         19.3450   -3.1250   19.6170 C.2   155  CYS155      0.2296
    117  O         19.9970   -3.9280   18.9540 O.2   155  CYS155     -0.2864
    118  CB        17.3100   -2.1110   18.5310 C.3   155  CYS155      0.0983
    119  SG        15.4590   -2.3220   18.3270 S.3   155  CYS155     -0.0798
    120  N         15.8470    2.2970   27.5710 N.3   180  ILE180     -0.1245
    121  CA        14.4540    2.4540   27.9960 C.3   180  ILE180      0.1561
    122  C         14.2050    1.9770   29.4460 C.2   180  ILE180      0.2260
    123  O         13.4570    2.5990   30.2010 O.2   180  ILE180     -0.2867
    124  CB        13.5370    1.6500   27.0610 C.3   180  ILE180      0.0252
    125  CG1       13.7670    2.0380   25.6000 C.3   180  ILE180      0.0019
    126  CG2       12.0450    1.8910   27.4100 C.3   180  ILE180      0.0019
    127  CD1       12.9090    1.1970   24.6080 C.3   180  ILE180      0.0001
@<TRIPOS>BOND
     1    39    38    2
     2    38    37    1
     3    36    37    1
     4    37    40    1
     5    31    30    2
     6    30    29    1
     7    40    41    1
     8    28    29    1
     9    29    32    1
    10    42    41   ar
    11    42    44   ar
    12    41    43   ar
    13    32    33    1
    14     7     6   ar
    15    44    45   ar
    16    63    62    2
    17    43    45   ar
    18    34    33   ar
    19    62    61    1
    20    33    35   ar
    21    73    72    2
    22     1     2    1
    23    70    71    1
    24     2     3    1
    25     2     5    1
    26    72    71    1
    27     6     5    1
    28     6     8   ar
    29    71    74    1
    30     3     4    2
    31    61    60    1
    32    61    64    1
    33    76    75   ar
    34    81    80    2
    35    18    19   ar
    36    18    16   ar
    37    67    69   ar
    38    67    65   ar
    39    74    75    1
    40    78    79    1
    41    80    79    1
    42    75    77   ar
    43    64    65    1
    44    69    68   ar
    45    65    66   ar
    46    19    17   ar
    47    16    14   ar
    48    79    82    1
    49    68    66   ar
    50     9    10    1
    51   119   118    1
    52    17    15   ar
    53   118   115    1
    54    14    15   ar
    55    14    13    1
    56   117   116    2
    57    82    83    1
    58    93    92    2
    59    13    10    1
    60    10    11    1
    61    84    83   ar
    62    84    86   ar
    63   115   116    1
    64   115   114    1
    65    97    95    1
    66    90    91    1
    67    83    85   ar
    68    11    12    2
    69    86    88   ar
    70    95    94    1
    71    94    91    1
    72    94    96    1
    73    20    21    1
    74    92    91    1
    75    92    98   am
    76    49    48    2
    77   114   105   am
    78    24    21    1
    79    24    25    1
    80    85    87   ar
    81    27    25    1
    82    52    51   ar
    83    52    54   ar
    84    50    51    1
    85    50    47    1
    86    88    87   ar
    87    88    89    1
    88    21    22    1
    89    98    99    1
    90    48    47    1
    91    51    53   ar
    92    54    55   ar
    93   106   105    2
    94    25    26    1
    95   105   104    1
    96    23    22    2
    97    47    46    1
    98    53    55   ar
    99    53    56   ar
   100    55    57   ar
   101   101   100    2
   102    99   100    1
   103    99   102    1
   104   107   104    1
   105   107   108    1
   106   104   103    1
   107    57    59   ar
   108    56    58   ar
   109   108   109   ar
   110   108   110   ar
   111    59    58   ar
   112   109   111   ar
   113   127   125    1
   114   110   112   ar
   115   111   113   ar
   116   125   124    1
   117   112   113   ar
   118   124   126    1
   119   124   121    1
   120   120   121    1
   121   121   122    1
   122   122   123    2
