@<TRIPOS>MOLECULE
tmp/2wtaA00.pdb
 127 122 0 0 0
SMALL
GASTEIGER

@<TRIPOS>ATOM
      1  N         -1.6440    5.3290  -11.7270 N.3    14  ASP14      -0.1239
      2  CA        -2.5750    4.1990  -11.8040 C.3    14  ASP14       0.1674
      3  C         -2.0020    2.9120  -12.4030 C.2    14  ASP14       0.2266
      4  O         -2.6280    2.2580  -13.2350 O.2    14  ASP14      -0.2867
      5  CB        -3.8450    4.6160  -12.5440 C.3    14  ASP14       0.1410
      6  CG        -4.6150    5.6770  -11.8200 C.2    14  ASP14       0.3668
      7  OD1       -5.6250    6.1530  -12.3910 O.co2  14  ASP14      -0.2456
      8  OD2       -4.2230    6.0510  -10.6960 O.co2  14  ASP14      -0.2456
      9  N         -6.1210   -1.7730  -14.5350 N.3    19  PHE19      -0.1241
     10  CA        -5.8210   -1.1890  -15.8500 C.3    19  PHE19       0.1605
     11  C         -4.8210   -1.9720  -16.6700 C.2    19  PHE19       0.2264
     12  O         -4.4230   -1.5270  -17.7490 O.2    19  PHE19      -0.2867
     13  CB        -5.3390    0.2470  -15.6740 C.3    19  PHE19       0.0534
     14  CG        -6.3150    1.1020  -14.9630 C.ar   19  PHE19      -0.0203
     15  CD1       -7.5840    1.3020  -15.4820 C.ar   19  PHE19      -0.0042
     16  CD2       -5.9960    1.6870  -13.7540 C.ar   19  PHE19      -0.0042
     17  CE1       -8.5070    2.0860  -14.8040 C.ar   19  PHE19      -0.0003
     18  CE2       -6.9120    2.4830  -13.0940 C.ar   19  PHE19      -0.0003
     19  CZ        -8.1590    2.6800  -13.6170 C.ar   19  PHE19      -0.0000
     20  N        -10.5550   -3.2890  -16.2440 N.3    25  LEU25      -0.1245
     21  CA       -10.5180   -2.2520  -17.2840 C.3    25  LEU25       0.1561
     22  C         -9.1380   -2.3140  -17.9400 C.2    25  LEU25       0.2260
     23  O         -8.4060   -1.3340  -18.0500 O.2    25  LEU25      -0.2867
     24  CB       -10.8400   -0.8880  -16.6780 C.3    25  LEU25       0.0270
     25  CG       -10.9150    0.3680  -17.5660 C.3    25  LEU25       0.0019
     26  CD1      -11.5620    0.0770  -18.8920 C.3    25  LEU25       0.0001
     27  CD2      -11.6480    1.5060  -16.8540 C.3    25  LEU25       0.0001
     28  N         -6.2490    4.9110   -8.4760 N.3    52  ASP52      -0.1239
     29  CA        -7.6850    5.0430   -8.6440 C.3    52  ASP52       0.1674
     30  C         -8.3110    4.2340   -7.5210 C.2    52  ASP52       0.2266
     31  O         -7.8750    3.1030   -7.2340 O.2    52  ASP52      -0.2867
     32  CB        -8.0990    4.5090  -10.0160 C.3    52  ASP52       0.1410
     33  CG        -9.1230    5.3920  -10.7300 C.2    52  ASP52       0.3668
     34  OD1       -9.2080    6.6190  -10.4930 O.co2  52  ASP52      -0.2456
     35  OD2       -9.8220    4.8290  -11.5910 O.co2  52  ASP52      -0.2456
     36  N        -12.0260    3.7820   -6.0610 N.3    54  HIS54      -0.1241
     37  CA       -13.4460    4.0700   -6.1500 C.3    54  HIS54       0.1621
     38  C        -14.2750    3.3140   -5.1360 C.2    54  HIS54       0.2264
     39  O        -14.0480    2.1280   -4.9070 O.2    54  HIS54      -0.2867
     40  CB       -13.9720    3.6960   -7.5390 C.3    54  HIS54       0.0745
     41  CG       -13.4120    4.5160   -8.6600 C.ar   54  HIS54       0.0817
     42  ND1      -13.4440    5.8930   -8.6670 N.ar   54  HIS54      -0.2268
     43  CD2      -12.8600    4.1470   -9.8380 C.ar   54  HIS54       0.1154
     44  CE1      -12.9220    6.3370   -9.8000 C.ar   54  HIS54       0.1986
     45  NE2      -12.5740    5.3000  -10.5330 N.ar   54  HIS54      -0.2212
     46  N        -17.6890    3.5620  -17.2260 N.3    84  TRP84      -0.1241
     47  CA       -16.7140    2.4830  -17.3140 C.3    84  TRP84       0.1605
     48  C        -17.2400    1.1870  -16.7060 C.2    84  TRP84       0.2264
     49  O        -18.2100    1.2060  -15.9630 O.2    84  TRP84      -0.2867
     50  CB       -15.4510    2.8980  -16.5580 C.3    84  TRP84       0.0550
     51  CG       -14.8730    4.1960  -17.0160 C.ar   84  TRP84       0.0003
     52  CD1      -15.0700    5.4260  -16.4520 C.ar   84  TRP84       0.0946
     53  CD2      -14.0000    4.4040  -18.1340 C.ar   84  TRP84       0.0152
     54  NE1      -14.3670    6.3870  -17.1510 N.ar   84  TRP84      -0.2442
     55  CE2      -13.7030    5.7850  -18.1850 C.ar   84  TRP84       0.0810
     56  CE3      -13.4330    3.5590  -19.0900 C.ar   84  TRP84       0.0012
     57  CZ2      -12.8660    6.3410  -19.1650 C.ar   84  TRP84       0.0191
     58  CZ3      -12.5920    4.1100  -20.0570 C.ar   84  TRP84       0.0001
     59  CH2      -12.3230    5.4920  -20.0870 C.ar   84  TRP84       0.0015
     60  N        -14.2580   -0.8670  -11.7040 N.3    87  HIS87      -0.1241
     61  CA       -12.8110   -0.9950  -11.6900 C.3    87  HIS87       0.1621
     62  C        -12.2490   -0.3260  -10.4390 C.2    87  HIS87       0.2264
     63  O        -12.7840    0.6740   -9.9570 O.2    87  HIS87      -0.2867
     64  CB       -12.1730   -0.3800  -12.9520 C.3    87  HIS87       0.0745
     65  CG       -12.3350    1.1050  -13.0590 C.ar   87  HIS87       0.0817
     66  ND1      -13.4640    1.7000  -13.5870 N.ar   87  HIS87      -0.2268
     67  CD2      -11.5120    2.1170  -12.6970 C.ar   87  HIS87       0.1154
     68  CE1      -13.3300    3.0160  -13.5260 C.ar   87  HIS87       0.1986
     69  NE2      -12.1540    3.2950  -12.9900 N.ar   87  HIS87      -0.2212
     70  N        -15.8740   11.8930  -10.4730 N.3   119  ASP119     -0.1239
     71  CA       -14.6540   11.2080  -10.9100 C.3   119  ASP119      0.1674
     72  C        -13.4260   12.0950  -10.7210 C.2   119  ASP119      0.2266
     73  O        -13.5320   13.2930  -10.4180 O.2   119  ASP119     -0.2867
     74  CB       -14.7750   10.7500  -12.3630 C.3   119  ASP119      0.1410
     75  CG       -13.9650    9.4940  -12.6570 C.2   119  ASP119      0.3668
     76  OD1      -13.0950    9.0920  -11.8300 O.co2 119  ASP119     -0.2456
     77  OD2      -14.1970    8.9150  -13.7400 O.co2 119  ASP119     -0.2456
     78  N         -9.9420   11.6660  -12.9330 N.3   121  TYR121     -0.1241
     79  CA        -8.8380   11.0920  -13.7110 C.3   121  TYR121      0.1605
     80  C         -7.5270   11.7060  -13.2760 C.2   121  TYR121      0.2264
     81  O         -6.4970   11.0220  -13.1690 O.2   121  TYR121     -0.2867
     82  CB        -8.9930   11.3180  -15.2140 C.3   121  TYR121      0.0534
     83  CG       -10.2370   10.7160  -15.8180 C.ar  121  TYR121     -0.0201
     84  CD1      -10.6630    9.4420  -15.4920 C.ar  121  TYR121     -0.0009
     85  CD2      -10.9840   11.4420  -16.7240 C.ar  121  TYR121     -0.0009
     86  CE1      -11.8300    8.9070  -16.0600 C.ar  121  TYR121      0.0417
     87  CE2      -12.1300   10.9340  -17.2830 C.ar  121  TYR121      0.0417
     88  CZ       -12.5490    9.6710  -16.9600 C.ar  121  TYR121      0.1957
     89  OH       -13.7040    9.1870  -17.5390 O.3   121  TYR121     -0.2866
     90  N         -0.8560    4.8920  -16.7430 N.3   152  ILE152     -0.1231
     91  CA        -1.9980    4.4240  -17.5030 C.3   152  ILE152      0.1692
     92  C         -3.2260    5.2230  -17.0880 C.2   152  ILE152      0.2591
     93  O         -3.3440    5.5220  -15.9070 O.2   152  ILE152     -0.2718
     94  CB        -2.3010    2.9420  -17.1810 C.3   152  ILE152      0.0266
     95  CG1       -1.0220    2.0740  -17.1910 C.3   152  ILE152      0.0019
     96  CG2       -3.3650    2.4050  -18.1490 C.3   152  ILE152      0.0020
     97  CD1       -1.2090    0.6870  -16.5420 C.3   152  ILE152      0.0001
     98  N         -4.1230    5.6190  -17.9930 N.am  153  ALA153     -0.1980
     99  CA        -3.9850    5.5600  -19.4360 C.3   153  ALA153      0.1597
    100  C         -3.4540    6.8990  -19.9550 C.2   153  ALA153      0.2287
    101  O         -3.8400    7.9640  -19.4870 O.2   153  ALA153     -0.2864
    102  CB        -5.3540    5.2590  -20.0970 C.3   153  ALA153      0.0319
    103  N         -6.2320    9.4500  -20.6060 N.3   156  PHE156     -0.1227
    104  CA        -7.1470    9.8130  -19.5400 C.3   156  PHE156      0.1736
    105  C         -6.3990   10.2620  -18.2830 C.2   156  PHE156      0.2595
    106  O         -6.1260   11.4490  -18.1330 O.2   156  PHE156     -0.2718
    107  CB        -8.1780    8.6880  -19.3150 C.3   156  PHE156      0.0547
    108  CG        -9.1440    8.5460  -20.4430 C.ar  156  PHE156     -0.0202
    109  CD1      -10.3550    9.2180  -20.4120 C.ar  156  PHE156     -0.0042
    110  CD2       -8.8220    7.8060  -21.5740 C.ar  156  PHE156     -0.0042
    111  CE1      -11.2440    9.1380  -21.4690 C.ar  156  PHE156     -0.0003
    112  CE2       -9.7180    7.7240  -22.6540 C.ar  156  PHE156     -0.0003
    113  CZ       -10.9260    8.3850  -22.5940 C.ar  156  PHE156     -0.0000
    114  N         -6.0310    9.3490  -17.3980 N.am  157  CYS157     -0.1970
    115  CA        -5.4550    9.7770  -16.1310 C.3   157  CYS157      0.1712
    116  C         -4.1030   10.4240  -16.3420 C.2   157  CYS157      0.2296
    117  O         -3.7920   11.3920  -15.6630 O.2   157  CYS157     -0.2864
    118  CB        -5.4410    8.6420  -15.0980 C.3   157  CYS157      0.0983
    119  SG        -7.1380    8.1950  -14.7470 S.3   157  CYS157     -0.0798
    120  N         -5.6420    4.0150  -24.2010 N.3   182  ILE182     -0.1245
    121  CA        -6.8240    3.2130  -24.4670 C.3   182  ILE182      0.1561
    122  C         -7.4850    3.5760  -25.8180 C.2   182  ILE182      0.2260
    123  O         -8.0220    2.7000  -26.5080 O.2   182  ILE182     -0.2867
    124  CB        -7.7820    3.2750  -23.2310 C.3   182  ILE182      0.0252
    125  CG1       -8.8010    2.1340  -23.2690 C.3   182  ILE182      0.0019
    126  CG2       -8.4400    4.6390  -23.0970 C.3   182  ILE182      0.0019
    127  CD1       -9.6410    2.0340  -22.0170 C.3   182  ILE182      0.0001
@<TRIPOS>BOND
     1   123   122    2
     2   122   121    1
     3   121   120    1
     4   121   124    1
     5   125   124    1
     6   125   127    1
     7   124   126    1
     8   112   113   ar
     9   112   110   ar
    10   113   111   ar
    11   110   108   ar
    12   111   109   ar
    13   103   104    1
    14   108   109   ar
    15   108   107    1
    16   102    99    1
    17    59    58   ar
    18    59    57   ar
    19    58    56   ar
    20   100   101    2
    21   100    99    1
    22   104   107    1
    23   104   105    1
    24    99    98    1
    25    57    55   ar
    26    56    53   ar
    27    26    25    1
    28   105   106    2
    29   105   114   am
    30    55    53   ar
    31    55    54   ar
    32    96    94    1
    33    53    51   ar
    34    23    22    2
    35    98    92   am
    36    22    21    1
    37    12    11    2
    38    25    27    1
    39    25    24    1
    40    89    88    1
    41    91    94    1
    42    91    92    1
    43    91    90    1
    44   114   115    1
    45    47    46    1
    46    47    48    1
    47    47    50    1
    48    21    24    1
    49    21    20    1
    50    87    88   ar
    51    87    85   ar
    52    95    94    1
    53    95    97    1
    54    54    52   ar
    55    92    93    2
    56    51    50    1
    57    51    52   ar
    58    88    86   ar
    59    85    83   ar
    60    48    49    2
    61    11    10    1
    62   116   115    1
    63   116   117    2
    64   115   118    1
    65    86    84   ar
    66    10    13    1
    67    10     9    1
    68    83    84   ar
    69    83    82    1
    70    13    14    1
    71    15    14   ar
    72    15    17   ar
    73    82    79    1
    74   118   119    1
    75    14    16   ar
    76    17    19   ar
    77    16    18   ar
    78    77    75   ar
    79    79    80    1
    80    79    78    1
    81    19    18   ar
    82    66    68   ar
    83    66    65   ar
    84    68    69   ar
    85    80    81    2
    86     4     3    2
    87    65    64    1
    88    65    67   ar
    89    69    67   ar
    90    64    61    1
    91    75    74    1
    92    75    76   ar
    93     5     6    1
    94     5     2    1
    95     3     2    1
    96     7     6   ar
    97    74    71    1
    98     6     8   ar
    99     2     1    1
   100    60    61    1
   101    61    62    1
   102    35    33   ar
   103    71    72    1
   104    71    70    1
   105    33    34   ar
   106    33    32    1
   107    72    73    2
   108    45    43   ar
   109    45    44   ar
   110    62    63    2
   111    32    29    1
   112    43    41   ar
   113    44    42   ar
   114    42    41   ar
   115    41    40    1
   116    29    28    1
   117    29    30    1
   118    40    37    1
   119    30    31    2
   120    37    36    1
   121    37    38    1
   122    38    39    2
