@<TRIPOS>MOLECULE
tmp/2wtcA00.pdb
 175 162 0 0 0
SMALL
GASTEIGER

@<TRIPOS>ATOM
      1  N         -7.4850   60.9210    9.1390 N.3    14  LYS14      -0.1245
      2  CA        -6.2580   60.2540    8.6880 C.3    14  LYS14       0.1561
      3  C         -6.4560   59.0330    7.7760 C.2    14  LYS14       0.2260
      4  O         -7.5800   58.6100    7.5010 O.2    14  LYS14      -0.2867
      5  CB        -5.4030   59.8560    9.9030 C.3    14  LYS14       0.0271
      6  CG        -6.0880   58.8790   10.8630 C.3    14  LYS14       0.0035
      7  CD        -5.3720   58.8060   12.2170 C.3    14  LYS14       0.0206
      8  CE        -4.3110   57.7010   12.2660 C.3    14  LYS14       0.1093
      9  NZ        -4.8730   56.3570   12.6260 N.3    14  LYS14      -0.1314
     10  N         -5.6770   54.8970    6.9020 N.3    16  LEU16      -0.1231
     11  CA        -5.5940   53.6680    7.6700 C.3    16  LEU16       0.1693
     12  C         -4.9800   52.5290    6.8450 C.2    16  LEU16       0.2592
     13  O         -4.2630   51.6820    7.3900 O.2    16  LEU16      -0.2718
     14  CB        -6.9790   53.2900    8.2030 C.3    16  LEU16       0.0284
     15  CG        -7.6740   54.3240    9.1000 C.3    16  LEU16       0.0019
     16  CD1       -9.1070   53.9230    9.4100 C.3    16  LEU16       0.0001
     17  CD2       -6.8960   54.5550   10.3890 C.3    16  LEU16       0.0001
     18  N         -5.2560   52.5260    5.5360 N.am   17  GLY17      -0.1957
     19  CA        -4.6820   51.5630    4.5980 C.3    17  GLY17       0.1869
     20  C         -4.6170   52.0690    3.1540 C.2    17  GLY17       0.2309
     21  O         -5.1700   53.1320    2.8430 O.2    17  GLY17      -0.2863
     22  N         -8.0340   53.4450    2.4620 N.3    20  VAL20      -0.1245
     23  CA        -9.0360   53.5730    3.5240 C.3    20  VAL20       0.1561
     24  C         -8.7020   54.7110    4.4820 C.2    20  VAL20       0.2260
     25  O         -7.6110   54.7710    5.0440 O.2    20  VAL20      -0.2867
     26  CB        -9.2160   52.2560    4.3250 C.3    20  VAL20       0.0252
     27  CG1       -9.7970   52.5280    5.6980 C.3    20  VAL20       0.0019
     28  CG2      -10.1010   51.2850    3.5620 C.3    20  VAL20       0.0019
     29  N        -15.0980   54.2350    9.0380 N.3    33  ALA33      -0.1245
     30  CA       -14.0520   54.0270    8.0440 C.3    33  ALA33       0.1562
     31  C        -14.6080   54.2860    6.6460 C.2    33  ALA33       0.2260
     32  O        -15.7150   53.8440    6.3190 O.2    33  ALA33      -0.2867
     33  CB       -13.4910   52.6200    8.1480 C.3    33  ALA33       0.0290
     34  N        -13.7760   53.7960    2.6200 N.3    35  LYS35      -0.1245
     35  CA       -12.9890   53.1940    1.5510 C.3    35  LYS35       0.1561
     36  C        -13.1650   53.9790    0.2520 C.2    35  LYS35       0.2260
     37  O        -14.2790   54.2180   -0.2040 O.2    35  LYS35      -0.2867
     38  CB       -13.4130   51.7320    1.3660 C.3    35  LYS35       0.0271
     39  CG       -12.5270   50.8500    0.4750 C.3    35  LYS35       0.0035
     40  CD       -13.4000   49.7310   -0.1440 C.3    35  LYS35       0.0206
     41  CE       -12.6060   48.6400   -0.8830 C.3    35  LYS35       0.1093
     42  NZ       -13.4150   47.3950   -1.1750 N.3    35  LYS35      -0.1314
     43  N        -20.3500   44.7380   -4.6570 N.3    47  GLU47      -0.1245
     44  CA       -19.9230   44.8530   -3.2610 C.3    47  GLU47       0.1567
     45  C        -20.9700   45.6010   -2.4270 C.2    47  GLU47       0.2260
     46  O        -21.3050   45.1940   -1.3120 O.2    47  GLU47      -0.2867
     47  CB       -18.5570   45.5420   -3.1540 C.3    47  GLU47       0.0388
     48  CG       -18.0730   45.7490   -1.7140 C.3    47  GLU47       0.1160
     49  CD       -16.5700   46.0110   -1.6130 C.2    47  GLU47       0.3649
     50  OE1      -16.0160   45.9040   -0.4840 O.co2  47  GLU47      -0.2457
     51  OE2      -15.9450   46.3190   -2.6610 O.co2  47  GLU47      -0.2457
     52  N        -18.5860   42.8390    7.7860 N.3    60  ILE60      -0.1245
     53  CA       -18.6030   44.3000    7.8370 C.3    60  ILE60       0.1561
     54  C        -19.9060   44.8750    7.2620 C.2    60  ILE60       0.2260
     55  O        -20.4120   44.4230    6.2190 O.2    60  ILE60      -0.2867
     56  CB       -17.3880   44.9130    7.0990 C.3    60  ILE60       0.0252
     57  CG1      -17.0400   46.2940    7.6580 C.3    60  ILE60       0.0019
     58  CG2      -17.6440   44.9730    5.6070 C.3    60  ILE60       0.0019
     59  CD1      -16.5240   46.2610    9.0690 C.3    60  ILE60       0.0001
     60  N        -18.0430   52.4710    6.1490 N.3    75  LEU75      -0.1231
     61  CA       -18.1990   51.2240    6.8710 C.3    75  LEU75       0.1693
     62  C        -17.9570   51.3810    8.3560 C.2    75  LEU75       0.2592
     63  O        -17.2830   52.3140    8.8090 O.2    75  LEU75      -0.2718
     64  CB       -17.2110   50.1990    6.3340 C.3    75  LEU75       0.0284
     65  CG       -17.1240   50.1020    4.8140 C.3    75  LEU75       0.0019
     66  CD1      -15.7000   49.7860    4.4150 C.3    75  LEU75       0.0001
     67  CD2      -18.1280   49.0870    4.2510 C.3    75  LEU75       0.0001
     68  N        -18.5240   50.4460    9.1050 N.am   76  GLU76      -0.1966
     69  CA       -18.1700   50.2610   10.4940 C.3    76  GLU76       0.1733
     70  C        -16.6710   50.3790   10.6000 C.2    76  GLU76       0.2616
     71  O        -15.9530   50.0110    9.6780 O.2    76  GLU76      -0.2715
     72  CB       -18.5740   48.8590   10.9400 C.3    76  GLU76       0.0429
     73  CG       -20.0400   48.7100   11.2510 C.3    76  GLU76       0.1163
     74  CD       -20.3380   47.3610   11.8380 C.2    76  GLU76       0.3649
     75  OE1      -21.1330   47.2950   12.8130 O.co2  76  GLU76      -0.2457
     76  OE2      -19.7480   46.3810   11.3210 O.co2  76  GLU76      -0.2457
     77  N        -16.1880   50.8830   11.7220 N.am   77  LEU77      -0.1963
     78  CA       -14.7490   50.9630   11.9130 C.3    77  LEU77       0.1728
     79  C        -14.2260   49.8760   12.8450 C.2    77  LEU77       0.2616
     80  O        -14.6520   49.7570   14.0040 O.2    77  LEU77      -0.2715
     81  CB       -14.3370   52.3320   12.4280 C.3    77  LEU77       0.0311
     82  CG       -12.8390   52.4490   12.6680 C.3    77  LEU77       0.0022
     83  CD1      -12.1160   52.7790   11.3670 C.3    77  LEU77       0.0001
     84  CD2      -12.5730   53.4950   13.7290 C.3    77  LEU77       0.0001
     85  N        -13.2960   49.0860   12.3120 N.am   78  MET78      -0.1963
     86  CA       -12.6270   48.0430   13.0690 C.3    78  MET78       0.1736
     87  C        -11.3680   48.6130   13.7070 C.2    78  MET78       0.2616
     88  O        -10.4920   49.1300   13.0320 O.2    78  MET78      -0.2715
     89  CB       -12.3030   46.8640   12.1600 C.3    78  MET78       0.0427
     90  CG       -13.5290   46.2370   11.5430 C.3    78  MET78       0.0599
     91  SD       -14.7950   45.9070   12.7850 S.3    78  MET78      -0.1393
     92  CE       -14.1320   44.4850   13.6170 C.3    78  MET78       0.0692
     93  N        -11.2850   48.5250   15.0240 N.am   79  GLU79      -0.1963
     94  CA       -10.2360   49.2200   15.7430 C.3    79  GLU79       0.1733
     95  C         -8.9450   48.4060   15.8900 C.2    79  GLU79       0.2617
     96  O         -7.8590   48.9720   15.9630 O.2    79  GLU79      -0.2715
     97  CB       -10.7680   49.6790   17.1000 C.3    79  GLU79       0.0429
     98  CG       -12.2540   50.0550   17.0820 C.3    79  GLU79       0.1163
     99  CD       -12.6400   51.0170   18.2010 C.2    79  GLU79       0.3649
    100  OE1      -13.2520   50.5500   19.1960 O.co2  79  GLU79      -0.2457
    101  OE2      -12.3280   52.2310   18.0810 O.co2  79  GLU79      -0.2457
    102  N         -9.0550   47.0820   15.9180 N.am   80  GLY80      -0.1940
    103  CA        -7.8840   46.2260   16.0250 C.3    80  GLY80       0.2014
    104  C         -7.0630   46.1630   14.7490 C.2    80  GLY80       0.2639
    105  O         -5.9750   45.5780   14.7270 O.2    80  GLY80      -0.2714
    106  N         -7.5880   46.7620   13.6820 N.am   81  GLY81      -0.1939
    107  CA        -6.9140   46.7620   12.3960 C.3    81  GLY81       0.2014
    108  C         -7.0090   45.4170   11.7030 C.2    81  GLY81       0.2638
    109  O         -7.9500   44.6540   11.9570 O.2    81  GLY81      -0.2714
    110  N         -6.0390   45.1270   10.8310 N.am   82  GLU82      -0.1977
    111  CA        -6.0320   43.8820   10.0550 C.3    82  GLU82       0.1602
    112  C         -5.4670   42.7100   10.8490 C.2    82  GLU82       0.2287
    113  O         -4.6800   42.8850   11.7820 O.2    82  GLU82      -0.2864
    114  CB        -5.2150   44.0290    8.7770 C.3    82  GLU82       0.0415
    115  CG        -5.6620   45.1270    7.8500 C.3    82  GLU82       0.1163
    116  CD        -4.6620   45.3730    6.7200 C.2    82  GLU82       0.3649
    117  OE1       -3.5180   44.8630    6.8040 O.co2  82  GLU82      -0.2457
    118  OE2       -5.0160   46.0810    5.7460 O.co2  82  GLU82      -0.2457
    119  N         -1.5910   42.1970   10.1630 N.3    85  ASP85      -0.1239
    120  CA        -0.6010   42.8490   11.0140 C.3    85  ASP85       0.1674
    121  C         -0.2330   41.9760   12.2110 C.2    85  ASP85       0.2266
    122  O          0.8190   42.1580   12.8120 O.2    85  ASP85      -0.2867
    123  CB        -1.0950   44.2300   11.4750 C.3    85  ASP85       0.1410
    124  CG        -1.1430   45.2600   10.3290 C.2    85  ASP85       0.3668
    125  OD1       -0.1840   45.3040    9.5140 O.co2  85  ASP85      -0.2456
    126  OD2       -2.1390   46.0290   10.2500 O.co2  85  ASP85      -0.2456
    127  N         -5.5040   40.0060    5.4860 N.3   125  GLU125     -0.1231
    128  CA        -5.7470   41.4460    5.4700 C.3   125  GLU125      0.1699
    129  C         -7.2020   41.8380    5.1530 C.2   125  GLU125      0.2592
    130  O         -7.5640   43.0210    5.1900 O.2   125  GLU125     -0.2718
    131  CB        -4.7470   42.1720    4.5560 C.3   125  GLU125      0.0402
    132  CG        -4.5050   41.5140    3.2090 C.3   125  GLU125      0.1161
    133  CD        -3.2530   40.6580    3.1810 C.2   125  GLU125      0.3649
    134  OE1       -2.2880   41.0570    2.5030 O.co2 125  GLU125     -0.2457
    135  OE2       -3.2280   39.5890    3.8260 O.co2 125  GLU125     -0.2457
    136  N         -8.0290   40.8370    4.8580 N.am  126  ASN126     -0.1974
    137  CA        -9.4710   41.0220    4.6900 C.3   126  ASN126      0.1688
    138  C        -10.2210   40.6030    5.9340 C.2   126  ASN126      0.2292
    139  O        -11.4410   40.5750    5.9420 O.2   126  ASN126     -0.2864
    140  CB        -9.9960   40.2000    3.5170 C.3   126  ASN126      0.1181
    141  CG        -9.6310   40.7900    2.1780 C.2   126  ASN126      0.2629
    142  OD1       -9.2880   41.9710    2.0680 O.2   126  ASN126     -0.2716
    143  ND2       -9.7030   39.9690    1.1440 N.am  126  ASN126     -0.0877
    144  N        -10.7120   41.7150    9.8370 N.3   128  LEU128     -0.1245
    145  CA       -10.4810   42.8610   10.7150 C.3   128  LEU128      0.1561
    146  C        -10.9000   42.5460   12.1360 C.2   128  LEU128      0.2260
    147  O        -11.8300   41.7660   12.3590 O.2   128  LEU128     -0.2867
    148  CB       -11.2490   44.0790   10.2190 C.3   128  LEU128      0.0270
    149  CG       -11.0970   44.3530    8.7300 C.3   128  LEU128      0.0019
    150  CD1      -12.1450   45.3440    8.2710 C.3   128  LEU128      0.0001
    151  CD2       -9.7010   44.8320    8.4220 C.3   128  LEU128      0.0001
    152  N         -8.4190   46.2070   20.1400 N.3   132  GLN132     -0.1245
    153  CA        -7.0090   45.9160   20.3170 C.3   132  GLN132      0.1566
    154  C         -6.8210   44.7410   21.2580 C.2   132  GLN132      0.2260
    155  O         -5.7780   44.0920   21.2570 O.2   132  GLN132     -0.2867
    156  CB        -6.2990   47.1530   20.8370 C.3   132  GLN132      0.0367
    157  CG        -6.8110   48.4250   20.1920 C.3   132  GLN132      0.0905
    158  CD        -5.6830   49.3310   19.7180 C.2   132  GLN132      0.2608
    159  OE1       -4.8530   49.7870   20.5120 O.2   132  GLN132     -0.2717
    160  NE2       -5.6480   49.5950   18.4120 N.am  132  GLN132     -0.0878
    161  N        -14.1620   41.2400    5.2380 N.3   141  THR141     -0.1203
    162  CA       -14.2830   42.4470    4.4520 C.3   141  THR141      0.1994
    163  C        -13.7880   42.2280    3.0190 C.2   141  THR141      0.2617
    164  O        -13.3430   41.1420    2.6710 O.2   141  THR141     -0.2717
    165  CB       -13.5440   43.6020    5.1580 C.3   141  THR141      0.1784
    166  OG1      -13.6930   44.8030    4.4060 O.3   141  THR141     -0.2211
    167  CG2      -12.0810   43.2990    5.3070 C.3   141  THR141      0.0376
    168  N        -13.8960   43.2640    2.1940 N.am  142  ASP142     -0.1973
    169  CA       -13.4990   43.2530    0.7690 C.3   142  ASP142      0.1709
    170  C        -14.2570   42.2750   -0.1260 C.2   142  ASP142      0.2293
    171  O        -13.7340   41.2320   -0.5270 O.2   142  ASP142     -0.2864
    172  CB       -11.9890   43.0970    0.5630 C.3   142  ASP142      0.1436
    173  CG       -11.5660   43.4850   -0.8400 C.2   142  ASP142      0.3671
    174  OD1      -10.3630   43.3760   -1.1800 O.co2 142  ASP142     -0.2456
    175  OD2      -12.4580   43.9110   -1.6100 O.co2 142  ASP142     -0.2456
@<TRIPOS>BOND
     1    43    44    1
     2    44    47    1
     3    44    45    1
     4    47    48    1
     5    51    49   ar
     6    45    46    2
     7    48    49    1
     8    49    50   ar
     9   175   173   ar
    10   174   173   ar
    11    42    41    1
    12    41    40    1
    13   173   172    1
    14   171   170    2
    15    37    36    2
    16    40    39    1
    17   170   169    1
    18    36    35    1
    19    39    38    1
    20   172   169    1
    21   169   168    1
    22   143   141   am
    23    38    35    1
    24    35    34    1
    25   142   141    2
    26   141   140    1
    27   168   163   am
    28    22    23    1
    29   134   133   ar
    30   164   163    2
    31    21    20    2
    32   163   162    1
    33    20    19    1
    34   133   132    1
    35   133   135   ar
    36   132   131    1
    37   140   137    1
    38    23    26    1
    39    23    24    1
    40    28    26    1
    41    67    65    1
    42    26    27    1
    43   166   165    1
    44    66    65    1
    45   162   165    1
    46   162   161    1
    47    24    25    2
    48   131   128    1
    49    19    18    1
    50   137   136    1
    51   137   138    1
    52    65    64    1
    53   136   129   am
    54   129   130    2
    55   129   128    1
    56   165   167    1
    57   128   127    1
    58    18    12   am
    59    58    56    1
    60   118   116   ar
    61   138   139    2
    62    60    61    1
    63    55    54    2
    64    32    31    2
    65    64    61    1
    66    31    30    1
    67   116   117   ar
    68   116   115    1
    69    12    13    2
    70    12    11    1
    71    61    62    1
    72    10    11    1
    73    56    57    1
    74    56    53    1
    75    54    53    1
    76     4     3    2
    77    57    59    1
    78    11    14    1
    79     3     2    1
    80    52    53    1
    81   115   114    1
    82    30    33    1
    83    30    29    1
    84    14    15    1
    85   150   149    1
    86    62    63    2
    87    62    68   am
    88   151   149    1
    89     2     1    1
    90     2     5    1
    91   149   148    1
    92   114   111    1
    93    15    16    1
    94    15    17    1
    95    68    69    1
    96   125   124   ar
    97    71    70    2
    98   144   145    1
    99     5     6    1
   100   111   110    1
   101   111   112    1
   102   119   120    1
   103   148   145    1
   104   126   124   ar
   105   124   123    1
   106    69    70    1
   107    69    72    1
   108    70    77   am
   109   145   146    1
   110   110   108   am
   111   112   113    2
   112     6     7    1
   113    72    73    1
   114   120   123    1
   115   120   121    1
   116    73    74    1
   117    76    74   ar
   118    83    82    1
   119    90    89    1
   120    90    91    1
   121   108   109    2
   122   108   107    1
   123    77    78    1
   124    74    75   ar
   125    78    81    1
   126    78    79    1
   127   146   147    2
   128    89    86    1
   129   121   122    2
   130     7     8    1
   131     8     9    1
   132    85    79   am
   133    85    86    1
   134   107   106    1
   135    81    82    1
   136    82    84    1
   137    91    92    1
   138    79    80    2
   139    88    87    2
   140    86    87    1
   141   106   104   am
   142    87    93   am
   143   105   104    2
   144   104   103    1
   145    93    94    1
   146    94    95    1
   147    94    97    1
   148    95   102   am
   149    95    96    2
   150   102   103    1
   151    98    97    1
   152    98    99    1
   153   101    99   ar
   154    99   100   ar
   155   160   158   am
   156   158   157    1
   157   158   159    2
   158   152   153    1
   159   157   156    1
   160   153   156    1
   161   153   154    1
   162   155   154    2
