@<TRIPOS>MOLECULE
tmp/2wtdA00.pdb
 162 149 0 0 0
SMALL
GASTEIGER

@<TRIPOS>ATOM
      1  N         49.3500  -36.3680    6.2500 N.3    15  LYS15      -0.1245
      2  CA        49.3810  -34.9670    6.6640 C.3    15  LYS15       0.1561
      3  C         48.1650  -34.5330    7.4720 C.2    15  LYS15       0.2260
      4  O         47.1190  -35.1820    7.4470 O.2    15  LYS15      -0.2867
      5  CB        49.5440  -34.0580    5.4360 C.3    15  LYS15       0.0271
      6  CG        48.6000  -34.3910    4.2820 C.3    15  LYS15       0.0035
      7  CD        49.0010  -33.6780    2.9900 C.3    15  LYS15       0.0206
      8  CE        48.3170  -32.3170    2.8410 C.3    15  LYS15       0.1093
      9  NZ        46.9260  -32.4180    2.2900 N.3    15  LYS15      -0.1314
     10  N         44.9940  -32.1600    8.2370 N.3    17  LEU17      -0.1231
     11  CA        44.0130  -31.4600    7.4170 C.3    17  LEU17       0.1693
     12  C         43.4710  -30.2300    8.1520 C.2    17  LEU17       0.2592
     13  O         43.3330  -29.1470    7.5710 O.2    17  LEU17      -0.2718
     14  CB        42.8850  -32.4120    7.0230 C.3    17  LEU17       0.0284
     15  CG        43.3530  -33.6540    6.2560 C.3    17  LEU17       0.0019
     16  CD1       42.2160  -34.6360    6.0350 C.3    17  LEU17       0.0001
     17  CD2       43.9880  -33.2680    4.9290 C.3    17  LEU17       0.0001
     18  N         43.1750  -30.4080    9.4380 N.am   18  GLY18      -0.1957
     19  CA        42.7730  -29.3160   10.3100 C.3    18  GLY18       0.1869
     20  C         43.2700  -29.5350   11.7330 C.2    18  GLY18       0.2309
     21  O         44.0200  -30.4800   11.9960 O.2    18  GLY18      -0.2863
     22  N         42.5410  -33.4410   12.7920 N.3    21  VAL21      -0.1245
     23  CA        42.1530  -34.3540   11.7240 C.3    21  VAL21       0.1561
     24  C         43.3100  -34.6440   10.7810 C.2    21  VAL21       0.2260
     25  O         43.9410  -33.7310   10.2510 O.2    21  VAL21      -0.2867
     26  CB        40.9890  -33.7870   10.8920 C.3    21  VAL21       0.0252
     27  CG1       40.8340  -34.5680    9.6010 C.3    21  VAL21       0.0019
     28  CG2       39.6970  -33.8190   11.6870 C.3    21  VAL21       0.0019
     29  N         39.7450  -40.0180    6.4250 N.3    34  ALA34      -0.1245
     30  CA        40.1360  -39.0170    7.4000 C.3    34  ALA34       0.1562
     31  C         40.0730  -39.6360    8.7870 C.2    34  ALA34       0.2260
     32  O         39.1650  -40.4170    9.0860 O.2    34  ALA34      -0.2867
     33  CB        39.2330  -37.8150    7.3110 C.3    34  ALA34       0.0290
     34  N         39.9520  -38.5050   12.7260 N.3    36  LYS36      -0.1245
     35  CA        39.8440  -37.4660   13.7380 C.3    36  LYS36       0.1561
     36  C         40.3680  -37.9910   15.0640 C.2    36  LYS36       0.2260
     37  O         39.8470  -38.9590   15.6210 O.2    36  LYS36      -0.2867
     38  CB        38.3960  -36.9990   13.8720 C.3    36  LYS36       0.0271
     39  CG        38.1570  -35.9310   14.9190 C.3    36  LYS36       0.0035
     40  CD        36.6790  -35.5760   14.9450 C.3    36  LYS36       0.0206
     41  CE        36.1830  -35.1900   16.3340 C.3    36  LYS36       0.1093
     42  NZ        34.6860  -35.1410   16.3950 N.3    36  LYS36      -0.1314
     43  N         28.8950  -39.9780   20.3040 N.3    48  GLU48      -0.1245
     44  CA        29.2140  -39.6400   18.9250 C.3    48  GLU48       0.1567
     45  C         29.3140  -40.8960   18.0560 C.2    48  GLU48       0.2260
     46  O         28.7460  -40.9580   16.9640 O.2    48  GLU48      -0.2867
     47  CB        30.4950  -38.8140   18.8440 C.3    48  GLU48       0.0388
     48  CG        30.8220  -38.3390   17.4330 C.3    48  GLU48       0.1160
     49  CD        31.9120  -37.2800   17.4090 C.2    48  GLU48       0.3649
     50  OE1       32.2880  -36.8280   16.2980 O.co2  48  GLU48      -0.2457
     51  OE2       32.3950  -36.9020   18.5060 O.co2  48  GLU48      -0.2457
     52  N         28.0490  -37.3440    7.6010 N.3    61  ILE61      -0.1245
     53  CA        29.3080  -38.1020    7.5590 C.3    61  ILE61       0.1561
     54  C         29.1780  -39.5140    8.1470 C.2    61  ILE61       0.2260
     55  O         28.5080  -39.7150    9.1650 O.2    61  ILE61      -0.2867
     56  CB        30.4340  -37.3580    8.3110 C.3    61  ILE61       0.0252
     57  CG1       31.8100  -37.8640    7.8750 C.3    61  ILE61       0.0019
     58  CG2       30.2630  -37.5130    9.8090 C.3    61  ILE61       0.0019
     59  CD1       32.2630  -37.3130    6.5500 C.3    61  ILE61       0.0001
     60  N         36.8270  -41.6690    9.3350 N.3    76  LEU76      -0.1231
     61  CA        35.6860  -41.1400    8.6020 C.3    76  LEU76       0.1693
     62  C         35.9290  -41.0490    7.1030 C.2    76  LEU76       0.2592
     63  O         37.0710  -41.1040    6.6320 O.2    76  LEU76      -0.2718
     64  CB        35.3610  -39.7490    9.1230 C.3    76  LEU76       0.0284
     65  CG        35.1790  -39.6320   10.6360 C.3    76  LEU76       0.0019
     66  CD1       35.5290  -38.2210   11.1010 C.3    76  LEU76       0.0001
     67  CD2       33.7570  -40.0350   11.0590 C.3    76  LEU76       0.0001
     68  N         34.8360  -40.9120    6.3620 N.am   77  GLU77      -0.1966
     69  CA        34.9010  -40.5840    4.9500 C.3    77  GLU77       0.1733
     70  C         35.6580  -39.2820    4.7810 C.2    77  GLU77       0.2616
     71  O         35.4470  -38.3400    5.5330 O.2    77  GLU77      -0.2715
     72  CB        33.4970  -40.3840    4.4020 C.3    77  GLU77       0.0429
     73  CG        32.6230  -41.6120    4.4540 C.3    77  GLU77       0.1163
     74  CD        31.2240  -41.3200    3.9640 C.2    77  GLU77       0.3649
     75  OE1       30.7980  -41.9550    2.9630 O.co2  77  GLU77      -0.2457
     76  OE2       30.5680  -40.4410    4.5780 O.co2  77  GLU77      -0.2457
     77  N         36.5350  -39.2220    3.7880 N.am   78  LEU78      -0.1963
     78  CA        37.2860  -38.0040    3.5300 C.3    78  LEU78       0.1728
     79  C         36.5010  -37.0360    2.6570 C.2    78  LEU78       0.2616
     80  O         35.9890  -37.4160    1.6050 O.2    78  LEU78      -0.2715
     81  CB        38.6080  -38.3300    2.8550 C.3    78  LEU78       0.0311
     82  CG        39.4440  -37.1050    2.5110 C.3    78  LEU78       0.0022
     83  CD1       40.0410  -36.5270    3.7820 C.3    78  LEU78       0.0001
     84  CD2       40.5310  -37.4860    1.5390 C.3    78  LEU78       0.0001
     85  N         36.4170  -35.7850    3.1020 N.am   79  MET79      -0.1963
     86  CA        35.7580  -34.7230    2.3510 C.3    79  MET79       0.1736
     87  C         36.7970  -33.7950    1.7390 C.2    79  MET79       0.2616
     88  O         37.3500  -32.9320    2.4180 O.2    79  MET79      -0.2715
     89  CB        34.8280  -33.9270    3.2660 C.3    79  MET79       0.0427
     90  CG        33.7200  -34.7450    3.8460 C.3    79  MET79       0.0599
     91  SD        32.7210  -35.4470    2.5290 S.3    79  MET79      -0.1393
     92  CE        31.6300  -34.0790    2.1790 C.3    79  MET79       0.0692
     93  N         37.0570  -33.9630    0.4510 N.am   80  GLU80      -0.1977
     94  CA        38.1420  -33.2330   -0.1940 C.3    80  GLU80       0.1602
     95  C         37.8290  -31.7460   -0.3640 C.2    80  GLU80       0.2287
     96  O         38.7320  -30.9300   -0.5210 O.2    80  GLU80      -0.2864
     97  CB        38.4800  -33.8780   -1.5380 C.3    80  GLU80       0.0415
     98  CG        38.3450  -35.3980   -1.5320 C.3    80  GLU80       0.1163
     99  CD        39.0870  -36.0630   -2.6750 C.2    80  GLU80       0.3649
    100  OE1       38.4240  -36.7080   -3.5190 O.co2  80  GLU80      -0.2457
    101  OE2       40.3330  -35.9350   -2.7260 O.co2  80  GLU80      -0.2457
    102  N         36.8150  -29.8750    1.9130 N.3    82  GLY82      -0.1210
    103  CA        37.1860  -29.2000    3.1400 C.3    82  GLY82       0.1956
    104  C         35.9810  -28.6010    3.8440 C.2    82  GLY82       0.2611
    105  O         34.8330  -29.0010    3.6020 O.2    82  GLY82      -0.2717
    106  N         36.2440  -27.6360    4.7200 N.am   83  GLU83      -0.1979
    107  CA        35.1850  -27.0080    5.5000 C.3    83  GLU83       0.1602
    108  C         34.4800  -25.9130    4.7160 C.2    83  GLU83       0.2287
    109  O         35.0560  -25.2950    3.8270 O.2    83  GLU83      -0.2864
    110  CB        35.7390  -26.4330    6.8030 C.3    83  GLU83       0.0415
    111  CG        36.4590  -27.4520    7.6520 C.3    83  GLU83       0.1163
    112  CD        37.0890  -26.8530    8.8980 C.2    83  GLU83       0.3649
    113  OE1       36.9640  -25.6220    9.1070 O.co2  83  GLU83      -0.2457
    114  OE2       37.7070  -27.6230    9.6690 O.co2  83  GLU83      -0.2457
    115  N         35.9390  -22.2930    5.3350 N.3    86  ASP86      -0.1239
    116  CA        36.9760  -21.7750    4.4400 C.3    86  ASP86       0.1674
    117  C         36.4150  -21.0970    3.1910 C.2    86  ASP86       0.2266
    118  O         37.1470  -20.4170    2.4780 O.2    86  ASP86      -0.2867
    119  CB        37.9730  -22.8730    4.0410 C.3    86  ASP86       0.1410
    120  CG        39.0630  -23.0990    5.0920 C.2    86  ASP86       0.3668
    121  OD1       38.9920  -22.4990    6.1900 O.co2  86  ASP86      -0.2456
    122  OD2       39.9970  -23.8840    4.8150 O.co2  86  ASP86      -0.2456
    123  N         32.1950  -24.6120   10.0930 N.3   126  GLU126     -0.1231
    124  CA        33.3110  -25.5640   10.1760 C.3   126  GLU126      0.1699
    125  C         32.8810  -27.0200   10.3740 C.2   126  GLU126      0.2592
    126  O         33.6900  -27.9330   10.2460 O.2   126  GLU126     -0.2718
    127  CB        34.3650  -25.1420   11.2170 C.3   126  GLU126      0.0402
    128  CG        33.8110  -24.4260   12.4300 C.3   126  GLU126      0.1161
    129  CD        33.7340  -22.9260   12.2290 C.2   126  GLU126      0.3649
    130  OE1       34.8070  -22.2950   12.1630 O.co2 126  GLU126     -0.2457
    131  OE2       32.6100  -22.3780   12.1480 O.co2 126  GLU126     -0.2457
    132  N         31.6090  -27.2420   10.6780 N.am  127  ASN127     -0.1974
    133  CA        31.1100  -28.6080   10.8120 C.3   127  ASN127      0.1688
    134  C         30.3250  -29.0400    9.5980 C.2   127  ASN127      0.2292
    135  O         29.7150  -30.1020    9.5940 O.2   127  ASN127     -0.2864
    136  CB        30.2620  -28.7650   12.0690 C.3   127  ASN127      0.1181
    137  CG        31.0890  -28.7150   13.3200 C.2   127  ASN127      0.2629
    138  OD1       32.3090  -28.9150   13.2810 O.2   127  ASN127     -0.2716
    139  ND2       30.4430  -28.4420   14.4440 N.am  127  ASN127     -0.0877
    140  N         30.9770  -29.9610    5.6960 N.3   129  LEU129     -0.1245
    141  CA        32.0840  -30.3260    4.8260 C.3   129  LEU129      0.1561
    142  C         31.6460  -30.5150    3.3840 C.2   129  LEU129      0.2260
    143  O         30.5610  -31.0340    3.1170 O.2   129  LEU129     -0.2867
    144  CB        32.7300  -31.6110    5.3240 C.3   129  LEU129      0.0270
    145  CG        33.0560  -31.6350    6.8090 C.3   129  LEU129      0.0019
    146  CD1       33.5480  -33.0080    7.2110 C.3   129  LEU129      0.0001
    147  CD2       34.0810  -30.5700    7.1190 C.3   129  LEU129      0.0001
    148  N         28.9780  -32.7930   10.0940 N.3   142  THR142     -0.1203
    149  CA        29.9710  -33.4920   10.8910 C.3   142  THR142      0.1994
    150  C         30.0110  -33.0070   12.3510 C.2   142  THR142      0.2617
    151  O         29.3770  -32.0080   12.7030 O.2   142  THR142     -0.2717
    152  CB        31.3660  -33.3470   10.2450 C.3   142  THR142      0.1784
    153  OG1       32.1960  -34.4430   10.6430 O.3   142  THR142     -0.2211
    154  CG2       32.0160  -32.0460   10.6580 C.3   142  THR142      0.0376
    155  N         30.7490  -33.7390   13.1850 N.am  143  ASP143     -0.1973
    156  CA        31.0140  -33.3800   14.5900 C.3   143  ASP143      0.1709
    157  C         29.8120  -33.4660   15.5410 C.2   143  ASP143      0.2293
    158  O         29.2120  -32.4490   15.9010 O.2   143  ASP143     -0.2864
    159  CB        31.6670  -32.0020   14.6970 C.3   143  ASP143      0.1436
    160  CG        32.2000  -31.7250   16.0860 C.2   143  ASP143      0.3671
    161  OD1       32.1310  -32.6460   16.9390 O.co2 143  ASP143     -0.2456
    162  OD2       32.6920  -30.5950   16.3260 O.co2 143  ASP143     -0.2456
@<TRIPOS>BOND
     1   100    99   ar
     2   101    99   ar
     3    99    98    1
     4    97    98    1
     5    97    94    1
     6    96    95    2
     7    95    94    1
     8    94    93    1
     9    93    87   am
    10    84    82    1
    11    80    79    2
    12    87    86    1
    13    87    88    2
    14   102   103    1
    15    92    91    1
    16     9     8    1
    17    86    85    1
    18    86    89    1
    19   118   117    2
    20    82    81    1
    21    82    83    1
    22    91    90    1
    23    79    85   am
    24    79    78    1
    25     8     7    1
    26    81    78    1
    27    75    74   ar
    28     7     6    1
    29   143   142    2
    30   103   104    1
    31   117   116    1
    32    89    90    1
    33   142   141    1
    34    78    77    1
    35   105   104    2
    36    77    70   am
    37   109   108    2
    38   104   106   am
    39    74    73    1
    40    74    76   ar
    41   119   116    1
    42   119   120    1
    43     6     5    1
    44    72    73    1
    45    72    69    1
    46   116   115    1
    47   108   107    1
    48   106   107    1
    49    70    69    1
    50    70    71    2
    51   122   120   ar
    52   141   144    1
    53   141   140    1
    54    17    15    1
    55    69    68    1
    56   120   121   ar
    57   144   145    1
    58     5     2    1
    59   107   110    1
    60    16    15    1
    61     1     2    1
    62    15    14    1
    63    68    62   am
    64    29    30    1
    65    59    57    1
    66    63    62    2
    67     2     3    1
    68   110   111    1
    69   145   147    1
    70   145   146    1
    71    14    11    1
    72    62    61    1
    73    33    30    1
    74    30    31    1
    75    11    12    1
    76    11    10    1
    77     4     3    2
    78    53    52    1
    79    53    54    1
    80    53    56    1
    81    13    12    2
    82   111   112    1
    83    57    56    1
    84    54    55    2
    85    12    18   am
    86    56    58    1
    87    61    64    1
    88    61    60    1
    89    31    32    2
    90   112   113   ar
    91   112   114   ar
    92    64    65    1
    93    18    19    1
    94   135   134    2
    95   134   133    1
    96    27    26    1
    97   123   124    1
    98   148   149    1
    99   124   125    1
   100   124   127    1
   101   152   153    1
   102   152   154    1
   103   152   149    1
   104   126   125    2
   105    25    24    2
   106    19    20    1
   107   125   132   am
   108    65    67    1
   109    65    66    1
   110   132   133    1
   111    24    23    1
   112   133   136    1
   113   149   150    1
   114    26    28    1
   115    26    23    1
   116   127   128    1
   117    23    22    1
   118    20    21    2
   119   136   137    1
   120   131   129   ar
   121   130   129   ar
   122   129   128    1
   123   150   151    2
   124   150   155   am
   125    34    35    1
   126   155   156    1
   127   138   137    2
   128   137   139   am
   129    35    38    1
   130    35    36    1
   131    38    39    1
   132   156   159    1
   133   156   157    1
   134   159   160    1
   135    39    40    1
   136    40    41    1
   137    36    37    2
   138   157   158    2
   139   160   162   ar
   140   160   161   ar
   141    50    49   ar
   142    41    42    1
   143    46    45    2
   144    49    48    1
   145    49    51   ar
   146    48    47    1
   147    45    44    1
   148    47    44    1
   149    44    43    1
