@<TRIPOS>MOLECULE
tmp/2wtfA00.pdb
 149 143 0 0 0
SMALL
GASTEIGER

@<TRIPOS>ATOM
      1  N         27.2330  -26.4630   21.9430 N.3    30  ASP30      -0.1225
      2  CA        27.4940  -27.2540   20.7320 C.3    30  ASP30       0.1805
      3  C         27.8240  -28.6440   21.1720 C.2    30  ASP30       0.2598
      4  O         28.6710  -28.8490   22.0600 O.2    30  ASP30      -0.2718
      5  CB        28.6490  -26.6490   19.9010 C.3    30  ASP30       0.1424
      6  CG        29.0790  -27.5540   18.7280 C.2    30  ASP30       0.3668
      7  OD1       29.6520  -28.6540   18.9300 O.co2  30  ASP30      -0.2456
      8  OD2       28.8600  -27.2050   17.5770 O.co2  30  ASP30      -0.2456
      9  N         27.1420  -29.6140   20.5830 N.am   31  MET31      -0.1965
     10  CA        27.3750  -30.9980   20.9670 C.3    31  MET31       0.1736
     11  C         28.6970  -31.3750   20.3790 C.2    31  MET31       0.2616
     12  O         28.9310  -31.1270   19.1990 O.2    31  MET31      -0.2715
     13  CB        26.3380  -31.9190   20.3810 C.3    31  MET31       0.0427
     14  CG        24.9230  -31.5760   20.7420 C.3    31  MET31       0.0599
     15  SD        24.5610  -32.3790   22.2740 S.3    31  MET31      -0.1393
     16  CE        22.8640  -31.8520   22.4060 C.3    31  MET31       0.0692
     17  N         29.5480  -31.9880   21.1870 N.am   32  ASN32      -0.1958
     18  CA        30.8260  -32.4510   20.7090 C.3    32  ASN32       0.1819
     19  C         30.6760  -33.6620   19.8140 C.2    32  ASN32       0.2621
     20  O         29.9670  -34.5740   20.1450 O.2    32  ASN32      -0.2715
     21  CB        31.6940  -32.8140   21.9060 C.3    32  ASN32       0.1195
     22  CG        32.0150  -31.6110   22.7790 C.2    32  ASN32       0.2630
     23  OD1       32.2300  -30.4890   22.3130 O.2    32  ASN32      -0.2716
     24  ND2       32.0920  -31.8580   24.0330 N.am   32  ASN32      -0.0877
     25  N         31.3600  -33.6600   18.6780 N.am   33  ALA33      -0.1963
     26  CA        31.4370  -34.8110   17.7820 C.3    33  ALA33       0.1728
     27  C         30.0750  -35.4560   17.6520 C.2    33  ALA33       0.2616
     28  O         29.9060  -36.6430   17.8970 O.2    33  ALA33      -0.2715
     29  CB        32.4200  -35.7820   18.3360 C.3    33  ALA33       0.0334
     30  N         29.0880  -34.6620   17.2800 N.am   34  PHE34      -0.1960
     31  CA        27.6970  -35.0450   17.5050 C.3    34  PHE34       0.1771
     32  C         27.3030  -36.4010   16.9610 C.2    34  PHE34       0.2619
     33  O         26.8100  -37.1990   17.7060 O.2    34  PHE34      -0.2715
     34  CB        26.7220  -33.9380   17.0500 C.3    34  PHE34       0.0574
     35  CG        25.2870  -34.2340   17.3380 C.ar   34  PHE34      -0.0200
     36  CD1       24.8880  -34.7170   18.5640 C.ar   34  PHE34      -0.0042
     37  CD2       24.3310  -34.0160   16.3680 C.ar   34  PHE34      -0.0042
     38  CE1       23.5650  -34.9650   18.8240 C.ar   34  PHE34      -0.0003
     39  CE2       23.0060  -34.2680   16.6120 C.ar   34  PHE34      -0.0003
     40  CZ        22.6170  -34.7460   17.8570 C.ar   34  PHE34      -0.0000
     41  N         27.5140  -36.6910   15.6920 N.am   35  PHE35      -0.1974
     42  CA        27.0080  -37.9910   15.1910 C.3    35  PHE35       0.1639
     43  C         27.7890  -39.1280   15.8460 C.2    35  PHE35       0.2290
     44  O         27.2750  -40.1920   16.0660 O.2    35  PHE35      -0.2864
     45  CB        27.0480  -38.0910   13.6670 C.3    35  PHE35       0.0560
     46  CG        26.1370  -37.1030   12.9290 C.ar   35  PHE35      -0.0200
     47  CD1       25.5080  -36.0470   13.5890 C.ar   35  PHE35      -0.0042
     48  CD2       25.9610  -37.2130   11.5440 C.ar   35  PHE35      -0.0042
     49  CE1       24.7310  -35.1530   12.8980 C.ar   35  PHE35      -0.0003
     50  CE2       25.1700  -36.3010   10.8470 C.ar   35  PHE35      -0.0003
     51  CZ        24.5640  -35.2760   11.5150 C.ar   35  PHE35      -0.0000
     52  N         29.9620  -42.5940    6.4560 N.3    55  GLN55      -0.1245
     53  CA        29.0320  -42.6340    5.3610 C.3    55  GLN55       0.1566
     54  C         29.8390  -43.1950    4.2240 C.2    55  GLN55       0.2260
     55  O         30.7690  -42.5530    3.7770 O.2    55  GLN55      -0.2867
     56  CB        28.6460  -41.2100    5.0260 C.3    55  GLN55       0.0367
     57  CG        27.2990  -41.0290    4.4540 C.3    55  GLN55       0.0905
     58  CD        26.9140  -39.5840    4.4260 C.2    55  GLN55       0.2608
     59  OE1       27.6760  -38.7420    3.9810 O.2    55  GLN55      -0.2717
     60  NE2       25.7280  -39.2800    4.9180 N.am   55  GLN55      -0.0878
     61  N         32.3030  -38.7220    8.7880 N.3    60  ILE60      -0.1231
     62  CA        31.5510  -37.4740    8.9820 C.3    60  ILE60       0.1692
     63  C         31.5640  -36.9650   10.4120 C.2    60  ILE60       0.2591
     64  O         31.2330  -35.8200   10.6640 O.2    60  ILE60      -0.2718
     65  CB        30.1190  -37.5910    8.4550 C.3    60  ILE60       0.0266
     66  CG1       29.3080  -38.6460    9.1910 C.3    60  ILE60       0.0019
     67  CG2       30.1280  -37.9470    6.9260 C.3    60  ILE60       0.0020
     68  CD1       27.8720  -38.7120    8.6780 C.3    60  ILE60       0.0001
     69  N         31.9790  -37.7940   11.3610 N.am   61  ALA61      -0.1980
     70  CA        32.1520  -37.3070   12.7090 C.3    61  ALA61       0.1597
     71  C         33.1580  -38.1980   13.4430 C.2    61  ALA61       0.2287
     72  O         33.1240  -39.4180   13.3230 O.2    61  ALA61      -0.2864
     73  CB        30.8050  -37.2640   13.4490 C.3    61  ALA61       0.0319
     74  N         36.2350  -37.4850   20.1300 N.3    64  TYR64      -0.1241
     75  CA        37.4640  -36.9770   20.7280 C.3    64  TYR64       0.1605
     76  C         38.4540  -38.0460   21.1560 C.2    64  TYR64       0.2264
     77  O         39.6720  -37.8020   21.0610 O.2    64  TYR64      -0.2867
     78  CB        37.1700  -35.9750   21.8430 C.3    64  TYR64       0.0534
     79  CG        36.7300  -34.6950   21.2020 C.ar   64  TYR64      -0.0201
     80  CD1       35.4220  -34.5310   20.7870 C.ar   64  TYR64      -0.0009
     81  CD2       37.6510  -33.7140   20.8770 C.ar   64  TYR64      -0.0009
     82  CE1       35.0090  -33.3890   20.1180 C.ar   64  TYR64       0.0417
     83  CE2       37.2520  -32.5650   20.1910 C.ar   64  TYR64       0.0417
     84  CZ        35.9220  -32.4080   19.8170 C.ar   64  TYR64       0.1957
     85  OH        35.5200  -31.2740   19.1480 O.3    64  TYR64      -0.2866
     86  N         40.3650  -38.9540   18.0110 N.3    67  ARG67      -0.1245
     87  CA        41.2430  -37.8930   17.5390 C.3    67  ARG67       0.1563
     88  C         42.6010  -37.9270   18.2000 C.2    67  ARG67       0.2260
     89  O         43.5260  -37.2400   17.7510 O.2    67  ARG67      -0.2867
     90  CB        40.6040  -36.5210   17.8060 C.3    67  ARG67       0.0307
     91  CG        39.3520  -36.2910   17.0050 C.3    67  ARG67       0.0489
     92  CD        38.7970  -34.9090   17.2360 C.3    67  ARG67       0.2205
     93  NE        37.3850  -34.8060   16.8430 N.pl3  67  ARG67      -0.0865
     94  CZ        36.6930  -33.6690   16.7470 C.cat  67  ARG67       0.5346
     95  NH1       37.2800  -32.5060   17.0000 N.pl3  67  ARG67       0.1354
     96  NH2       35.3960  -33.6960   16.4090 N.pl3  67  ARG67       0.1354
     97  N         38.2410  -35.8560    9.7720 N.3    73  ARG73      -0.1245
     98  CA        37.2470  -35.9610    8.7240 C.3    73  ARG73       0.1563
     99  C         37.9350  -36.1930    7.3820 C.2    73  ARG73       0.2260
    100  O         37.3740  -36.8170    6.4920 O.2    73  ARG73      -0.2867
    101  CB        36.4250  -34.6800    8.7010 C.3    73  ARG73       0.0307
    102  CG        34.9610  -34.8500    8.3950 C.3    73  ARG73       0.0489
    103  CD        34.1830  -33.6070    8.8090 C.3    73  ARG73       0.2205
    104  NE        33.3270  -33.8240    9.9670 N.pl3  73  ARG73      -0.0865
    105  CZ        32.8970  -32.8600   10.7710 C.cat  73  ARG73       0.5346
    106  NH1       33.2520  -31.6080   10.5640 N.pl3  73  ARG73       0.1354
    107  NH2       32.1160  -33.1450   11.7920 N.pl3  73  ARG73       0.1354
    108  N         21.6420  -28.2340   13.9430 N.3   154  ILE154     -0.1231
    109  CA        21.2110  -29.5250   14.4000 C.3   154  ILE154      0.1692
    110  C         21.8190  -29.8840   15.7490 C.2   154  ILE154      0.2592
    111  O         21.1950  -30.5760   16.5080 O.2   154  ILE154     -0.2718
    112  CB        21.5130  -30.6420   13.3440 C.3   154  ILE154      0.0266
    113  CG1       20.8070  -31.9570   13.7120 C.3   154  ILE154      0.0019
    114  CG2       23.0080  -30.8770   13.2020 C.3   154  ILE154      0.0020
    115  CD1       20.9470  -33.0460   12.5920 C.3   154  ILE154      0.0001
    116  N         23.0020  -29.3800   16.0720 N.am  155  ASP155     -0.1960
    117  CA        23.5810  -29.6490   17.3760 C.3   155  ASP155      0.1840
    118  C         24.0610  -28.4470   18.1370 C.2   155  ASP155      0.2621
    119  O         24.9490  -28.5540   18.9880 O.2   155  ASP155     -0.2715
    120  CB        24.7190  -30.6520   17.2400 C.3   155  ASP155      0.1450
    121  CG        25.9940  -30.0510   16.6400 C.2   155  ASP155      0.3671
    122  OD1       27.0870  -30.6290   16.8710 O.co2 155  ASP155     -0.2456
    123  OD2       25.9090  -29.0070   15.9710 O.co2 155  ASP155     -0.2456
    124  N         23.4570  -27.3050   17.8540 N.am  156  GLU156     -0.1977
    125  CA        23.8560  -26.0730   18.4820 C.3   156  GLU156      0.1602
    126  C         22.6290  -25.3060   18.9450 C.2   156  GLU156      0.2287
    127  O         21.6390  -25.2740   18.2700 O.2   156  GLU156     -0.2864
    128  CB        24.6500  -25.2320   17.4860 C.3   156  GLU156      0.0415
    129  CG        26.0140  -25.7920   17.2040 C.3   156  GLU156      0.1163
    130  CD        26.7260  -25.1120   16.0330 C.2   156  GLU156      0.3649
    131  OE1       27.5760  -25.7660   15.3720 O.co2 156  GLU156     -0.2457
    132  OE2       26.4640  -23.9280   15.7930 O.co2 156  GLU156     -0.2457
    133  N         33.7100  -22.9660   20.7670 N.3   276  ASN276     -0.1240
    134  CA        34.6640  -23.6810   19.9620 C.3   276  ASN276      0.1653
    135  C         36.0970  -23.6290   20.4990 C.2   276  ASN276      0.2266
    136  O         36.9600  -24.2800   19.9660 O.2   276  ASN276     -0.2867
    137  CB        34.6420  -23.1040   18.5740 C.3   276  ASN276      0.1155
    138  CG        35.0040  -24.1100   17.5280 C.2   276  ASN276      0.2627
    139  OD1       34.2500  -25.0740   17.2480 O.2   276  ASN276     -0.2716
    140  ND2       36.1430  -23.8690   16.8900 N.am  276  ASN276     -0.0877
    141  N         37.4560  -28.0120   23.3700 N.3   279  LYS279     -0.1245
    142  CA        36.6540  -29.1800   23.1280 C.3   279  LYS279      0.1561
    143  C         37.4000  -30.4680   23.4870 C.2   279  LYS279      0.2260
    144  O         38.5800  -30.6290   23.1880 O.2   279  LYS279     -0.2867
    145  CB        36.2700  -29.2140   21.6680 C.3   279  LYS279      0.0271
    146  CG        35.5220  -27.9600   21.1980 C.3   279  LYS279      0.0035
    147  CD        34.9120  -28.0990   19.7920 C.3   279  LYS279      0.0206
    148  CE        35.9940  -27.9740   18.7330 C.3   279  LYS279      0.1093
    149  NZ        35.5110  -28.2100   17.3450 N.3   279  LYS279     -0.1314
@<TRIPOS>BOND
     1    55    54    2
     2    59    58    2
     3    54    53    1
     4    58    57    1
     5    58    60   am
     6    57    56    1
     7    56    53    1
     8    53    52    1
     9   100    99    2
    10    67    65    1
    11    99    98    1
    12   102   101    1
    13   102   103    1
    14    65    62    1
    15    65    66    1
    16    68    66    1
    17   101    98    1
    18    98    97    1
    19    61    62    1
    20   103   104    1
    21    62    63    1
    22   104   105    2
    23    63    64    2
    24    63    69   am
    25   106   105    1
    26   105   107    1
    27    50    51   ar
    28    50    48   ar
    29    69    70    1
    30    51    49   ar
    31    48    46   ar
    32   115   113    1
    33    70    71    1
    34    70    73    1
    35    49    47   ar
    36    46    47   ar
    37    46    45    1
    38   114   112    1
    39    72    71    2
    40   112   113    1
    41   112   109    1
    42    45    42    1
    43   108   109    1
    44   109   110    1
    45    42    41    1
    46    42    43    1
    47   131   130   ar
    48    41    32   am
    49   110   116   am
    50   110   111    2
    51   132   130   ar
    52    43    44    2
    53   123   121   ar
    54   130   129    1
    55   116   117    1
    56    37    39   ar
    57    37    35   ar
    58    96    94    1
    59    39    40   ar
    60   121   122   ar
    61   121   120    1
    62    94    93    2
    63    94    95    1
    64    93    92    1
    65   140   138   am
    66    32    31    1
    67    32    33    2
    68    91    92    1
    69    91    90    1
    70    34    35    1
    71    34    31    1
    72   129   128    1
    73   120   117    1
    74   139   138    2
    75    30    31    1
    76    30    27   am
    77    35    36   ar
    78   149   148    1
    79   117   118    1
    80   128   125    1
    81   138   137    1
    82    87    90    1
    83    87    86    1
    84    87    88    1
    85     8     6   ar
    86    27    26    1
    87    27    28    2
    88    89    88    2
    89    26    29    1
    90    26    25    1
    91   124   118   am
    92   124   125    1
    93    40    38   ar
    94   118   119    2
    95   127   126    2
    96   125   126    1
    97    36    38   ar
    98   137   134    1
    99    25    19   am
   100     6     7   ar
   101     6     5    1
   102   148   147    1
   103    85    84    1
   104    12    11    2
   105   147   146    1
   106    19    20    2
   107    19    18    1
   108    84    82   ar
   109    84    83   ar
   110     5     2    1
   111   134   135    1
   112   134   133    1
   113   136   135    2
   114    82    80   ar
   115    74    75    1
   116    83    81   ar
   117    11    10    1
   118    11    17   am
   119    13    14    1
   120    13    10    1
   121     9    10    1
   122     9     3   am
   123    18    17    1
   124    18    21    1
   125    75    76    1
   126    75    78    1
   127     2     3    1
   128     2     1    1
   129    14    15    1
   130    80    79   ar
   131    81    79   ar
   132    77    76    2
   133     3     4    2
   134   146   145    1
   135    79    78    1
   136   145   142    1
   137    21    22    1
   138    15    16    1
   139    23    22    2
   140    22    24   am
   141   142   141    1
   142   142   143    1
   143   144   143    2
