@<TRIPOS>MOLECULE
tmp/2wthB00.pdb
 259 254 0 0 0
SMALL
GASTEIGER

@<TRIPOS>ATOM
      1  N         40.4090  -27.9140   20.3620 N.3    34  TYR34      -0.1241
      2  CA        39.6730  -29.1480   20.6360 C.3    34  TYR34       0.1605
      3  C         40.3290  -30.0060   21.7190 C.2    34  TYR34       0.2264
      4  O         39.6320  -30.5810   22.5660 O.2    34  TYR34      -0.2867
      5  CB        39.4240  -29.9320   19.3460 C.3    34  TYR34       0.0534
      6  CG        38.3050  -29.3250   18.5340 C.ar   34  TYR34      -0.0201
      7  CD1       36.9700  -29.5870   18.8460 C.ar   34  TYR34      -0.0009
      8  CD2       38.5750  -28.4560   17.4790 C.ar   34  TYR34      -0.0009
      9  CE1       35.9350  -29.0130   18.1180 C.ar   34  TYR34       0.0417
     10  CE2       37.5470  -27.8800   16.7440 C.ar   34  TYR34       0.0417
     11  CZ        36.2300  -28.1630   17.0680 C.ar   34  TYR34       0.1957
     12  OH        35.2100  -27.5920   16.3410 O.3    34  TYR34      -0.2866
     13  N         39.1220  -28.1040   24.6160 N.3    37  PHE37      -0.1241
     14  CA        37.6870  -28.3700   24.6790 C.3    37  PHE37       0.1605
     15  C         37.4150  -29.6960   25.3850 C.2    37  PHE37       0.2264
     16  O         36.7500  -29.7350   26.4230 O.2    37  PHE37      -0.2867
     17  CB        37.1220  -28.4230   23.2510 C.3    37  PHE37       0.0534
     18  CG        35.6350  -28.1850   23.1530 C.ar   37  PHE37      -0.0203
     19  CD1       34.8340  -28.0770   24.2880 C.ar   37  PHE37      -0.0042
     20  CD2       35.0280  -28.0950   21.9030 C.ar   37  PHE37      -0.0042
     21  CE1       33.4600  -27.8600   24.1770 C.ar   37  PHE37      -0.0003
     22  CE2       33.6520  -27.8820   21.7830 C.ar   37  PHE37      -0.0003
     23  CZ        32.8700  -27.7650   22.9210 C.ar   37  PHE37      -0.0000
     24  N         30.5760  -32.4540   26.8020 N.3    44  LEU44      -0.1245
     25  CA        30.1770  -31.8460   25.5340 C.3    44  LEU44       0.1561
     26  C         30.6900  -32.6360   24.3290 C.2    44  LEU44       0.2260
     27  O         30.3600  -32.3250   23.1820 O.2    44  LEU44      -0.2867
     28  CB        30.6350  -30.3850   25.4770 C.3    44  LEU44       0.0270
     29  CG        30.0100  -29.4620   26.5330 C.3    44  LEU44       0.0019
     30  CD1       30.6070  -28.0490   26.4720 C.3    44  LEU44       0.0001
     31  CD2       28.4780  -29.4150   26.4120 C.3    44  LEU44       0.0001
     32  N         28.3440  -34.4030   21.3470 N.3    47  TYR47      -0.1227
     33  CA        27.9520  -33.7950   20.0770 C.3    47  TYR47       0.1736
     34  C         28.8120  -34.2670   18.9030 C.2    47  TYR47       0.2595
     35  O         28.3290  -34.3860   17.7720 O.2    47  TYR47      -0.2718
     36  CB        27.9630  -32.2650   20.1900 C.3    47  TYR47       0.0548
     37  CG        26.8960  -31.7210   21.1170 C.ar   47  TYR47      -0.0200
     38  CD1       25.5580  -31.6860   20.7230 C.ar   47  TYR47      -0.0009
     39  CD2       27.2200  -31.2490   22.3850 C.ar   47  TYR47      -0.0009
     40  CE1       24.5700  -31.1900   21.5640 C.ar   47  TYR47       0.0417
     41  CE2       26.2390  -30.7520   23.2400 C.ar   47  TYR47       0.0417
     42  CZ        24.9140  -30.7250   22.8200 C.ar   47  TYR47       0.1957
     43  OH        23.9300  -30.2370   23.6520 O.3    47  TYR47      -0.2866
     44  N         30.0780  -34.5550   19.1820 N.am   48  PHE48      -0.1962
     45  CA        31.0260  -34.9470   18.1420 C.3    48  PHE48       0.1771
     46  C         31.0130  -36.4570   17.8810 C.2    48  PHE48       0.2619
     47  O         31.7090  -37.2290   18.5470 O.2    48  PHE48      -0.2715
     48  CB        32.4220  -34.4120   18.4790 C.3    48  PHE48       0.0574
     49  CG        32.4660  -32.9130   18.6200 C.ar   48  PHE48      -0.0200
     50  CD1       32.8250  -32.1150   17.5440 C.ar   48  PHE48      -0.0042
     51  CD2       32.1160  -32.3020   19.8190 C.ar   48  PHE48      -0.0042
     52  CE1       32.8490  -30.7340   17.6640 C.ar   48  PHE48      -0.0003
     53  CE2       32.1350  -30.9230   19.9490 C.ar   48  PHE48      -0.0003
     54  CZ        32.5040  -30.1350   18.8700 C.ar   48  PHE48      -0.0000
     55  N         30.2020  -36.8520   16.8990 N.am   49  LYS49      -0.1977
     56  CA        29.9360  -38.2620   16.5830 C.3    49  LYS49       0.1596
     57  C         31.1960  -39.0470   16.2430 C.2    49  LYS49       0.2287
     58  O         31.9970  -38.6250   15.4060 O.2    49  LYS49      -0.2864
     59  CB        28.9130  -38.3770   15.4430 C.3    49  LYS49       0.0298
     60  CG        27.4630  -38.5940   15.8880 C.3    49  LYS49       0.0038
     61  CD        27.0070  -37.6220   16.9820 C.3    49  LYS49       0.0206
     62  CE        25.4900  -37.5780   17.1050 C.3    49  LYS49       0.1093
     63  NZ        24.8630  -38.9030   17.3820 N.3    49  LYS49      -0.1314
     64  N         40.7690  -34.8860   10.9920 N.3    64  ARG64      -0.1231
     65  CA        39.3820  -34.4080   11.0100 C.3    64  ARG64       0.1694
     66  C         39.2500  -33.0830   11.7690 C.2    64  ARG64       0.2592
     67  O         38.5890  -32.1570   11.2970 O.2    64  ARG64      -0.2718
     68  CB        38.4590  -35.4750   11.6110 C.3    64  ARG64       0.0321
     69  CG        36.9970  -35.0770   11.7480 C.3    64  ARG64       0.0489
     70  CD        36.3200  -35.9060   12.8330 C.3    64  ARG64       0.2205
     71  NE        34.9870  -35.4070   13.1750 N.pl3  64  ARG64      -0.0865
     72  CZ        34.2240  -35.9030   14.1450 C.cat  64  ARG64       0.5346
     73  NH1       34.6540  -36.9150   14.8860 N.pl3  64  ARG64       0.1354
     74  NH2       33.0250  -35.3880   14.3760 N.pl3  64  ARG64       0.1354
     75  N         39.8820  -33.0000   12.9390 N.am   65  PHE65      -0.1976
     76  CA        39.8710  -31.7780   13.7500 C.3    65  PHE65       0.1639
     77  C         40.8590  -30.7290   13.2360 C.2    65  PHE65       0.2290
     78  O         40.8040  -29.5630   13.6360 O.2    65  PHE65      -0.2864
     79  CB        40.1340  -32.0940   15.2250 C.3    65  PHE65       0.0560
     80  CG        39.0990  -32.9840   15.8420 C.ar   65  PHE65      -0.0200
     81  CD1       37.8650  -32.4720   16.2300 C.ar   65  PHE65      -0.0042
     82  CD2       39.3530  -34.3370   16.0280 C.ar   65  PHE65      -0.0042
     83  CE1       36.8990  -33.2930   16.7950 C.ar   65  PHE65      -0.0003
     84  CE2       38.3950  -35.1690   16.5930 C.ar   65  PHE65      -0.0003
     85  CZ        37.1650  -34.6440   16.9790 C.ar   65  PHE65      -0.0000
     86  N         38.2590  -29.3470   11.0530 N.3    68  GLN68      -0.1245
     87  CA        37.2210  -28.8370   11.9460 C.3    68  GLN68       0.1566
     88  C         37.6890  -27.6930   12.8440 C.2    68  GLN68       0.2260
     89  O         36.9050  -26.8060   13.1790 O.2    68  GLN68      -0.2867
     90  CB        36.6400  -29.9860   12.7880 C.3    68  GLN68       0.0367
     91  CG        35.3950  -29.6300   13.5960 C.3    68  GLN68       0.0905
     92  CD        34.3950  -28.8220   12.7920 C.2    68  GLN68       0.2608
     93  OE1       33.9100  -29.2740   11.7490 O.2    68  GLN68      -0.2717
     94  NE2       34.0880  -27.6130   13.2660 N.am   68  GLN68      -0.0878
     95  N         37.9960  -24.2970   11.0770 N.3    71  ARG71      -0.1231
     96  CA        36.6480  -23.7960   10.8290 C.3    71  ARG71       0.1694
     97  C         36.0810  -23.0010   12.0090 C.2    71  ARG71       0.2591
     98  O         35.5920  -21.8810   11.8230 O.2    71  ARG71      -0.2718
     99  CB        35.7100  -24.9380   10.4350 C.3    71  ARG71       0.0321
    100  CG        35.9030  -25.4390    9.0140 C.3    71  ARG71       0.0489
    101  CD        35.3680  -26.8420    8.8880 C.3    71  ARG71       0.2205
    102  NE        35.5590  -27.4010    7.5510 N.pl3  71  ARG71      -0.0865
    103  CZ        35.5360  -28.7020    7.2720 C.cat  71  ARG71       0.5346
    104  NH1       35.3430  -29.5940    8.2390 N.pl3  71  ARG71       0.1354
    105  NH2       35.7170  -29.1130    6.0240 N.pl3  71  ARG71       0.1354
    106  N         36.1600  -23.5680   13.2140 N.am   72  ILE72      -0.1980
    107  CA        35.6980  -22.8730   14.4250 C.3    72  ILE72       0.1595
    108  C         36.5320  -21.6120   14.6960 C.2    72  ILE72       0.2287
    109  O         35.9860  -20.5510   15.0160 O.2    72  ILE72      -0.2864
    110  CB        35.6360  -23.8190   15.6800 C.3    72  ILE72       0.0276
    111  CG1       34.9530  -23.1350   16.8650 C.3    72  ILE72       0.0022
    112  CG2       37.0140  -24.3030   16.1020 C.3    72  ILE72       0.0022
    113  CD1       33.5070  -22.7970   16.6400 C.3    72  ILE72       0.0001
    114  N         35.6880  -19.0170   12.1240 N.3    75  ALA75      -0.1231
    115  CA        34.3770  -18.5090   12.5260 C.3    75  ALA75       0.1694
    116  C         34.4820  -17.4430   13.6250 C.2    75  ALA75       0.2592
    117  O         33.8430  -16.3910   13.5440 O.2    75  ALA75      -0.2718
    118  CB        33.4900  -19.6500   12.9730 C.3    75  ALA75       0.0304
    119  N         35.3200  -17.7470   14.6650 N.am   76  CYS76      -0.1970
    120  CA        35.5260  -16.7860   15.7460 C.3    76  CYS76       0.1712
    121  C         36.3110  -15.5450   15.2790 C.2    76  CYS76       0.2296
    122  O         36.1050  -14.4450   15.8110 O.2    76  CYS76      -0.2864
    123  CB        36.2710  -17.4410   16.9110 C.3    76  CYS76       0.0983
    124  SG        35.3470  -18.7750   17.7400 S.3    76  CYS76      -0.0798
    125  N         33.8450  -13.3710   13.5720 N.3    79  LEU79      -0.1245
    126  CA        33.0040  -12.7830   14.6090 C.3    79  LEU79       0.1561
    127  C         33.6230  -11.5180   15.1930 C.2    79  LEU79       0.2260
    128  O         32.9420  -10.5030   15.3470 O.2    79  LEU79      -0.2867
    129  CB        32.7380  -13.7960   15.7240 C.3    79  LEU79       0.0270
    130  CG        31.6830  -14.8780   15.4780 C.3    79  LEU79       0.0019
    131  CD1       31.7170  -15.9010   16.6040 C.3    79  LEU79       0.0001
    132  CD2       30.2850  -14.2710   15.3450 C.3    79  LEU79       0.0001
    133  N         25.4840  -13.3530   10.2680 N.3    92  TYR92      -0.1241
    134  CA        26.3950  -14.4740   10.4660 C.3    92  TYR92       0.1605
    135  C         26.0340  -15.3170   11.6980 C.2    92  TYR92       0.2264
    136  O         26.3790  -16.5020   11.7640 O.2    92  TYR92      -0.2867
    137  CB        27.8450  -13.9890   10.5350 C.3    92  TYR92       0.0534
    138  CG        28.8580  -15.1020   10.4370 C.ar   92  TYR92      -0.0201
    139  CD1       29.0920  -15.7480    9.2310 C.ar   92  TYR92      -0.0009
    140  CD2       29.5750  -15.5170   11.5530 C.ar   92  TYR92      -0.0009
    141  CE1       30.0220  -16.7760    9.1330 C.ar   92  TYR92       0.0417
    142  CE2       30.5070  -16.5480   11.4680 C.ar   92  TYR92       0.0417
    143  CZ        30.7240  -17.1680   10.2550 C.ar   92  TYR92       0.1957
    144  OH        31.6410  -18.1880   10.1600 O.3    92  TYR92      -0.2866
    145  N         24.9590  -19.1860   11.5760 N.3    96  THR96      -0.1218
    146  CA        25.6620  -20.1240   12.4490 C.3    96  THR96       0.1862
    147  C         24.6650  -21.0370   13.1600 C.2    96  THR96       0.2287
    148  O         24.9010  -22.2370   13.2940 O.2    96  THR96      -0.2866
    149  CB        26.5870  -19.3790   13.4500 C.3    96  THR96       0.1770
    150  OG1       27.7040  -18.8390   12.7380 O.3    96  THR96      -0.2211
    151  CG2       27.1040  -20.3100   14.5400 C.3    96  THR96       0.0375
    152  N         23.2790  -23.5580   10.5450 N.3    99  ARG99      -0.1231
    153  CA        24.2200  -24.6550   10.3110 C.3    99  ARG99       0.1694
    154  C         24.4130  -25.5750   11.5250 C.2    99  ARG99       0.2592
    155  O         25.1100  -26.5880   11.4290 O.2    99  ARG99      -0.2718
    156  CB        25.5680  -24.1240    9.7910 C.3    99  ARG99       0.0321
    157  CG        25.4570  -23.2640    8.5190 C.3    99  ARG99       0.0489
    158  CD        26.6670  -23.3980    7.5940 C.3    99  ARG99       0.2205
    159  NE        27.9350  -23.0400    8.2420 N.pl3  99  ARG99      -0.0865
    160  CZ        28.4760  -21.8180    8.2670 C.cat  99  ARG99       0.5346
    161  NH1       27.8740  -20.7840    7.6860 N.pl3  99  ARG99       0.1354
    162  NH2       29.6360  -21.6320    8.8830 N.pl3  99  ARG99       0.1354
    163  N         23.7780  -25.2280   12.6490 N.am  100  HIS100     -0.1976
    164  CA        23.7950  -26.0530   13.8720 C.3   100  HIS100      0.1656
    165  C         22.4390  -26.7100   14.2300 C.2   100  HIS100      0.2291
    166  O         22.2820  -27.2740   15.3160 O.2   100  HIS100     -0.2864
    167  CB        24.3120  -25.2370   15.0630 C.3   100  HIS100      0.0771
    168  CG        25.8020  -25.1060   15.1080 C.ar  100  HIS100      0.0820
    169  ND1       26.4970  -24.2470   14.2830 N.ar  100  HIS100     -0.2267
    170  CD2       26.7290  -25.7100   15.8890 C.ar  100  HIS100      0.1154
    171  CE1       27.7880  -24.3380   14.5430 C.ar  100  HIS100      0.1986
    172  NE2       27.9570  -25.2180   15.5150 N.ar  100  HIS100     -0.2212
    173  N         22.3220  -30.8130   14.9660 N.3   103  TYR103     -0.1241
    174  CA        22.8840  -31.3220   16.2180 C.3   103  TYR103      0.1605
    175  C         21.9310  -31.1720   17.3970 C.2   103  TYR103      0.2264
    176  O         22.2230  -31.6570   18.4910 O.2   103  TYR103     -0.2867
    177  CB        24.1930  -30.5970   16.5390 C.3   103  TYR103      0.0534
    178  CG        25.0920  -30.4290   15.3430 C.ar  103  TYR103     -0.0201
    179  CD1       25.8180  -31.5040   14.8360 C.ar  103  TYR103     -0.0009
    180  CD2       25.2080  -29.1980   14.7090 C.ar  103  TYR103     -0.0009
    181  CE1       26.6410  -31.3550   13.7300 C.ar  103  TYR103      0.0417
    182  CE2       26.0270  -29.0360   13.6020 C.ar  103  TYR103      0.0417
    183  CZ        26.7380  -30.1190   13.1180 C.ar  103  TYR103      0.1957
    184  OH        27.5490  -29.9670   12.0200 O.3   103  TYR103     -0.2866
    185  N         21.2120  -28.8090   19.7410 N.3   105  MET105     -0.1245
    186  CA        21.9840  -28.5200   20.9420 C.3   105  MET105      0.1570
    187  C         21.1260  -27.9090   22.0430 C.2   105  MET105      0.2261
    188  O         20.0440  -27.3850   21.7760 O.2   105  MET105     -0.2867
    189  CB        23.1200  -27.5590   20.6010 C.3   105  MET105      0.0387
    190  CG        24.1820  -28.1240   19.6680 C.3   105  MET105      0.0595
    191  SD        25.1550  -26.8360   18.8470 S.3   105  MET105     -0.1393
    192  CE        25.5690  -25.7800   20.2350 C.3   105  MET105      0.0692
    193  N         23.8960  -23.3210   25.3920 N.3   109  LEU109     -0.1231
    194  CA        25.3130  -23.4740   25.0550 C.3   109  LEU109      0.1693
    195  C         25.8410  -22.3780   24.1290 C.2   109  LEU109      0.2592
    196  O         27.0520  -22.2900   23.8930 O.2   109  LEU109     -0.2718
    197  CB        25.5890  -24.8500   24.4410 C.3   109  LEU109      0.0284
    198  CG        25.2540  -26.1130   25.2370 C.3   109  LEU109      0.0019
    199  CD1       25.5550  -27.3280   24.3830 C.3   109  LEU109      0.0001
    200  CD2       26.0120  -26.1870   26.5580 C.3   109  LEU109      0.0001
    201  N         24.9420  -21.5450   23.6060 N.am  110  TRP110     -0.1976
    202  CA        25.3520  -20.4400   22.7390 C.3   110  TRP110      0.1640
    203  C         26.0650  -19.3520   23.5270 C.2   110  TRP110      0.2290
    204  O         27.0030  -18.7320   23.0280 O.2   110  TRP110     -0.2864
    205  CB        24.1720  -19.8980   21.9360 C.3   110  TRP110      0.0576
    206  CG        23.6310  -20.9360   20.9900 C.ar  110  TRP110      0.0006
    207  CD1       22.3960  -21.5110   21.0240 C.ar  110  TRP110      0.0946
    208  CD2       24.3270  -21.5450   19.8900 C.ar  110  TRP110      0.0152
    209  NE1       22.2720  -22.4240   20.0070 N.ar  110  TRP110     -0.2442
    210  CE2       23.4430  -22.4690   19.3000 C.ar  110  TRP110      0.0810
    211  CE3       25.6100  -21.3890   19.3400 C.ar  110  TRP110      0.0012
    212  CZ2       23.7950  -23.2350   18.1890 C.ar  110  TRP110      0.0191
    213  CZ3       25.9610  -22.1560   18.2370 C.ar  110  TRP110      0.0001
    214  CH2       25.0560  -23.0630   17.6740 C.ar  110  TRP110      0.0015
    215  N         27.4230  -20.3000   26.5440 N.3   112  ALA112     -0.1231
    216  CA        28.4710  -21.1070   27.1750 C.3   112  ALA112      0.1694
    217  C         29.7380  -21.2670   26.3320 C.2   112  ALA112      0.2592
    218  O         30.8330  -21.4040   26.8790 O.2   112  ALA112     -0.2718
    219  CB        27.9180  -22.4780   27.5640 C.3   112  ALA112      0.0304
    220  N         29.5890  -21.2510   25.0100 N.am  113  PHE113     -0.1962
    221  CA        30.7270  -21.4320   24.1070 C.3   113  PHE113      0.1771
    222  C         31.8620  -20.4270   24.3480 C.2   113  PHE113      0.2619
    223  O         33.0430  -20.7680   24.2430 O.2   113  PHE113     -0.2715
    224  CB        30.2790  -21.3630   22.6410 C.3   113  PHE113      0.0574
    225  CG        31.4190  -21.2240   21.6690 C.ar  113  PHE113     -0.0200
    226  CD1       32.0920  -22.3480   21.2000 C.ar  113  PHE113     -0.0042
    227  CD2       31.8360  -19.9630   21.2390 C.ar  113  PHE113     -0.0042
    228  CE1       33.1520  -22.2170   20.3050 C.ar  113  PHE113     -0.0003
    229  CE2       32.8900  -19.8290   20.3460 C.ar  113  PHE113     -0.0003
    230  CZ        33.5490  -20.9550   19.8800 C.ar  113  PHE113     -0.0000
    231  N         31.5000  -19.1900   24.6570 N.am  114  PHE114     -0.1974
    232  CA        32.4900  -18.1280   24.7950 C.3   114  PHE114      0.1639
    233  C         33.3040  -18.2630   26.0750 C.2   114  PHE114      0.2290
    234  O         34.4790  -17.8980   26.1080 O.2   114  PHE114     -0.2864
    235  CB        31.8270  -16.7590   24.6310 C.3   114  PHE114      0.0560
    236  CG        31.1640  -16.5920   23.2940 C.ar  114  PHE114     -0.0200
    237  CD1       31.9250  -16.3140   22.1570 C.ar  114  PHE114     -0.0042
    238  CD2       29.7930  -16.7730   23.1560 C.ar  114  PHE114     -0.0042
    239  CE1       31.3260  -16.1890   20.9100 C.ar  114  PHE114     -0.0003
    240  CE2       29.1840  -16.6450   21.9120 C.ar  114  PHE114     -0.0003
    241  CZ        29.9530  -16.3530   20.7880 C.ar  114  PHE114     -0.0000
    242  N         34.2040  -21.1640   27.0110 N.3   116  VAL116     -0.1245
    243  CA        35.1890  -22.1460   26.5500 C.3   116  VAL116      0.1561
    244  C         36.2930  -21.4740   25.7290 C.2   116  VAL116      0.2260
    245  O         37.4730  -21.8100   25.8710 O.2   116  VAL116     -0.2867
    246  CB        34.5400  -23.2950   25.7230 C.3   116  VAL116      0.0252
    247  CG1       35.5470  -24.4160   25.4710 C.3   116  VAL116      0.0019
    248  CG2       33.2990  -23.8380   26.4260 C.3   116  VAL116      0.0019
    249  N         25.8610  -12.2660   20.5140 N.3   142  PHE142     -0.1241
    250  CA        25.7250  -13.4970   19.7610 C.3   142  PHE142      0.1605
    251  C         24.5320  -14.2970   20.2990 C.2   142  PHE142      0.2264
    252  O         23.5930  -14.6130   19.5560 O.2   142  PHE142     -0.2867
    253  CB        27.0120  -14.3210   19.8670 C.3   142  PHE142      0.0534
    254  CG        27.0380  -15.5310   18.9730 C.ar  142  PHE142     -0.0203
    255  CD1       27.9810  -15.6360   17.9610 C.ar  142  PHE142     -0.0042
    256  CD2       26.1200  -16.5650   19.1420 C.ar  142  PHE142     -0.0042
    257  CE1       28.0120  -16.7490   17.1290 C.ar  142  PHE142     -0.0003
    258  CE2       26.1410  -17.6740   18.3150 C.ar  142  PHE142     -0.0003
    259  CZ        27.0910  -17.7680   17.3080 C.ar  142  PHE142     -0.0000
@<TRIPOS>BOND
     1   105   103    1
     2   103   102    2
     3   103   104    1
     4   102   101    1
     5   158   159    1
     6   158   157    1
     7   161   160    1
     8   159   160    2
     9   160   162    1
    10   157   156    1
    11   101   100    1
    12   100    99    1
    13   141   139   ar
    14   141   143   ar
    15   139   138   ar
    16   156   153    1
    17   144   143    1
    18   143   142   ar
    19   133   134    1
    20   153   152    1
    21   153   154    1
    22    99    96    1
    23   138   137    1
    24   138   140   ar
    25   134   137    1
    26   134   135    1
    27    96    95    1
    28    96    97    1
    29    64    65    1
    30    65    68    1
    31    65    66    1
    32    86    87    1
    33    67    66    2
    34   155   154    2
    35   142   140   ar
    36   154   163   am
    37   145   146    1
    38    68    69    1
    39   135   136    2
    40    69    70    1
    41    93    92    2
    42    66    75   am
    43    98    97    2
    44    87    90    1
    45    87    88    1
    46    97   106   am
    47   184   183    1
    48   114   115    1
    49   146   147    1
    50   146   149    1
    51   115   118    1
    52   115   116    1
    53   163   164    1
    54   150   149    1
    55    90    91    1
    56    92    94   am
    57    92    91    1
    58    70    71    1
    59    88    89    2
    60    75    76    1
    61   183   182   ar
    62   183   181   ar
    63   147   148    2
    64    71    72    2
    65   106   107    1
    66    77    78    2
    67    77    76    1
    68   149   151    1
    69   117   116    2
    70   125   126    1
    71   182   180   ar
    72   116   119   am
    73   181   179   ar
    74    76    79    1
    75   164   165    1
    76   164   167    1
    77    72    74    1
    78    72    73    1
    79   165   166    2
    80   169   171   ar
    81   169   168   ar
    82   107   108    1
    83   107   110    1
    84   171   172   ar
    85   126   127    1
    86   126   129    1
    87   119   120    1
    88   108   109    2
    89   180   178   ar
    90   179   178   ar
    91   173   174    1
    92   167   168    1
    93   168   170   ar
    94   127   128    2
    95    79    80    1
    96   121   120    1
    97   121   122    2
    98   178   177    1
    99   132   130    1
   100    58    57    2
   101    59    60    1
   102    59    56    1
   103   130   129    1
   104   130   131    1
   105   172   170   ar
   106   110   112    1
   107   110   111    1
   108   120   123    1
   109    80    82   ar
   110    80    81   ar
   111    60    61    1
   112    82    84   ar
   113   174   177    1
   114   174   175    1
   115    81    83   ar
   116    57    56    1
   117    12    11    1
   118    56    55    1
   119    84    85   ar
   120   113   111    1
   121    10    11   ar
   122    10     8   ar
   123    83    85   ar
   124    55    46   am
   125   123   124    1
   126    61    62    1
   127    11     9   ar
   128    62    63    1
   129   257   259   ar
   130   257   255   ar
   131   259   258   ar
   132   175   176    2
   133     8     6   ar
   134    50    52   ar
   135    50    49   ar
   136    52    54   ar
   137   214   212   ar
   138   214   213   ar
   139    35    34    2
   140    46    45    1
   141    46    47    2
   142   255   254   ar
   143     9     7   ar
   144    45    48    1
   145    45    44    1
   146   212   210   ar
   147   213   211   ar
   148   258   256   ar
   149    48    49    1
   150     6     7   ar
   151     6     5    1
   152    49    51   ar
   153   191   190    1
   154   191   192    1
   155    54    53   ar
   156    34    44   am
   157    34    33    1
   158   254   256   ar
   159   254   253    1
   160   210   208   ar
   161   210   209   ar
   162   211   208   ar
   163     5     2    1
   164   252   251    2
   165   190   189    1
   166   185   186    1
   167   250   253    1
   168   250   251    1
   169   250   249    1
   170    51    53   ar
   171   230   228   ar
   172   230   229   ar
   173   208   206   ar
   174   209   207   ar
   175    33    36    1
   176    33    32    1
   177    36    37    1
   178   228   226   ar
   179   229   227   ar
   180     1     2    1
   181   189   186    1
   182     2     3    1
   183    38    37   ar
   184    38    40   ar
   185   241   239   ar
   186   241   240   ar
   187   239   237   ar
   188   186   187    1
   189   206   207   ar
   190   206   205    1
   191    37    39   ar
   192   226   225   ar
   193   227   225   ar
   194    40    42   ar
   195   225   224    1
   196     3     4    2
   197   188   187    2
   198    22    20   ar
   199    22    23   ar
   200    20    18   ar
   201   240   238   ar
   202   205   202    1
   203   237   236   ar
   204    39    41   ar
   205   224   221    1
   206   202   203    1
   207   202   201    1
   208    42    41   ar
   209    42    43    1
   210    23    21   ar
   211   204   203    2
   212    18    17    1
   213    18    19   ar
   214   238   236   ar
   215    27    26    2
   216    17    14    1
   217   236   235    1
   218   201   195   am
   219   196   195    2
   220   221   222    1
   221   221   220    1
   222   195   194    1
   223    21    19   ar
   224   223   222    2
   225    26    25    1
   226   222   231   am
   227   199   198    1
   228   197   194    1
   229   197   198    1
   230    13    14    1
   231   235   232    1
   232   231   232    1
   233    14    15    1
   234   232   233    1
   235   220   217   am
   236   194   193    1
   237   198   200    1
   238    15    16    2
   239   247   246    1
   240    28    25    1
   241    28    29    1
   242    25    24    1
   243   246   248    1
   244   246   243    1
   245   244   245    2
   246   244   243    1
   247   233   234    2
   248   217   218    2
   249   217   216    1
   250    31    29    1
   251    30    29    1
   252   215   216    1
   253   243   242    1
   254   216   219    1
