@<TRIPOS>MOLECULE
tmp/2wtiA00.pdb
 175 162 0 0 0
SMALL
GASTEIGER

@<TRIPOS>ATOM
      1  N        -56.3260   24.4390   -6.2790 N.3    15  LYS15      -0.1245
      2  CA       -55.0990   25.1460   -6.6400 C.3    15  LYS15       0.1561
      3  C        -54.1190   24.3120   -7.4580 C.2    15  LYS15       0.2260
      4  O        -54.1360   23.0830   -7.4100 O.2    15  LYS15      -0.2867
      5  CB       -54.4040   25.6650   -5.3780 C.3    15  LYS15       0.0271
      6  CG       -54.0650   24.6070   -4.3530 C.3    15  LYS15       0.0035
      7  CD       -53.3430   25.1430   -3.1330 C.3    15  LYS15       0.0206
      8  CE       -52.7610   23.9330   -2.4330 C.3    15  LYS15       0.1093
      9  NZ       -52.3900   24.1690   -1.0620 N.3    15  LYS15      -0.1314
     10  N        -50.5220   22.7970   -8.1710 N.3    17  LEU17      -0.1231
     11  CA       -49.3890   22.3680   -7.3550 C.3    17  LEU17       0.1693
     12  C        -48.0810   22.5520   -8.1260 C.2    17  LEU17       0.2592
     13  O        -47.0350   22.8660   -7.5500 O.2    17  LEU17      -0.2718
     14  CB       -49.5640   20.9070   -6.9270 C.3    17  LEU17       0.0284
     15  CG       -50.8460   20.5900   -6.1510 C.3    17  LEU17       0.0019
     16  CD1      -51.0170   19.0870   -5.9510 C.3    17  LEU17       0.0001
     17  CD2      -50.8600   21.3200   -4.8160 C.3    17  LEU17       0.0001
     18  N        -48.1630   22.3510   -9.4370 N.am   18  GLY18      -0.1957
     19  CA       -47.0480   22.5730  -10.3410 C.3    18  GLY18       0.1869
     20  C        -47.5570   22.9620  -11.7180 C.2    18  GLY18       0.2309
     21  O        -48.3990   22.2680  -12.2950 O.2    18  GLY18      -0.2863
     22  N        -50.1910   19.9820  -12.7900 N.3    21  VAL21      -0.1245
     23  CA       -50.7430   19.1980  -11.6880 C.3    21  VAL21       0.1561
     24  C        -51.6090   20.0320  -10.7440 C.2    21  VAL21       0.2260
     25  O        -51.2080   21.1040  -10.2870 O.2    21  VAL21      -0.2867
     26  CB       -49.6250   18.5100  -10.8680 C.3    21  VAL21       0.0252
     27  CG1      -50.2070   17.8370   -9.6310 C.3    21  VAL21       0.0019
     28  CG2      -48.8940   17.4940  -11.7220 C.3    21  VAL21       0.0019
     29  N        -54.4780   14.2330   -6.4390 N.3    34  ALA34      -0.1245
     30  CA       -53.7450   15.0670   -7.3770 C.3    34  ALA34       0.1562
     31  C        -54.2050   14.7080   -8.7790 C.2    34  ALA34       0.2260
     32  O        -54.4070   13.5360   -9.0880 O.2    34  ALA34      -0.2867
     33  CB       -52.2410   14.8650   -7.2240 C.3    34  ALA34       0.0290
     34  N        -53.3190   15.1640  -12.8220 N.3    36  LYS36      -0.1245
     35  CA       -52.3540   15.5650  -13.8320 C.3    36  LYS36       0.1561
     36  C        -53.0630   15.7970  -15.1540 C.2    36  LYS36       0.2260
     37  O        -53.7490   14.9090  -15.6680 O.2    36  LYS36      -0.2867
     38  CB       -51.2690   14.5000  -13.9750 C.3    36  LYS36       0.0271
     39  CG       -50.1890   14.8020  -14.9960 C.3    36  LYS36       0.0035
     40  CD       -49.0820   13.7630  -14.8780 C.3    36  LYS36       0.0206
     41  CE       -48.5120   13.3650  -16.2300 C.3    36  LYS36       0.1093
     42  NZ       -47.7210   12.1030  -16.1290 N.3    36  LYS36      -0.1314
     43  N        -48.7700    5.0080  -20.2010 N.3    48  GLU48      -0.1245
     44  CA       -48.6890    5.4280  -18.8070 C.3    48  GLU48       0.1567
     45  C        -49.8670    4.8870  -17.9910 C.2    48  GLU48       0.2260
     46  O        -49.6840    4.3310  -16.9030 O.2    48  GLU48      -0.2867
     47  CB       -48.5940    6.9490  -18.6850 C.3    48  GLU48       0.0388
     48  CG       -48.5360    7.4300  -17.2370 C.3    48  GLU48       0.1160
     49  CD       -48.1570    8.8950  -17.1080 C.2    48  GLU48       0.3649
     50  OE1      -47.8410    9.3280  -15.9760 O.co2  48  GLU48      -0.2457
     51  OE2      -48.1700    9.6130  -18.1360 O.co2  48  GLU48      -0.2457
     52  N        -46.2690    5.4680   -7.4850 N.3    61  ILE61      -0.1245
     53  CA       -47.5560    6.1710   -7.4280 C.3    61  ILE61       0.1561
     54  C        -48.7120    5.3430   -8.0200 C.2    61  ILE61       0.2260
     55  O        -48.5370    4.6230   -9.0100 O.2    61  ILE61      -0.2867
     56  CB       -47.4840    7.5110   -8.1840 C.3    61  ILE61       0.0252
     57  CG1      -48.6510    8.4210   -7.8050 C.3    61  ILE61       0.0019
     58  CG2      -47.4720    7.2730   -9.6840 C.3    61  ILE61       0.0019
     59  CD1      -48.2520    9.5580   -6.9100 C.3    61  ILE61       0.0001
     60  N        -54.3610   10.9170   -9.3710 N.3    76  LEU76      -0.1231
     61  CA       -53.3190   10.2180   -8.6310 C.3    76  LEU76       0.1693
     62  C        -53.3790   10.4710   -7.1230 C.2    76  LEU76       0.2592
     63  O        -54.0210   11.4200   -6.6610 O.2    76  LEU76      -0.2718
     64  CB       -51.9540   10.6620   -9.1510 C.3    76  LEU76       0.0284
     65  CG       -51.6960   10.4660  -10.6460 C.3    76  LEU76       0.0019
     66  CD1      -50.7380   11.5250  -11.1590 C.3    76  LEU76       0.0001
     67  CD2      -51.1800    9.0490  -10.9320 C.3    76  LEU76       0.0001
     68  N        -52.7030    9.6090   -6.3670 N.am   77  GLU77      -0.1966
     69  CA       -52.4860    9.8240   -4.9440 C.3    77  GLU77       0.1733
     70  C        -51.8190   11.1660   -4.7310 C.2    77  GLU77       0.2616
     71  O        -50.8440   11.4920   -5.4060 O.2    77  GLU77      -0.2715
     72  CB       -51.5510    8.7530   -4.3860 C.3    77  GLU77       0.0429
     73  CG       -52.1440    7.3630   -4.3160 C.3    77  GLU77       0.1163
     74  CD       -51.1260    6.3320   -3.8650 C.2    77  GLU77       0.3649
     75  OE1      -51.3200    5.7450   -2.7770 O.co2  77  GLU77      -0.2457
     76  OE2      -50.1290    6.1190   -4.5950 O.co2  77  GLU77      -0.2457
     77  N        -52.3230   11.9480   -3.7870 N.am   78  LEU78      -0.1963
     78  CA       -51.6650   13.2030   -3.4690 C.3    78  LEU78       0.1728
     79  C        -50.4320   12.9300   -2.6200 C.2    78  LEU78       0.2616
     80  O        -50.5120   12.2610   -1.5900 O.2    78  LEU78      -0.2715
     81  CB       -52.6010   14.1500   -2.7280 C.3    78  LEU78       0.0311
     82  CG       -51.8930   15.4460   -2.3290 C.3    78  LEU78       0.0022
     83  CD1      -51.7400   16.3680   -3.5430 C.3    78  LEU78       0.0001
     84  CD2      -52.6340   16.1430   -1.2060 C.3    78  LEU78       0.0001
     85  N        -49.2900   13.4400   -3.0660 N.am   79  MET79      -0.1963
     86  CA       -48.0480   13.3240   -2.3120 C.3    79  MET79       0.1736
     87  C        -47.7170   14.6750   -1.6850 C.2    79  MET79       0.2616
     88  O        -47.2670   15.5930   -2.3650 O.2    79  MET79      -0.2715
     89  CB       -46.9080   12.8530   -3.2180 C.3    79  MET79       0.0427
     90  CG       -47.1170   11.4680   -3.7790 C.3    79  MET79       0.0599
     91  SD       -47.0550   10.1950   -2.5080 S.3    79  MET79      -0.1393
     92  CE       -45.3180   10.2550   -2.0930 C.3    79  MET79       0.0692
     93  N        -47.9400   14.7860   -0.3830 N.am   80  GLU80      -0.1963
     94  CA       -47.8760   16.0760    0.2910 C.3    80  GLU80       0.1733
     95  C        -46.4680   16.6660    0.3600 C.2    80  GLU80       0.2617
     96  O        -46.3020   17.8820    0.3700 O.2    80  GLU80      -0.2715
     97  CB       -48.5090   15.9820    1.6850 C.3    80  GLU80       0.0429
     98  CG       -49.8390   15.2240    1.7010 C.3    80  GLU80       0.1163
     99  CD       -50.8500   15.8040    2.6790 C.2    80  GLU80       0.3649
    100  OE1      -51.3280   15.0510    3.5560 O.co2  80  GLU80      -0.2457
    101  OE2      -51.1690   17.0100    2.5680 O.co2  80  GLU80      -0.2457
    102  N        -45.4570   15.8080    0.3900 N.am   81  GLY81      -0.1940
    103  CA       -44.0810   16.2680    0.4570 C.3    81  GLY81       0.2014
    104  C        -43.5890   16.9860   -0.7880 C.2    81  GLY81       0.2639
    105  O        -42.5880   17.7000   -0.7460 O.2    81  GLY81      -0.2714
    106  N        -44.2860   16.7930   -1.9030 N.am   82  GLY82      -0.1939
    107  CA       -43.8780   17.3930   -3.1600 C.3    82  GLY82       0.2014
    108  C        -42.7370   16.6550   -3.8500 C.2    82  GLY82       0.2638
    109  O        -42.4750   15.4760   -3.5740 O.2    82  GLY82      -0.2714
    110  N        -42.0600   17.3590   -4.7560 N.am   83  GLU83      -0.1977
    111  CA       -40.9620   16.7860   -5.5230 C.3    83  GLU83       0.1602
    112  C        -39.6410   16.8310   -4.7620 C.2    83  GLU83       0.2287
    113  O        -39.3380   17.8060   -4.0800 O.2    83  GLU83      -0.2864
    114  CB       -40.7910   17.5250   -6.8510 C.3    83  GLU83       0.0415
    115  CG       -42.0510   17.6290   -7.6830 C.3    83  GLU83       0.1163
    116  CD       -41.8240   18.3900   -8.9740 C.2    83  GLU83       0.3649
    117  OE1      -40.7300   18.9810   -9.1300 O.co2  83  GLU83      -0.2457
    118  OE2      -42.7350   18.3890   -9.8340 O.co2  83  GLU83      -0.2457
    119  N        -37.2310   19.9770   -5.2660 N.3    86  ASP86      -0.1239
    120  CA       -37.2350   21.1920   -4.4640 C.3    86  ASP86       0.1674
    121  C        -36.4170   21.0580   -3.1840 C.2    86  ASP86       0.2266
    122  O        -36.2220   22.0370   -2.4690 O.2    86  ASP86      -0.2867
    123  CB       -38.6690   21.6450   -4.1650 C.3    86  ASP86       0.1410
    124  CG       -39.3800   22.1800   -5.4070 C.2    86  ASP86       0.3668
    125  OD1      -38.9280   23.2090   -5.9650 O.co2  86  ASP86      -0.2456
    126  OD2      -40.3900   21.5700   -5.8290 O.co2  86  ASP86      -0.2456
    127  N        -37.4260   15.4590  -10.2190 N.3   126  GLU126     -0.1231
    128  CA       -38.8040   15.9340  -10.4060 C.3   126  GLU126      0.1699
    129  C        -39.8430   14.8180  -10.3940 C.2   126  GLU126      0.2592
    130  O        -41.0080   15.0560  -10.0840 O.2   126  GLU126     -0.2718
    131  CB       -38.9510   16.7160  -11.7150 C.3   126  GLU126      0.0402
    132  CG       -38.1590   18.0070  -11.7680 C.3   126  GLU126      0.1161
    133  CD       -36.7330   17.8050  -12.2440 C.2   126  GLU126      0.3649
    134  OE1      -36.0560   16.8600  -11.7760 O.co2 126  GLU126     -0.2457
    135  OE2      -36.2870   18.6070  -13.0880 O.co2 126  GLU126     -0.2457
    136  N        -39.4240   13.6070  -10.7520 N.am  127  ASN127     -0.1974
    137  CA       -40.3490   12.4870  -10.8430 C.3   127  ASN127      0.1688
    138  C        -40.3300   11.6210   -9.6030 C.2   127  ASN127      0.2292
    139  O        -40.9140   10.5420   -9.5830 O.2   127  ASN127     -0.2864
    140  CB       -40.0600   11.6420  -12.0790 C.3   127  ASN127      0.1181
    141  CG       -40.2750   12.4080  -13.3570 C.2   127  ASN127      0.2629
    142  OD1      -41.0270   13.3850  -13.3890 O.2   127  ASN127     -0.2716
    143  ND2      -39.6120   11.9800  -14.4200 N.am  127  ASN127     -0.0877
    144  N        -41.4370   11.6710   -5.6420 N.3   129  LEU129     -0.1245
    145  CA       -42.3190   12.4260   -4.7580 C.3   129  LEU129      0.1561
    146  C        -42.2490   11.9600   -3.3110 C.2   129  LEU129      0.2260
    147  O        -42.1210   10.7660   -3.0350 O.2   129  LEU129     -0.2867
    148  CB       -43.7580   12.3690   -5.2650 C.3   129  LEU129      0.0270
    149  CG       -43.9010   12.6320   -6.7610 C.3   129  LEU129      0.0019
    150  CD1      -45.3600   12.5740   -7.2060 C.3   129  LEU129      0.0001
    151  CD2      -43.2810   13.9620   -7.1130 C.3   129  LEU129      0.0001
    152  N        -44.1670   16.1840    4.6370 N.3   133  GLN133     -0.1245
    153  CA       -43.2120   17.2680    4.7940 C.3   133  GLN133      0.1566
    154  C        -42.1040   16.8920    5.7760 C.2   133  GLN133      0.2260
    155  O        -41.1100   17.6040    5.9060 O.2   133  GLN133     -0.2867
    156  CB       -43.9260   18.5450    5.2340 C.3   133  GLN133      0.0367
    157  CG       -44.9860   19.0140    4.2530 C.3   133  GLN133      0.0905
    158  CD       -45.2070   20.5170    4.3010 C.2   133  GLN133      0.2608
    159  OE1      -44.8600   21.1800    5.2800 O.2   133  GLN133     -0.2717
    160  NE2      -45.7860   21.0640    3.2380 N.am  133  GLN133     -0.0878
    161  N        -42.8630    8.5380  -10.1470 N.3   142  THR142     -0.1203
    162  CA       -43.9580    9.0150  -10.9700 C.3   142  THR142      0.1994
    163  C        -43.5120    9.2880  -12.4110 C.2   142  THR142      0.2617
    164  O        -42.3130    9.2620  -12.7310 O.2   142  THR142     -0.2717
    165  CB       -44.5500   10.3160  -10.3770 C.3   142  THR142      0.1784
    166  OG1      -45.8480   10.5620  -10.9340 O.3   142  THR142     -0.2211
    167  CG2      -43.6320   11.5030  -10.6690 C.3   142  THR142      0.0376
    168  N        -44.5020    9.5480  -13.2650 N.am  143  ASP143     -0.1973
    169  CA       -44.3170    9.9550  -14.6650 C.3   143  ASP143      0.1709
    170  C        -43.8160    8.8640  -15.6050 C.2   143  ASP143      0.2293
    171  O        -42.6260    8.8020  -15.9290 O.2   143  ASP143     -0.2864
    172  CB       -43.4310   11.1870  -14.7810 C.3   143  ASP143      0.1436
    173  CG       -43.7130   11.9630  -16.0400 C.2   143  ASP143      0.3671
    174  OD1      -44.2550   11.3460  -16.9910 O.co2 143  ASP143     -0.2456
    175  OD2      -43.4180   13.1780  -16.0780 O.co2 143  ASP143     -0.2456
@<TRIPOS>BOND
     1    43    44    1
     2    44    47    1
     3    44    45    1
     4    47    48    1
     5    51    49   ar
     6    45    46    2
     7    48    49    1
     8    49    50   ar
     9   174   173   ar
    10    41    42    1
    11    41    40    1
    12   175   173   ar
    13   173   172    1
    14   171   170    2
    15    37    36    2
    16   170   169    1
    17    36    35    1
    18    39    40    1
    19    39    38    1
    20   172   169    1
    21   169   168    1
    22   143   141   am
    23    38    35    1
    24    35    34    1
    25   142   141    2
    26   141   140    1
    27   168   163   am
    28   135   133   ar
    29    22    23    1
    30   164   163    2
    31   163   162    1
    32    21    20    2
    33   133   134   ar
    34   133   132    1
    35   140   137    1
    36   132   131    1
    37    28    26    1
    38    20    19    1
    39   131   128    1
    40    23    26    1
    41    23    24    1
    42    66    65    1
    43   162   165    1
    44   162   161    1
    45   166   165    1
    46    67    65    1
    47    26    27    1
    48   137   136    1
    49   137   138    1
    50   136   129   am
    51    24    25    2
    52   167   165    1
    53    65    64    1
    54   128   129    1
    55   128   127    1
    56   129   130    2
    57    19    18    1
    58   118   116   ar
    59    58    56    1
    60   138   139    2
    61    18    12   am
    62    60    61    1
    63    64    61    1
    64   117   116   ar
    65    32    31    2
    66    55    54    2
    67   116   115    1
    68    31    30    1
    69    61    62    1
    70    56    57    1
    71    56    53    1
    72    10    11    1
    73    12    13    2
    74    12    11    1
    75    54    53    1
    76    57    59    1
    77   115   114    1
    78    52    53    1
    79     3     4    2
    80     3     2    1
    81    30    33    1
    82    30    29    1
    83    11    14    1
    84   150   149    1
    85    62    63    2
    86    62    68   am
    87   151   149    1
    88    14    15    1
    89   114   111    1
    90   149   148    1
    91     2     1    1
    92     2     5    1
    93    68    69    1
    94    15    16    1
    95    15    17    1
    96   125   124   ar
    97   126   124   ar
    98   144   145    1
    99   111   112    1
   100   111   110    1
   101   124   123    1
   102    71    70    2
   103     5     6    1
   104   119   120    1
   105   148   145    1
   106    69    70    1
   107    69    72    1
   108   112   113    2
   109   145   146    1
   110   110   108   am
   111    70    77   am
   112    76    74   ar
   113   120   123    1
   114   120   121    1
   115    72    73    1
   116     6     7    1
   117    73    74    1
   118    74    75   ar
   119   108   109    2
   120   108   107    1
   121    77    78    1
   122    90    89    1
   123    90    91    1
   124    83    82    1
   125    78    81    1
   126    78    79    1
   127   146   147    2
   128    89    86    1
   129   121   122    2
   130   107   106    1
   131     7     8    1
   132    85    79   am
   133    85    86    1
   134    81    82    1
   135    79    80    2
   136    91    92    1
   137     8     9    1
   138    88    87    2
   139    82    84    1
   140    86    87    1
   141   106   104   am
   142    87    93   am
   143   104   105    2
   144   104   103    1
   145    93    94    1
   146    94    95    1
   147    94    97    1
   148    95    96    2
   149    95   102   am
   150   102   103    1
   151    97    98    1
   152    98    99    1
   153   101    99   ar
   154    99   100   ar
   155   160   158   am
   156   157   158    1
   157   157   156    1
   158   158   159    2
   159   152   153    1
   160   153   156    1
   161   153   154    1
   162   154   155    2
