@<TRIPOS>MOLECULE
tmp/2wtjA00.pdb
 167 154 0 0 0
SMALL
GASTEIGER

@<TRIPOS>ATOM
      1  N          6.8030  -60.6600    9.4680 N.3    16  LYS16      -0.1245
      2  CA         5.5730  -59.9610    9.0930 C.3    16  LYS16       0.1561
      3  C          5.7960  -58.7140    8.2430 C.2    16  LYS16       0.2260
      4  O          6.8360  -58.0570    8.3350 O.2    16  LYS16      -0.2867
      5  CB         4.7770  -59.5840   10.3470 C.3    16  LYS16       0.0271
      6  CG         5.4940  -58.5820   11.2530 C.3    16  LYS16       0.0035
      7  CD         5.0070  -58.6700   12.6960 C.3    16  LYS16       0.0206
      8  CE         3.8490  -57.7210   12.9770 C.3    16  LYS16       0.1093
      9  NZ         4.3170  -56.3690   13.4110 N.3    16  LYS16      -0.1314
     10  N          5.3590  -54.8910    7.4110 N.3    18  LEU18      -0.1245
     11  CA         5.2310  -53.7060    8.2550 C.3    18  LEU18       0.1561
     12  C          4.5540  -52.5790    7.4850 C.2    18  LEU18       0.2260
     13  O          3.8950  -51.7200    8.0750 O.2    18  LEU18      -0.2867
     14  CB         6.6000  -53.2510    8.7700 C.3    18  LEU18       0.0270
     15  CG         7.3930  -54.3070    9.5480 C.3    18  LEU18       0.0019
     16  CD1        8.8330  -53.8630    9.7850 C.3    18  LEU18       0.0001
     17  CD2        6.7030  -54.6450   10.8680 C.3    18  LEU18       0.0001
     18  N          7.2460  -52.6550   -0.5220 N.3    21  GLU21      -0.1231
     19  CA         6.8850  -53.3460    0.7140 C.3    21  GLU21       0.1699
     20  C          8.0500  -53.4500    1.7050 C.2    21  GLU21       0.2592
     21  O          9.2000  -53.6650    1.3150 O.2    21  GLU21      -0.2718
     22  CB         6.3460  -54.7450    0.4090 C.3    21  GLU21       0.0402
     23  CG         5.7510  -55.4420    1.6240 C.3    21  GLU21       0.1161
     24  CD         5.3290  -56.8740    1.3400 C.2    21  GLU21       0.3649
     25  OE1        4.9140  -57.5700    2.2920 O.co2  21  GLU21      -0.2457
     26  OE2        5.4120  -57.3080    0.1700 O.co2  21  GLU21      -0.2457
     27  N          7.7350  -53.3070    2.9880 N.am   22  VAL22      -0.1980
     28  CA         8.7260  -53.4340    4.0500 C.3    22  VAL22       0.1595
     29  C          8.3670  -54.5790    4.9960 C.2    22  VAL22       0.2287
     30  O          7.2540  -54.6430    5.5190 O.2    22  VAL22      -0.2864
     31  CB         8.8460  -52.1390    4.8660 C.3    22  VAL22       0.0276
     32  CG1        9.9680  -52.2650    5.8930 C.3    22  VAL22       0.0022
     33  CG2        9.0880  -50.9480    3.9430 C.3    22  VAL22       0.0022
     34  N         14.7070  -54.3540    9.3120 N.3    35  ALA35      -0.1245
     35  CA        13.6200  -54.1620    8.3690 C.3    35  ALA35       0.1562
     36  C         14.1640  -54.3950    6.9690 C.2    35  ALA35       0.2260
     37  O         15.2760  -53.9670    6.6460 O.2    35  ALA35      -0.2867
     38  CB        13.0430  -52.7590    8.5000 C.3    35  ALA35       0.0290
     39  N         13.3710  -53.8320    2.9740 N.3    37  LYS37      -0.1245
     40  CA        12.5690  -53.1710    1.9520 C.3    37  LYS37       0.1561
     41  C         12.6760  -53.9680    0.6660 C.2    37  LYS37       0.2260
     42  O         13.7740  -54.2070    0.1610 O.2    37  LYS37      -0.2867
     43  CB        13.0620  -51.7370    1.7410 C.3    37  LYS37       0.0271
     44  CG        12.2170  -50.8900    0.7910 C.3    37  LYS37       0.0035
     45  CD        12.7290  -49.4490    0.7670 C.3    37  LYS37       0.0206
     46  CE        12.1380  -48.6370   -0.3770 C.3    37  LYS37       0.1093
     47  NZ        12.8130  -47.3050   -0.5050 N.3    37  LYS37      -0.1314
     48  N         18.6290  -42.9790    7.9970 N.3    62  ILE62      -0.1245
     49  CA        18.6380  -44.4410    8.0560 C.3    62  ILE62       0.1561
     50  C         19.9210  -45.0250    7.4510 C.2    62  ILE62       0.2260
     51  O         20.4680  -44.4950    6.4740 O.2    62  ILE62      -0.2867
     52  CB        17.4140  -45.0300    7.3140 C.3    62  ILE62       0.0252
     53  CG1       17.0970  -46.4470    7.7980 C.3    62  ILE62       0.0019
     54  CG2       17.6440  -45.0330    5.8190 C.3    62  ILE62       0.0019
     55  CD1       16.4050  -46.4780    9.1280 C.3    62  ILE62       0.0001
     56  N         17.5590  -52.6840    6.2740 N.3    77  LEU77      -0.1231
     57  CA        17.7620  -51.4580    7.0320 C.3    77  LEU77       0.1693
     58  C         17.5920  -51.6700    8.5240 C.2    77  LEU77       0.2592
     59  O         17.0500  -52.6840    8.9700 O.2    77  LEU77      -0.2718
     60  CB        16.7580  -50.4000    6.5860 C.3    77  LEU77       0.0284
     61  CG        16.6430  -50.1600    5.0830 C.3    77  LEU77       0.0019
     62  CD1       15.3110  -49.4870    4.7500 C.3    77  LEU77       0.0001
     63  CD2       17.8030  -49.3260    4.6090 C.3    77  LEU77       0.0001
     64  N         18.0520  -50.6880    9.2900 N.am   78  GLU78      -0.1966
     65  CA        17.7020  -50.5800   10.6900 C.3    78  GLU78       0.1733
     66  C         16.1880  -50.6660   10.8670 C.2    78  GLU78       0.2616
     67  O         15.4220  -50.1000   10.0840 O.2    78  GLU78      -0.2715
     68  CB        18.1880  -49.2400   11.2340 C.3    78  GLU78       0.0429
     69  CG        19.6690  -48.9970   11.0200 C.3    78  GLU78       0.1163
     70  CD        20.1060  -47.6230   11.4890 C.2    78  GLU78       0.3649
     71  OE1       20.7190  -47.5410   12.5780 O.co2  78  GLU78      -0.2457
     72  OE2       19.8330  -46.6320   10.7730 O.co2  78  GLU78      -0.2457
     73  N         15.7500  -51.3690   11.9020 N.am   79  LEU79      -0.1963
     74  CA        14.3370  -51.3880   12.2250 C.3    79  LEU79       0.1728
     75  C         14.0210  -50.1770   13.0860 C.2    79  LEU79       0.2616
     76  O         14.6590  -49.9480   14.1130 O.2    79  LEU79      -0.2715
     77  CB        13.9570  -52.6600   12.9810 C.3    79  LEU79       0.0311
     78  CG        12.4710  -52.6710   13.3520 C.3    79  LEU79       0.0022
     79  CD1       11.6230  -52.9550   12.1110 C.3    79  LEU79       0.0001
     80  CD2       12.1760  -53.6800   14.4500 C.3    79  LEU79       0.0001
     81  N         13.0400  -49.3950   12.6660 N.am   80  MET80      -0.1963
     82  CA        12.6220  -48.2500   13.4530 C.3    80  MET80       0.1736
     83  C         11.3110  -48.6270   14.1310 C.2    80  MET80       0.2616
     84  O         10.2630  -48.6670   13.4960 O.2    80  MET80      -0.2715
     85  CB        12.5020  -46.9970   12.5770 C.3    80  MET80       0.0427
     86  CG        13.8460  -46.5400   12.0100 C.3    80  MET80       0.0599
     87  SD        14.9990  -46.0110   13.2940 S.3    80  MET80      -0.1393
     88  CE        14.3130  -44.4180   13.7160 C.3    80  MET80       0.0692
     89  N         11.3940  -48.9240   15.4240 N.am   81  GLU81      -0.1977
     90  CA        10.2870  -49.5420   16.1470 C.3    81  GLU81       0.1602
     91  C          9.0530  -48.6510   16.2360 C.2    81  GLU81       0.2287
     92  O          7.9290  -49.1500   16.2960 O.2    81  GLU81      -0.2864
     93  CB        10.7440  -49.9830   17.5440 C.3    81  GLU81       0.0415
     94  CG        12.1040  -50.6720   17.5420 C.3    81  GLU81       0.1163
     95  CD        12.2650  -51.6770   18.6680 C.2    81  GLU81       0.3649
     96  OE1       12.9050  -51.3340   19.6880 O.co2  81  GLU81      -0.2457
     97  OE2       11.7490  -52.8090   18.5330 O.co2  81  GLU81      -0.2457
     98  N          7.8390  -46.8430   13.9240 N.3    83  GLY83      -0.1210
     99  CA         7.1090  -46.7880   12.6720 C.3    83  GLY83       0.1956
    100  C          7.1190  -45.4100   12.0280 C.2    83  GLY83       0.2611
    101  O          7.9580  -44.5660   12.3480 O.2    83  GLY83      -0.2717
    102  N          6.1780  -45.1840   11.1140 N.am   84  GLU84      -0.1979
    103  CA         6.1600  -43.9730   10.2970 C.3    84  GLU84       0.1602
    104  C          5.4760  -42.7840   10.9640 C.2    84  GLU84       0.2287
    105  O          4.4630  -42.9390   11.6390 O.2    84  GLU84      -0.2864
    106  CB         5.4530  -44.2450    8.9730 C.3    84  GLU84       0.0415
    107  CG         6.0090  -45.4080    8.1960 C.3    84  GLU84       0.1163
    108  CD         5.1140  -45.7900    7.0390 C.2    84  GLU84       0.3649
    109  OE1        4.1350  -45.0600    6.7690 O.co2  84  GLU84      -0.2457
    110  OE2        5.3930  -46.8190    6.3990 O.co2  84  GLU84      -0.2457
    111  N          1.5670  -42.3090   10.5850 N.3    87  ASP87      -0.1239
    112  CA         0.5630  -42.8790   11.4830 C.3    87  ASP87       0.1674
    113  C          0.2220  -41.9500   12.6380 C.2    87  ASP87       0.2266
    114  O         -0.8020  -42.1270   13.2950 O.2    87  ASP87      -0.2867
    115  CB         1.0180  -44.2330   12.0340 C.3    87  ASP87       0.1410
    116  CG         1.0170  -45.3230   10.9790 C.2    87  ASP87       0.3668
    117  OD1        0.4060  -45.1190    9.9070 O.co2  87  ASP87      -0.2456
    118  OD2        1.6230  -46.3870   11.2260 O.co2  87  ASP87      -0.2456
    119  N          5.4940  -40.3730    5.5040 N.3   127  GLU127     -0.1231
    120  CA         5.7580  -41.8110    5.4330 C.3   127  GLU127      0.1699
    121  C          7.2430  -42.1680    5.2440 C.2   127  GLU127      0.2592
    122  O          7.6210  -43.3360    5.3520 O.2   127  GLU127     -0.2718
    123  CB         4.8910  -42.4850    4.3600 C.3   127  GLU127      0.0402
    124  CG         4.7890  -41.7300    3.0490 C.3   127  GLU127      0.1161
    125  CD         3.5920  -40.7820    2.9890 C.2   127  GLU127      0.3649
    126  OE1        2.7240  -40.9870    2.1180 O.co2 127  GLU127     -0.2457
    127  OE2        3.5140  -39.8310    3.7970 O.co2 127  GLU127     -0.2457
    128  N          8.0780  -41.1650    4.9780 N.am  128  ASN128     -0.1974
    129  CA         9.5250  -41.3750    4.8380 C.3   128  ASN128      0.1688
    130  C         10.2690  -40.8770    6.0580 C.2   128  ASN128      0.2292
    131  O         11.5060  -40.8170    6.0720 O.2   128  ASN128     -0.2864
    132  CB        10.0580  -40.6450    3.6080 C.3   128  ASN128      0.1181
    133  CG         9.1210  -40.7430    2.4360 C.2   128  ASN128      0.2629
    134  OD1        8.6910  -39.7280    1.8870 O.2   128  ASN128     -0.2716
    135  ND2        8.7670  -41.9700    2.0630 N.am  128  ASN128     -0.0877
    136  N         10.8520  -41.8250    9.9070 N.3   130  LEU130     -0.1245
    137  CA        10.6810  -42.9580   10.8110 C.3   130  LEU130      0.1561
    138  C         11.0020  -42.6060   12.2570 C.2   130  LEU130      0.2260
    139  O         11.9180  -41.8340   12.5320 O.2   130  LEU130     -0.2867
    140  CB        11.5550  -44.1290   10.3710 C.3   130  LEU130      0.0270
    141  CG        11.3520  -44.6390    8.9460 C.3   130  LEU130      0.0019
    142  CD1       12.3680  -45.7320    8.6280 C.3   130  LEU130      0.0001
    143  CD2        9.9340  -45.1320    8.7420 C.3   130  LEU130      0.0001
    144  N          8.2000  -46.2030   20.3740 N.3   134  GLN134     -0.1245
    145  CA         6.7850  -45.8980   20.5310 C.3   134  GLN134      0.1566
    146  C          6.5750  -44.7580   21.5250 C.2   134  GLN134      0.2260
    147  O          5.4790  -44.2090   21.6240 O.2   134  GLN134     -0.2867
    148  CB         6.0150  -47.1500   20.9550 C.3   134  GLN134      0.0367
    149  CG         6.0250  -48.2880   19.9330 C.3   134  GLN134      0.0905
    150  CD         7.2690  -49.1510   20.0150 C.2   134  GLN134      0.2608
    151  OE1        8.0360  -49.0550   20.9680 O.2   134  GLN134     -0.2717
    152  NE2        7.4650  -50.0170   19.0250 N.am  134  GLN134     -0.0878
    153  N         14.2550  -41.6840    5.4420 N.3   143  THR143     -0.1203
    154  CA        14.5180  -42.8420    4.6060 C.3   143  THR143      0.1994
    155  C         13.9240  -42.6590    3.1980 C.2   143  THR143      0.2617
    156  O         13.3940  -41.5900    2.8780 O.2   143  THR143     -0.2717
    157  CB        13.9360  -44.1090    5.2480 C.3   143  THR143      0.1784
    158  OG1       14.4640  -45.2700    4.5880 O.3   143  THR143     -0.2211
    159  CG2       12.4200  -44.1010    5.1520 C.3   143  THR143      0.0376
    160  N         14.0290  -43.7020    2.3690 N.am  144  ASP144     -0.1973
    161  CA        13.4710  -43.7170    1.0030 C.3   144  ASP144      0.1709
    162  C         14.0970  -42.6910    0.0560 C.2   144  ASP144      0.2293
    163  O         13.4590  -41.7090   -0.3420 O.2   144  ASP144     -0.2864
    164  CB        11.9480  -43.5670    1.0240 C.3   144  ASP144      0.1436
    165  CG        11.2680  -44.6760    1.8120 C.2   144  ASP144      0.3671
    166  OD1       11.7690  -45.8280    1.7830 O.co2 144  ASP144     -0.2456
    167  OD2       10.2330  -44.3990    2.4580 O.co2 144  ASP144     -0.2456
@<TRIPOS>BOND
     1    18    19    1
     2    47    46    1
     3    46    45    1
     4   163   162    2
     5   162   161    1
     6    42    41    2
     7    26    24   ar
     8    22    19    1
     9    22    23    1
    10    41    40    1
    11    19    20    1
    12    45    44    1
    13    44    43    1
    14   161   164    1
    15   161   160    1
    16   164   165    1
    17    21    20    2
    18    24    23    1
    19    24    25   ar
    20    20    27   am
    21    43    40    1
    22   166   165   ar
    23   165   167   ar
    24   134   133    2
    25    40    39    1
    26   135   133   am
    27   126   125   ar
    28   160   155   am
    29   133   132    1
    30   156   155    2
    31    27    28    1
    32   125   124    1
    33   125   127   ar
    34   124   123    1
    35   155   154    1
    36   132   129    1
    37    33    31    1
    38    28    31    1
    39    28    29    1
    40   123   120    1
    41   158   157    1
    42   154   157    1
    43   154   153    1
    44    63    61    1
    45    62    61    1
    46   129   128    1
    47   129   130    1
    48    31    32    1
    49   128   121   am
    50    29    30    2
    51    61    60    1
    52   159   157    1
    53   121   122    2
    54   121   120    1
    55   120   119    1
    56    54    52    1
    57   130   131    2
    58    56    57    1
    59   110   108   ar
    60    51    50    2
    61    60    57    1
    62    37    36    2
    63   109   108   ar
    64    36    35    1
    65    57    58    1
    66   108   107    1
    67    52    53    1
    68    52    49    1
    69    10    11    1
    70    50    49    1
    71    12    13    2
    72    12    11    1
    73    53    55    1
    74    48    49    1
    75   107   106    1
    76     3     4    2
    77     3     2    1
    78    11    14    1
    79    35    38    1
    80    35    34    1
    81    58    59    2
    82    58    64   am
    83   142   141    1
    84   143   141    1
    85    14    15    1
    86   141   140    1
    87   106   103    1
    88     2     1    1
    89     2     5    1
    90    64    65    1
    91    15    16    1
    92    15    17    1
    93   136   137    1
    94   117   116   ar
    95    67    66    2
    96   103   104    1
    97   103   102    1
    98     5     6    1
    99   140   137    1
   100   111   112    1
   101    65    66    1
   102    65    68    1
   103    72    70   ar
   104   137   138    1
   105    66    73   am
   106   104   105    2
   107   116   118   ar
   108   116   115    1
   109    69    68    1
   110    69    70    1
   111   102   100   am
   112     6     7    1
   113   112   115    1
   114   112   113    1
   115    70    71   ar
   116    73    74    1
   117    86    85    1
   118    86    87    1
   119   100   101    2
   120   100    99    1
   121    79    78    1
   122    74    77    1
   123    74    75    1
   124   138   139    2
   125    85    82    1
   126   113   114    2
   127    81    75   am
   128    81    82    1
   129    99    98    1
   130     7     8    1
   131     8     9    1
   132    77    78    1
   133    75    76    2
   134    87    88    1
   135    78    80    1
   136    82    83    1
   137    84    83    2
   138    83    89   am
   139    89    90    1
   140    90    91    1
   141    90    93    1
   142    91    92    2
   143    94    93    1
   144    94    95    1
   145    97    95   ar
   146    95    96   ar
   147   152   150   am
   148   149   150    1
   149   149   148    1
   150   150   151    2
   151   144   145    1
   152   145   148    1
   153   145   146    1
   154   146   147    2
