@<TRIPOS>MOLECULE
tmp/2wtkB00.pdb
 207 195 0 0 0
SMALL
GASTEIGER

@<TRIPOS>ATOM
      1  N        -43.3720    7.5280   39.0820 N.3    15  ILE15      -0.1231
      2  CA       -44.1320    6.9310   40.1810 C.3    15  ILE15       0.1692
      3  C        -45.4870    7.6160   40.4300 C.2    15  ILE15       0.2593
      4  O        -46.3560    7.0740   41.1350 O.2    15  ILE15      -0.2718
      5  CB       -43.2910    6.8380   41.4950 C.3    15  ILE15       0.0266
      6  CG1      -42.6910    8.1900   41.8770 C.3    15  ILE15       0.0019
      7  CG2      -42.1850    5.8100   41.3490 C.3    15  ILE15       0.0020
      8  CD1      -42.2360    8.2540   43.3240 C.3    15  ILE15       0.0001
      9  N        -45.6470    8.7930   39.8270 N.am   16  GLY16      -0.1942
     10  CA       -46.8490    9.6220   39.9340 C.3    16  GLY16       0.2014
     11  C        -46.7620   10.8810   39.0690 C.2    16  GLY16       0.2639
     12  O        -45.7240   11.1630   38.4520 O.2    16  GLY16      -0.2714
     13  N        -47.8710   11.6230   39.0210 N.am   17  LYS17      -0.1963
     14  CA       -47.9680   12.8970   38.2950 C.3    17  LYS17       0.1731
     15  C        -48.8300   13.8590   39.1100 C.2    17  LYS17       0.2656
     16  O        -49.3540   13.4760   40.1440 O.2    17  LYS17      -0.2711
     17  CB       -48.5170   12.7040   36.8670 C.3    17  LYS17       0.0312
     18  CG       -50.0220   12.3820   36.7540 C.3    17  LYS17       0.0038
     19  CD       -50.4300   12.1670   35.2860 C.3    17  LYS17       0.0206
     20  CE       -51.9040   11.7710   35.1200 C.3    17  LYS17       0.1093
     21  NZ       -52.3620   11.8700   33.6880 N.3    17  LYS17      -0.1314
     22  N        -48.9710   15.1010   38.6670 N.am   18  GLY18      -0.1716
     23  CA       -49.7760   16.0670   39.4060 C.2    18  GLY18       0.1480
     24  C        -49.6260   17.5290   39.0240 C.2    18  GLY18       0.2820
     25  O        -49.0280   17.8740   37.9960 O.2    18  GLY18      -0.2669
     26  N        -50.1960   18.3810   39.8660 N.am   19  PHE19      -0.1939
     27  CA       -50.3080   19.8260   39.6290 C.3    19  PHE19       0.1642
     28  C        -50.7530   20.1550   38.2160 C.2    19  PHE19       0.2290
     29  O        -49.9480   20.5560   37.3820 O.2    19  PHE19      -0.2864
     30  CB       -49.0200   20.5850   39.9940 C.3    19  PHE19       0.0560
     31  CG       -49.2400   22.0540   40.2490 C.ar   19  PHE19      -0.0200
     32  CD1      -50.0280   22.4780   41.3260 C.ar   19  PHE19      -0.0042
     33  CD2      -48.6590   23.0150   39.4240 C.ar   19  PHE19      -0.0042
     34  CE1      -50.2450   23.8390   41.5730 C.ar   19  PHE19      -0.0003
     35  CE2      -48.8620   24.3710   39.6570 C.ar   19  PHE19      -0.0003
     36  CZ       -49.6590   24.7860   40.7320 C.ar   19  PHE19      -0.0000
     37  N        -46.6190   18.1730   36.7660 N.3    23  MET23      -0.1245
     38  CA       -45.6000   17.6430   37.6450 C.3    23  MET23       0.1570
     39  C        -45.3880   16.2020   37.3280 C.2    23  MET23       0.2261
     40  O        -46.3530   15.4550   37.2080 O.2    23  MET23      -0.2867
     41  CB       -46.0020   17.7610   39.1250 C.3    23  MET23       0.0387
     42  CG       -44.9830   17.1360   40.0590 C.3    23  MET23       0.0595
     43  SD       -45.2670   17.5430   41.7770 S.3    23  MET23      -0.1393
     44  CE       -46.6060   16.3910   42.1480 C.3    23  MET23       0.0692
     45  N        -43.5420   12.9300   39.0590 N.3    25  VAL25      -0.1245
     46  CA       -42.9260   12.3670   40.2640 C.3    25  VAL25       0.1561
     47  C        -42.0810   11.1460   39.9020 C.2    25  VAL25       0.2260
     48  O        -42.6150   10.0630   39.6610 O.2    25  VAL25      -0.2867
     49  CB       -43.9690   11.9520   41.3440 C.3    25  VAL25       0.0252
     50  CG1      -43.2880   11.8130   42.6800 C.3    25  VAL25       0.0019
     51  CG2      -45.0980   12.9730   41.4560 C.3    25  VAL25       0.0019
     52  N        -37.4460   10.1120   46.3950 N.3    38  THR38      -0.1218
     53  CA       -38.3690   10.6050   45.3910 C.3    38  THR38       0.1862
     54  C        -37.8780   11.9430   44.8840 C.2    38  THR38       0.2287
     55  O        -37.3410   12.7400   45.6630 O.2    38  THR38      -0.2866
     56  CB       -39.7680   10.7860   45.9590 C.3    38  THR38       0.1770
     57  OG1      -40.2670    9.5210   46.4110 O.3    38  THR38      -0.2211
     58  CG2      -40.7020   11.3610   44.8990 C.3    38  THR38       0.0375
     59  N        -39.6000   15.1800   42.7580 N.3    40  ARG40      -0.1245
     60  CA       -40.8380   15.8070   42.2780 C.3    40  ARG40       0.1563
     61  C        -40.5220   17.0080   41.3670 C.2    40  ARG40       0.2260
     62  O        -40.0920   18.0770   41.8510 O.2    40  ARG40      -0.2867
     63  CB       -41.7100   16.2110   43.4930 C.3    40  ARG40       0.0307
     64  CG       -41.9700   15.0120   44.4830 C.3    40  ARG40       0.0489
     65  CD       -42.4390   15.4350   45.9420 C.3    40  ARG40       0.2205
     66  NE       -43.5950   16.2920   45.8060 N.pl3  40  ARG40      -0.0865
     67  CZ       -44.8410   15.8650   45.6600 C.cat  40  ARG40       0.5346
     68  NH1      -45.1450   14.5490   45.7240 N.pl3  40  ARG40       0.1354
     69  NH2      -45.7960   16.7720   45.4750 N.pl3  40  ARG40       0.1354
     70  N        -44.9730   13.8360   55.9440 N.3    71  VAL71      -0.1245
     71  CA       -43.8810   13.6420   55.0060 C.3    71  VAL71       0.1561
     72  C        -43.0250   14.9270   54.8520 C.2    71  VAL71       0.2260
     73  O        -43.4980   15.9380   54.3240 O.2    71  VAL71      -0.2867
     74  CB       -44.4130   13.0350   53.6560 C.3    71  VAL71       0.0252
     75  CG1      -45.2660   14.0180   52.8690 C.3    71  VAL71       0.0019
     76  CG2      -43.2860   12.4750   52.8340 C.3    71  VAL71       0.0019
     77  N        -37.8500   14.2540   48.1920 N.3    87  THR87      -0.1203
     78  CA       -38.4380   13.6160   49.3840 C.3    87  THR87       0.1994
     79  C        -38.0480   12.1270   49.4500 C.2    87  THR87       0.2619
     80  O        -37.3530   11.6140   48.5680 O.2    87  THR87      -0.2717
     81  CB       -39.9960   13.7420   49.4440 C.3    87  THR87       0.1784
     82  OG1      -40.5910   12.7840   48.5710 O.3    87  THR87      -0.2211
     83  CG2      -40.4780   15.1270   49.0420 C.3    87  THR87       0.0376
     84  N        -38.4890   11.4420   50.4950 N.am   88  SER88      -0.1937
     85  CA       -38.2040   10.0290   50.6420 C.3    88  SER88       0.2055
     86  C        -39.2040    9.2020   49.8550 C.2    88  SER88       0.2643
     87  O        -40.3700    9.5640   49.7130 O.2    88  SER88      -0.2714
     88  CB       -38.2100    9.6060   52.1170 C.3    88  SER88       0.2130
     89  OG       -37.0730   10.0960   52.8120 O.3    88  SER88      -0.2179
     90  N        -38.7230    8.0870   49.3290 N.am   89  PHE89      -0.1959
     91  CA       -39.5480    7.1870   48.5800 C.3    89  PHE89       0.1771
     92  C        -40.2690    6.3560   49.6230 C.2    89  PHE89       0.2619
     93  O        -39.6840    5.9410   50.6470 O.2    89  PHE89      -0.2715
     94  CB       -38.6630    6.3560   47.6570 C.3    89  PHE89       0.0574
     95  CG       -39.3700    5.2240   46.9720 C.ar   89  PHE89      -0.0200
     96  CD1      -40.4080    5.4680   46.0700 C.ar   89  PHE89      -0.0042
     97  CD2      -38.9710    3.9130   47.1960 C.ar   89  PHE89      -0.0042
     98  CE1      -41.0690    4.4150   45.4250 C.ar   89  PHE89      -0.0003
     99  CE2      -39.6240    2.8460   46.5610 C.ar   89  PHE89      -0.0003
    100  CZ       -40.6790    3.0960   45.6730 C.ar   89  PHE89      -0.0000
    101  N        -41.5670    6.1870   49.4090 N.am   90  MET90      -0.1977
    102  CA       -42.3880    5.3790   50.3050 C.3    90  MET90       0.1605
    103  C        -42.7960    4.1350   49.5370 C.2    90  MET90       0.2287
    104  O        -43.7080    4.1590   48.7130 O.2    90  MET90      -0.2864
    105  CB       -43.5870    6.1780   50.8190 C.3    90  MET90       0.0413
    106  CG       -43.1990    7.5270   51.4790 C.3    90  MET90       0.0598
    107  SD       -42.0880    7.3300   52.8910 S.3    90  MET90      -0.1393
    108  CE       -41.9360    9.0220   53.4390 C.3    90  MET90       0.0692
    109  N        -46.0490    3.1210   47.9210 N.3    93  GLY93      -0.1210
    110  CA       -46.7400    4.1790   47.1980 C.3    93  GLY93       0.1956
    111  C        -47.7580    4.9030   48.0640 C.2    93  GLY93       0.2612
    112  O        -47.5700    5.0440   49.2690 O.2    93  GLY93      -0.2717
    113  N        -48.8280    5.3660   47.4250 N.am   94  SER94      -0.1952
    114  CA       -49.9920    5.9140   48.1050 C.3    94  SER94       0.1924
    115  C        -51.0340    4.8300   48.3870 C.2    94  SER94       0.2314
    116  O        -50.9810    3.7420   47.8320 O.2    94  SER94      -0.2863
    117  CB       -50.6420    7.0200   47.2690 C.3    94  SER94       0.2116
    118  OG       -51.2540    6.4900   46.0940 O.3    94  SER94      -0.2180
    119  N        -52.7580    4.1360   45.1300 N.3    97  ASP97      -0.1239
    120  CA       -51.9350    3.2000   44.3680 C.3    97  ASP97       0.1674
    121  C        -52.2160    1.7280   44.7100 C.2    97  ASP97       0.2266
    122  O        -52.3360    0.8950   43.7970 O.2    97  ASP97      -0.2867
    123  CB       -50.4540    3.5470   44.5250 C.3    97  ASP97       0.1410
    124  CG       -50.0610    4.7410   43.6950 C.2    97  ASP97       0.3668
    125  OD1      -50.2430    4.6880   42.4540 O.co2  97  ASP97      -0.2456
    126  OD2      -49.6010    5.7430   44.2840 O.co2  97  ASP97      -0.2456
    127  N        -57.1920   12.7000   50.8160 N.3   137  LYS137     -0.1245
    128  CA       -57.6610   11.6730   49.8910 C.3   137  LYS137      0.1561
    129  C        -56.6290   10.5350   49.8950 C.2   137  LYS137      0.2260
    130  O        -55.4880   10.7350   50.3420 O.2   137  LYS137     -0.2867
    131  CB       -57.8360   12.2740   48.4920 C.3   137  LYS137      0.0271
    132  CG       -56.5620   12.8940   47.8830 C.3   137  LYS137      0.0035
    133  CD       -56.8620   13.8570   46.7350 C.3   137  LYS137      0.0206
    134  CE       -56.8790   13.1880   45.3660 C.3   137  LYS137      0.1093
    135  NZ       -56.5570   14.1660   44.2450 N.3   137  LYS137     -0.1314
    136  N        -54.8710    9.0390   47.5040 N.3   139  SER139     -0.1202
    137  CA       -53.6450    9.3490   46.7590 C.3   139  SER139      0.2020
    138  C        -52.6430   10.2300   47.5530 C.2   139  SER139      0.2618
    139  O        -51.4500   10.2660   47.2250 O.2   139  SER139     -0.2717
    140  CB       -53.9520    9.9460   45.3720 C.3   139  SER139      0.2103
    141  OG       -54.2180   11.3350   45.4220 O.3   139  SER139     -0.2182
    142  N        -53.1350   10.9070   48.5940 N.am  140  HIS140     -0.1975
    143  CA       -52.2940   11.6930   49.4900 C.3   140  HIS140      0.1656
    144  C        -51.9790   11.0130   50.8360 C.2   140  HIS140      0.2291
    145  O        -51.6360   11.7020   51.8040 O.2   140  HIS140     -0.2864
    146  CB       -52.9060   13.0750   49.7690 C.3   140  HIS140      0.0771
    147  CG       -52.7850   14.0450   48.6380 C.ar  140  HIS140      0.0820
    148  ND1      -53.6070   15.1460   48.5170 N.ar  140  HIS140     -0.2267
    149  CD2      -51.9390   14.0890   47.5790 C.ar  140  HIS140      0.1154
    150  CE1      -53.2790   15.8190   47.4260 C.ar  140  HIS140      0.1986
    151  NE2      -52.2660   15.2040   46.8450 N.ar  140  HIS140     -0.2212
    152  N        -49.2400    8.2010   52.1520 N.3   142  LEU142     -0.1245
    153  CA       -48.0420    7.4540   51.7010 C.3   142  LEU142      0.1561
    154  C        -47.4940    6.4760   52.7340 C.2   142  LEU142      0.2260
    155  O        -47.3980    6.8210   53.9080 O.2   142  LEU142     -0.2867
    156  CB       -46.9490    8.4200   51.2470 C.3   142  LEU142      0.0270
    157  CG       -47.3610    9.3770   50.1200 C.3   142  LEU142      0.0019
    158  CD1      -46.2340   10.3660   49.7820 C.3   142  LEU142      0.0001
    159  CD2      -47.8290    8.6570   48.8670 C.3   142  LEU142      0.0001
    160  N        -49.3230   13.3900   53.0110 N.3   152  SER152     -0.1202
    161  CA       -48.7300   14.3130   52.0350 C.3   152  SER152      0.2020
    162  C        -49.7420   15.3940   51.6400 C.2   152  SER152      0.2619
    163  O        -50.6130   15.7570   52.4360 O.2   152  SER152     -0.2717
    164  CB       -48.2770   13.5430   50.7920 C.3   152  SER152      0.2103
    165  OG       -49.3940   12.9810   50.1220 O.3   152  SER152     -0.2182
    166  N        -49.6240   15.9020   50.4140 N.am  153  GLY153     -0.1956
    167  CA       -50.5710   16.8650   49.8790 C.3   153  GLY153      0.1869
    168  C        -50.4620   18.2360   50.5180 C.2   153  GLY153      0.2309
    169  O        -51.4400   18.9970   50.5050 O.2   153  GLY153     -0.2863
    170  N        -49.3910   20.9970   49.6370 N.3   155  ARG155     -0.1245
    171  CA       -49.5680   22.0990   48.6820 C.3   155  ARG155      0.1563
    172  C        -50.9150   22.7890   48.7320 C.2   155  ARG155      0.2260
    173  O        -50.9910   23.9760   48.3700 O.2   155  ARG155     -0.2867
    174  CB       -49.3330   21.5960   47.2540 C.3   155  ARG155      0.0307
    175  CG       -49.1490   22.6610   46.2070 C.3   155  ARG155      0.0489
    176  CD       -49.3560   22.1190   44.7930 C.3   155  ARG155      0.2205
    177  NE       -48.4750   21.0040   44.4580 N.pl3 155  ARG155     -0.0865
    178  CZ       -48.9060   19.8160   44.0330 C.cat 155  ARG155      0.5346
    179  NH1      -50.2110   19.5740   43.8880 N.pl3 155  ARG155      0.1354
    180  NH2      -48.0300   18.8700   43.7460 N.pl3 155  ARG155      0.1354
    181  N        -59.2570   18.2530   40.6730 N.3   179  LYS179     -0.1231
    182  CA       -59.1600   16.8250   41.0290 C.3   179  LYS179      0.1693
    183  C        -59.4820   16.4480   42.4880 C.2   179  LYS179      0.2591
    184  O        -59.4790   15.2670   42.8260 O.2   179  LYS179     -0.2718
    185  CB       -57.7780   16.2680   40.6400 C.3   179  LYS179      0.0285
    186  CG       -57.6970   15.6970   39.2010 C.3   179  LYS179      0.0035
    187  CD       -56.2440   15.5000   38.7030 C.3   179  LYS179      0.0206
    188  CE       -55.5080   16.8470   38.4750 C.3   179  LYS179      0.1093
    189  NZ       -54.2370   16.7310   37.6660 N.3   179  LYS179     -0.1314
    190  N        -59.7610   17.4260   43.3500 N.am  180  VAL180     -0.1980
    191  CA       -60.0200   17.1320   44.7670 C.3   180  VAL180      0.1595
    192  C        -61.5050   17.2710   45.1360 C.2   180  VAL180      0.2287
    193  O        -61.9760   16.6830   46.1230 O.2   180  VAL180     -0.2864
    194  CB       -59.0610   17.9480   45.7000 C.3   180  VAL180      0.0276
    195  CG1      -59.7240   18.3970   46.9750 C.3   180  VAL180      0.0022
    196  CG2      -57.8300   17.1280   46.0430 C.3   180  VAL180      0.0022
    197  N        -45.4910   -0.3330   42.0750 N.3   303  PHE303     -0.1241
    198  CA       -46.4090   -0.4700   43.2090 C.3   303  PHE303      0.1605
    199  C        -47.3540   -1.6610   43.0050 C.2   303  PHE303      0.2264
    200  O        -47.7900   -1.9200   41.8890 O.2   303  PHE303     -0.2867
    201  CB       -47.2150    0.8240   43.4370 C.3   303  PHE303      0.0534
    202  CG       -46.3690    2.0670   43.6450 C.ar  303  PHE303     -0.0203
    203  CD1      -45.2550    2.0550   44.4910 C.ar  303  PHE303     -0.0042
    204  CD2      -46.7230    3.2710   43.0330 C.ar  303  PHE303     -0.0042
    205  CE1      -44.4830    3.2070   44.6860 C.ar  303  PHE303     -0.0003
    206  CE2      -45.9580    4.4500   43.2300 C.ar  303  PHE303     -0.0003
    207  CZ       -44.8400    4.4110   44.0510 C.ar  303  PHE303     -0.0000
@<TRIPOS>BOND
     1    21    20    1
     2    20    19    1
     3    19    18    1
     4    18    17    1
     5    37    38    1
     6    17    14    1
     7    40    39    2
     8    39    38    1
     9    29    28    2
    10    38    41    1
    11   189   188    1
    12    25    24    2
    13    28    27    1
    14    14    13    1
    15    14    15    1
    16    12    11    2
    17   188   187    1
    18    22    15    1
    19    22    23    2
    20   187   186    1
    21    13    11   am
    22    24    23    1
    23    24    26   am
    24    45    46    1
    25    11    10    1
    26     1     2    1
    27    15    16    2
    28    41    42    1
    29   186   185    1
    30    33    35   ar
    31    33    31   ar
    32    27    26    1
    33    27    30    1
    34    35    36   ar
    35    48    47    2
    36     9    10    1
    37     9     3   am
    38    47    46    1
    39    30    31    1
    40    42    43    1
    41     2     3    1
    42     2     5    1
    43    31    32   ar
    44    46    49    1
    45     3     4    2
    46   185   182    1
    47   181   182    1
    48    36    34   ar
    49   182   183    1
    50    32    34   ar
    51    49    51    1
    52    49    50    1
    53     7     5    1
    54    61    62    2
    55    61    60    1
    56     5     6    1
    57    43    44    1
    58     6     8    1
    59   200   199    2
    60   197   198    1
    61    60    59    1
    62    60    63    1
    63   125   124   ar
    64   183   184    2
    65   183   190   am
    66   199   198    1
    67   204   206   ar
    68   204   202   ar
    69   198   201    1
    70   206   207   ar
    71   190   191    1
    72   201   202    1
    73    63    64    1
    74   202   203   ar
    75   124   126   ar
    76   124   123    1
    77   180   178    1
    78   122   121    2
    79   179   178    1
    80   178   177    2
    81   207   205   ar
    82   135   134    1
    83   120   123    1
    84   120   121    1
    85   120   119    1
    86   177   176    1
    87    64    65    1
    88   203   205   ar
    89   191   192    1
    90   191   194    1
    91   176   175    1
    92    54    53    1
    93    54    55    2
    94    58    56    1
    95   192   193    2
    96   134   133    1
    97   140   141    1
    98   140   137    1
    99    53    56    1
   100    53    52    1
   101    98   100   ar
   102    98    96   ar
   103    69    67    1
   104    67    68    1
   105    67    66    2
   106   100    99   ar
   107   194   196    1
   108   194   195    1
   109    66    65    1
   110    56    57    1
   111    96    95   ar
   112   118   117    1
   113   175   174    1
   114    99    97   ar
   115   133   132    1
   116   137   136    1
   117   137   138    1
   118   151   150   ar
   119   151   149   ar
   120    95    97   ar
   121    95    94    1
   122   110   109    1
   123   110   111    1
   124   139   138    2
   125   174   171    1
   126   117   114    1
   127   113   111   am
   128   113   114    1
   129   150   148   ar
   130   138   142   am
   131   149   147   ar
   132    94    91    1
   133   116   115    2
   134   132   131    1
   135   111   112    2
   136   114   115    1
   137    77    78    1
   138   173   172    2
   139   131   128    1
   140   148   147   ar
   141    80    79    2
   142    82    81    1
   143    91    90    1
   144    91    92    1
   145   142   143    1
   146   147   146    1
   147   171   172    1
   148   171   170    1
   149   104   103    2
   150   159   157    1
   151    83    81    1
   152    90    86   am
   153    78    81    1
   154    78    79    1
   155   101    92   am
   156   101   102    1
   157    79    84   am
   158   143   146    1
   159   143   144    1
   160   103   102    1
   161    92    93    2
   162    87    86    2
   163   158   157    1
   164    86    85    1
   165   167   166    1
   166   167   168    1
   167   128   129    1
   168   128   127    1
   169   129   130    2
   170   157   156    1
   171   165   164    1
   172   102   105    1
   173   166   162   am
   174    84    85    1
   175   169   168    2
   176    85    88    1
   177   164   161    1
   178   105   106    1
   179   144   145    2
   180   156   153    1
   181   106   107    1
   182   162   161    1
   183   162   163    2
   184   153   152    1
   185   153   154    1
   186   161   160    1
   187    88    89    1
   188   154   155    2
   189    76    74    1
   190    75    74    1
   191   107   108    1
   192    74    71    1
   193    73    72    2
   194    72    71    1
   195    71    70    1
