@<TRIPOS>MOLECULE
tmp/2wtkC00.pdb
 168 160 0 0 0
SMALL
GASTEIGER

@<TRIPOS>ATOM
      1  N        -78.4500   39.5840   40.6230 N.3     9  LEU9       -0.1231
      2  CA       -77.6850   40.1330   41.7460 C.3     9  LEU9        0.1693
      3  C        -77.7600   41.6580   41.8310 C.2     9  LEU9        0.2593
      4  O        -77.7100   42.2270   42.9230 O.2     9  LEU9       -0.2718
      5  CB       -76.2180   39.6900   41.6850 C.3     9  LEU9        0.0284
      6  CG       -75.8560   38.2160   41.9050 C.3     9  LEU9        0.0019
      7  CD1      -74.3500   38.0520   41.7900 C.3     9  LEU9        0.0001
      8  CD2      -76.3540   37.6780   43.2490 C.3     9  LEU9        0.0001
      9  N        -77.8730   42.3140   40.6790 N.am   10  GLY10      -0.1942
     10  CA       -77.9180   43.7730   40.6310 C.3    10  GLY10       0.2014
     11  C        -78.0710   44.3210   39.2270 C.2    10  GLY10       0.2639
     12  O        -77.7830   43.6350   38.2420 O.2    10  GLY10      -0.2714
     13  N        -78.5290   45.5660   39.1400 N.am   11  GLU11      -0.1963
     14  CA       -78.7510   46.2220   37.8560 C.3    11  GLU11       0.1733
     15  C        -78.3320   47.6850   37.9020 C.2    11  GLU11       0.2617
     16  O        -78.6310   48.4030   38.8610 O.2    11  GLU11      -0.2715
     17  CB       -80.2190   46.0910   37.4240 C.3    11  GLU11       0.0429
     18  CG       -80.5920   46.9210   36.1980 C.3    11  GLU11       0.1163
     19  CD       -81.6870   46.2900   35.3600 C.2    11  GLU11       0.3649
     20  OE1      -82.6180   45.6800   35.9340 O.co2  11  GLU11      -0.2457
     21  OE2      -81.6140   46.4090   34.1180 O.co2  11  GLU11      -0.2457
     22  N        -77.6300   48.1120   36.8580 N.am   12  GLY12      -0.1940
     23  CA       -77.2620   49.5080   36.7040 C.3    12  GLY12       0.2014
     24  C        -77.5780   50.0270   35.3160 C.2    12  GLY12       0.2640
     25  O        -78.6060   49.6760   34.7220 O.2    12  GLY12      -0.2714
     26  N        -76.6740   50.8590   34.8030 N.am   13  SER13      -0.1935
     27  CA       -76.8790   51.5680   33.5440 C.3    13  SER13       0.2055
     28  C        -76.5130   50.7080   32.3410 C.2    13  SER13       0.2643
     29  O        -77.1160   50.8280   31.2710 O.2    13  SER13      -0.2714
     30  CB       -76.0480   52.8540   33.5280 C.3    13  SER13       0.2130
     31  OG       -76.0640   53.4930   34.7930 O.3    13  SER13      -0.2179
     32  N        -75.5200   49.8440   32.5310 N.am   14  TYR14      -0.1959
     33  CA       -74.9410   49.0740   31.4350 C.3    14  TYR14       0.1771
     34  C        -75.5070   47.6650   31.3220 C.2    14  TYR14       0.2620
     35  O        -75.2990   46.9850   30.3130 O.2    14  TYR14      -0.2715
     36  CB       -73.4050   49.0770   31.5260 C.3    14  TYR14       0.0574
     37  CG       -72.8040   50.3750   31.0330 C.ar   14  TYR14      -0.0198
     38  CD1      -72.7070   51.4910   31.8720 C.ar   14  TYR14      -0.0009
     39  CD2      -72.3590   50.4990   29.7160 C.ar   14  TYR14      -0.0009
     40  CE1      -72.1680   52.6960   31.4110 C.ar   14  TYR14       0.0417
     41  CE2      -71.8220   51.6950   29.2450 C.ar   14  TYR14       0.0417
     42  CZ       -71.7290   52.7880   30.0950 C.ar   14  TYR14       0.1957
     43  OH       -71.1970   53.9660   29.6210 O.3    14  TYR14      -0.2866
     44  N        -76.2330   47.2320   32.3490 N.am   15  GLY15      -0.1954
     45  CA       -76.9020   45.9440   32.2950 C.3    15  GLY15       0.1869
     46  C        -77.0930   45.2270   33.6140 C.2    15  GLY15       0.2309
     47  O        -76.9210   45.8050   34.6950 O.2    15  GLY15      -0.2863
     48  N        -76.3930   42.1610   36.3690 N.3    17  VAL17      -0.1245
     49  CA       -75.3720   41.3080   36.9620 C.3    17  VAL17       0.1561
     50  C        -76.0520   40.1010   37.5990 C.2    17  VAL17       0.2260
     51  O        -76.9500   40.2480   38.4370 O.2    17  VAL17      -0.2867
     52  CB       -74.5460   42.0660   38.0150 C.3    17  VAL17       0.0252
     53  CG1      -73.3980   41.2040   38.5250 C.3    17  VAL17       0.0019
     54  CG2      -74.0180   43.3670   37.4320 C.3    17  VAL17       0.0019
     55  N        -69.5010   35.9820   39.4150 N.3    30  ALA30      -0.1245
     56  CA       -70.5520   36.8790   38.9420 C.3    30  ALA30       0.1562
     57  C        -70.3430   37.1940   37.4590 C.2    30  ALA30       0.2260
     58  O        -69.2690   36.9600   36.9120 O.2    30  ALA30      -0.2867
     59  CB       -70.5830   38.1400   39.7610 C.3    30  ALA30       0.0290
     60  N        -71.4480   40.0380   34.2100 N.3    32  LYS32      -0.1245
     61  CA       -72.0440   41.2820   33.7540 C.3    32  LYS32       0.1561
     62  C        -72.6020   41.0290   32.3570 C.2    32  LYS32       0.2260
     63  O        -71.8420   40.7510   31.4280 O.2    32  LYS32      -0.2867
     64  CB       -70.9860   42.3920   33.7540 C.3    32  LYS32       0.0271
     65  CG       -71.5030   43.8100   33.9260 C.3    32  LYS32       0.0035
     66  CD       -70.3380   44.7850   33.9740 C.3    32  LYS32       0.0206
     67  CE       -70.7990   46.2360   34.0130 C.3    32  LYS32       0.1093
     68  NZ       -69.7370   47.1960   33.5460 N.3    32  LYS32      -0.1314
     69  N        -61.6080   45.0130   41.9540 N.3    65  ILE65      -0.1245
     70  CA       -62.4240   43.9130   41.4540 C.3    65  ILE65       0.1561
     71  C        -61.6650   43.1830   40.3360 C.2    65  ILE65       0.2260
     72  O        -61.0010   43.8050   39.5120 O.2    65  ILE65      -0.2867
     73  CB       -63.8760   44.3490   41.0500 C.3    65  ILE65       0.0252
     74  CG1      -64.8000   43.1340   40.9280 C.3    65  ILE65       0.0019
     75  CG2      -63.8970   45.1440   39.7590 C.3    65  ILE65       0.0019
     76  CD1      -65.4290   42.6830   42.2510 C.3    65  ILE65       0.0001
     77  N        -66.9880   38.3780   36.5580 N.3    80  MET80      -0.1230
     78  CA       -66.2820   38.9140   37.7140 C.3    80  MET80       0.1702
     79  C        -66.2360   37.8820   38.8380 C.2    80  MET80       0.2592
     80  O        -67.0490   36.9600   38.8740 O.2    80  MET80      -0.2718
     81  CB       -66.9560   40.1970   38.2250 C.3    80  MET80       0.0401
     82  CG       -67.4710   41.1570   37.1540 C.3    80  MET80       0.0596
     83  SD       -66.1710   41.8870   36.1460 S.3    80  MET80      -0.1393
     84  CE       -65.7790   43.3480   37.0810 C.3    80  MET80       0.0692
     85  N        -65.2820   38.0500   39.7540 N.am   81  GLU81      -0.1966
     86  CA       -65.2500   37.2810   40.9940 C.3    81  GLU81       0.1733
     87  C        -66.5230   37.5740   41.7760 C.2    81  GLU81       0.2616
     88  O        -67.0770   38.6740   41.6850 O.2    81  GLU81      -0.2715
     89  CB       -64.0040   37.6210   41.8320 C.3    81  GLU81       0.0429
     90  CG       -64.0100   38.9990   42.5190 C.3    81  GLU81       0.1163
     91  CD       -62.6660   39.3700   43.1450 C.2    81  GLU81       0.3649
     92  OE1      -62.1860   40.5030   42.8960 O.co2  81  GLU81      -0.2457
     93  OE2      -62.0850   38.5330   43.8780 O.co2  81  GLU81      -0.2457
     94  N        -66.9930   36.5800   42.5250 N.am   82  TYR82      -0.1960
     95  CA       -68.2110   36.7300   43.3080 C.3    82  TYR82       0.1771
     96  C        -67.9640   37.6390   44.4840 C.2    82  TYR82       0.2620
     97  O        -67.0010   37.4570   45.2210 O.2    82  TYR82      -0.2715
     98  CB       -68.7360   35.3730   43.8060 C.3    82  TYR82       0.0574
     99  CG       -69.8610   35.4690   44.8240 C.ar   82  TYR82      -0.0198
    100  CD1      -71.1150   35.9570   44.4640 C.ar   82  TYR82      -0.0009
    101  CD2      -69.6680   35.0710   46.1460 C.ar   82  TYR82      -0.0009
    102  CE1      -72.1440   36.0460   45.3870 C.ar   82  TYR82       0.0417
    103  CE2      -70.6920   35.1620   47.0820 C.ar   82  TYR82       0.0417
    104  CZ       -71.9330   35.6500   46.6990 C.ar   82  TYR82       0.1957
    105  OH       -72.9680   35.7330   47.6230 O.3    82  TYR82      -0.2866
    106  N        -68.8400   38.6250   44.6330 N.am   83  CYS83      -0.1954
    107  CA       -68.9090   39.4420   45.8330 C.3    83  CYS83       0.1843
    108  C        -70.3050   39.3110   46.4420 C.2    83  CYS83       0.2625
    109  O        -71.2930   39.1150   45.7220 O.2    83  CYS83      -0.2714
    110  CB       -68.5840   40.8980   45.5130 C.3    83  CYS83       0.0997
    111  SG       -66.8220   41.2160   45.2670 S.3    83  CYS83      -0.0797
    112  N        -70.3880   39.4020   47.7660 N.am   84  VAL84      -0.1963
    113  CA       -71.6620   39.1940   48.4480 C.3    84  VAL84       0.1727
    114  C        -72.5380   40.4390   48.3850 C.2    84  VAL84       0.2616
    115  O        -73.7550   40.3340   48.1910 O.2    84  VAL84      -0.2715
    116  CB       -71.4880   38.7790   49.9280 C.3    84  VAL84       0.0290
    117  CG1      -72.6940   37.9510   50.3960 C.3    84  VAL84       0.0023
    118  CG2      -70.2330   37.9760   50.1100 C.3    84  VAL84       0.0023
    119  N        -71.9150   41.6090   48.5230 N.am   85  CYS85      -0.1954
    120  CA       -72.6580   42.8490   48.7070 C.3    85  CYS85       0.1843
    121  C        -71.8750   44.1170   48.4060 C.2    85  CYS85       0.2626
    122  O        -70.6670   44.1980   48.6480 O.2    85  CYS85      -0.2714
    123  CB       -73.1650   42.9340   50.1480 C.3    85  CYS85       0.0997
    124  SG       -74.8730   43.4850   50.2280 S.3    85  CYS85      -0.0797
    125  N        -72.5890   45.1140   47.8910 N.am   86  GLY86      -0.1954
    126  CA       -72.0550   46.4700   47.7700 C.3    86  GLY86       0.1869
    127  C        -72.2410   47.2020   49.0880 C.2    86  GLY86       0.2309
    128  O        -73.1780   46.9100   49.8410 O.2    86  GLY86      -0.2863
    129  N        -76.0220   48.8520   49.8860 N.3    89  GLU89      -0.1245
    130  CA       -77.1830   48.1300   50.4200 C.3    89  GLU89       0.1567
    131  C        -76.9370   47.7700   51.8780 C.2    89  GLU89       0.2260
    132  O        -77.8570   47.8120   52.6930 O.2    89  GLU89      -0.2867
    133  CB       -77.5930   46.9130   49.5790 C.3    89  GLU89       0.0388
    134  CG       -76.4560   46.0250   49.1310 C.3    89  GLU89       0.1160
    135  CD       -76.7530   45.3040   47.8170 C.2    89  GLU89       0.3649
    136  OE1      -77.8070   44.6180   47.7320 O.co2  89  GLU89      -0.2457
    137  OE2      -75.9220   45.4260   46.8770 O.co2  89  GLU89      -0.2457
    138  N        -71.5010   52.6610   46.8830 N.3   131  GLY131     -0.1210
    139  CA       -72.1390   51.8180   45.8540 C.3   131  GLY131      0.1956
    140  C        -71.2020   51.0530   44.9170 C.2   131  GLY131      0.2611
    141  O        -71.5400   49.9700   44.4380 O.2   131  GLY131     -0.2717
    142  N        -70.0250   51.6150   44.6680 N.am  132  ASN132     -0.1974
    143  CA       -69.0020   50.9920   43.8150 C.3   132  ASN132      0.1688
    144  C        -67.9270   50.2380   44.6140 C.2   132  ASN132      0.2292
    145  O        -66.9030   49.8130   44.0510 O.2   132  ASN132     -0.2864
    146  CB       -68.3630   52.0470   42.8950 C.3   132  ASN132      0.1181
    147  CG       -69.3680   52.6660   41.9260 C.2   132  ASN132      0.2629
    148  OD1      -70.3180   52.0060   41.4920 O.2   132  ASN132     -0.2716
    149  ND2      -69.1710   53.9390   41.5920 N.am  132  ASN132     -0.0877
    150  N        -67.3380   46.9200   46.6840 N.3   134  LEU134     -0.1245
    151  CA       -67.8610   45.5770   46.9040 C.3   134  LEU134      0.1561
    152  C        -67.1490   44.8790   48.0610 C.2   134  LEU134      0.2260
    153  O        -65.9800   45.1420   48.3120 O.2   134  LEU134     -0.2867
    154  CB       -67.7340   44.7570   45.6160 C.3   134  LEU134      0.0270
    155  CG       -68.5120   45.1830   44.3510 C.3   134  LEU134      0.0019
    156  CD1      -68.5950   44.0350   43.3610 C.3   134  LEU134      0.0001
    157  CD2      -69.9240   45.6880   44.6640 C.3   134  LEU134      0.0001
    158  N        -64.6250   48.5510   42.7820 N.3   144  SER144     -0.1202
    159  CA       -65.2440   48.1400   41.5300 C.3   144  SER144      0.2020
    160  C        -65.6600   49.3180   40.6300 C.2   144  SER144      0.2618
    161  O        -65.3810   50.4800   40.9480 O.2   144  SER144     -0.2717
    162  CB       -66.4460   47.2750   41.8400 C.3   144  SER144      0.2103
    163  OG       -66.8260   46.5370   40.6960 O.3   144  SER144     -0.2182
    164  N        -66.3120   49.0060   39.5060 N.am  145  ALA145     -0.1979
    165  CA       -66.8480   50.0050   38.5730 C.3   145  ALA145      0.1597
    166  C        -65.8160   51.0300   38.0280 C.2   145  ALA145      0.2287
    167  O        -65.9120   52.2300   38.3080 O.2   145  ALA145     -0.2864
    168  CB       -68.0540   50.7080   39.1940 C.3   145  ALA145      0.0319
@<TRIPOS>BOND
     1    41    39   ar
     2    41    42   ar
     3    43    42    1
     4    39    37   ar
     5    42    40   ar
     6    35    34    2
     7    37    36    1
     8    37    38   ar
     9    29    28    2
    10    34    33    1
    11    34    44   am
    12    40    38   ar
    13    63    62    2
    14    33    36    1
    15    33    32    1
    16    45    44    1
    17    45    46    1
    18    28    32   am
    19    28    27    1
    20    62    61    1
    21    30    27    1
    22    30    31    1
    23    27    26    1
    24    68    67    1
    25    46    47    2
    26    61    64    1
    27    61    60    1
    28    64    65    1
    29    65    66    1
    30    66    67    1
    31    21    19   ar
    32    25    24    2
    33    26    24   am
    34    24    23    1
    35    19    20   ar
    36    19    18    1
    37    83    84    1
    38    83    82    1
    39    18    17    1
    40    48    49    1
    41    77    78    1
    42    23    22    1
    43    22    15   am
    44    58    57    2
    45    49    50    1
    46    49    52    1
    47    82    81    1
    48    17    14    1
    49    54    52    1
    50    57    56    1
    51    50    51    2
    52    78    81    1
    53    78    79    1
    54    14    15    1
    55    14    13    1
    56    15    16    2
    57    52    53    1
    58   166   167    2
    59   166   165    1
    60    12    11    2
    61   165   168    1
    62   165   164    1
    63    79    80    2
    64    79    85   am
    65    56    55    1
    66    56    59    1
    67    13    11   am
    68    11    10    1
    69   164   160   am
    70    72    71    2
    71    85    86    1
    72    75    73    1
    73    71    70    1
    74     1     2    1
    75   160   161    2
    76   160   159    1
    77    10     9    1
    78     9     3   am
    79   163   162    1
    80    74    73    1
    81    74    76    1
    82    86    87    1
    83    86    89    1
    84    73    70    1
    85    70    69    1
    86   148   147    2
    87   159   162    1
    88   159   158    1
    89   149   147   am
    90     5     2    1
    91     5     6    1
    92    88    87    2
    93     2     3    1
    94    87    94   am
    95     7     6    1
    96     3     4    2
    97    89    90    1
    98     6     8    1
    99   147   146    1
   100    90    91    1
   101    94    95    1
   102   146   143    1
   103    92    91   ar
   104    91    93   ar
   105    95    98    1
   106    95    96    1
   107   156   155    1
   108    98    99    1
   109   143   144    1
   110   143   142    1
   111   145   144    2
   112   155   157    1
   113   155   154    1
   114   141   140    2
   115   100    99   ar
   116   100   102   ar
   117    96   106   am
   118    96    97    2
   119   106   107    1
   120   142   140   am
   121    99   101   ar
   122   140   139    1
   123   111   110    1
   124   102   104   ar
   125   110   107    1
   126   154   151    1
   127   109   108    2
   128   107   108    1
   129   139   138    1
   130   101   103   ar
   131   108   112   am
   132   150   151    1
   133   104   103   ar
   134   104   105    1
   135   137   135   ar
   136   151   152    1
   137   136   135   ar
   138   112   113    1
   139   126   125    1
   140   126   127    1
   141   135   134    1
   142   125   121   am
   143   152   153    2
   144   115   114    2
   145   114   113    1
   146   114   119   am
   147   121   122    2
   148   121   120    1
   149   113   116    1
   150   119   120    1
   151   120   123    1
   152   127   128    2
   153   134   133    1
   154   133   130    1
   155   129   130    1
   156   116   118    1
   157   116   117    1
   158   123   124    1
   159   130   131    1
   160   131   132    2
