@<TRIPOS>MOLECULE
tmp/2wtlA00.pdb
 94 89 0 0 0
SMALL
GASTEIGER

@<TRIPOS>ATOM
      1  N        -13.8710  -32.3850  -51.2060 N.3    18  LEU18      -0.1245
      2  CA       -15.1850  -31.7530  -51.1610 C.3    18  LEU18       0.1561
      3  C        -15.4050  -31.0090  -49.8480 C.2    18  LEU18       0.2260
      4  O        -16.0360  -29.9540  -49.8280 O.2    18  LEU18      -0.2867
      5  CB       -16.2940  -32.7860  -51.3860 C.3    18  LEU18       0.0270
      6  CG       -16.2800  -33.4920  -52.7450 C.3    18  LEU18       0.0019
      7  CD1      -17.4630  -34.4300  -52.8780 C.3    18  LEU18       0.0001
      8  CD2      -16.2740  -32.4840  -53.8780 C.3    18  LEU18       0.0001
      9  N        -13.1640  -27.8910  -50.0300 N.3    21  ILE21      -0.1231
     10  CA       -13.7410  -26.9220  -50.9510 C.3    21  ILE21       0.1692
     11  C        -14.8190  -26.0800  -50.2730 C.2    21  ILE21       0.2592
     12  O        -14.8090  -24.8570  -50.3730 O.2    21  ILE21      -0.2718
     13  CB       -14.3300  -27.6020  -52.2010 C.3    21  ILE21       0.0266
     14  CG1      -13.2240  -28.2840  -53.0090 C.3    21  ILE21       0.0019
     15  CG2      -15.0370  -26.5800  -53.0640 C.3    21  ILE21       0.0020
     16  CD1      -13.7340  -29.0930  -54.1870 C.3    21  ILE21       0.0001
     17  N        -15.7480  -26.7380  -49.5870 N.am   22  ASN22      -0.1974
     18  CA       -16.8130  -26.0330  -48.8910 C.3    22  ASN22       0.1688
     19  C        -16.2730  -25.1650  -47.7640 C.2    22  ASN22       0.2292
     20  O        -16.6540  -24.0030  -47.6270 O.2    22  ASN22      -0.2864
     21  CB       -17.8560  -27.0120  -48.3530 C.3    22  ASN22       0.1181
     22  CG       -18.7810  -27.5370  -49.4350 C.2    22  ASN22       0.2629
     23  OD1      -18.4720  -27.4660  -50.6200 O.2    22  ASN22      -0.2716
     24  ND2      -19.9250  -28.0750  -49.0270 N.am   22  ASN22      -0.0877
     25  N        -14.1700  -22.2020  -49.2070 N.3    25  PHE25      -0.1241
     26  CA       -15.0340  -21.2350  -49.8690 C.3    25  PHE25       0.1605
     27  C        -15.8560  -20.4260  -48.8780 C.2    25  PHE25       0.2264
     28  O        -15.9750  -19.2120  -49.0170 O.2    25  PHE25      -0.2867
     29  CB       -15.9490  -21.8750  -50.9130 C.3    25  PHE25       0.0534
     30  CG       -16.6540  -20.8650  -51.7730 C.ar   25  PHE25      -0.0203
     31  CD1      -16.0440  -20.3590  -52.9070 C.ar   25  PHE25      -0.0042
     32  CD2      -17.9060  -20.3910  -51.4290 C.ar   25  PHE25      -0.0042
     33  CE1      -16.6750  -19.4130  -53.6940 C.ar   25  PHE25      -0.0003
     34  CE2      -18.5440  -19.4420  -52.2140 C.ar   25  PHE25      -0.0003
     35  CZ       -17.9270  -18.9550  -53.3460 C.ar   25  PHE25      -0.0000
     36  N        -10.1140  -17.7080  -51.4570 N.3    43  ARG43      -0.1245
     37  CA       -11.0160  -18.1220  -52.5230 C.3    43  ARG43       0.1563
     38  C        -10.2690  -18.9520  -53.5680 C.2    43  ARG43       0.2260
     39  O        -10.7940  -19.9450  -54.0840 O.2    43  ARG43      -0.2867
     40  CB       -11.6600  -16.8930  -53.1720 C.3    43  ARG43       0.0307
     41  CG       -12.6030  -17.1960  -54.3190 C.3    43  ARG43       0.0489
     42  CD       -13.1530  -15.9130  -54.9300 C.3    43  ARG43       0.2205
     43  NE       -14.1520  -16.1860  -55.9630 N.pl3  43  ARG43      -0.0865
     44  CZ       -15.4640  -16.2360  -55.7440 C.cat  43  ARG43       0.5346
     45  NH1      -15.9430  -16.0270  -54.5240 N.pl3  43  ARG43       0.1354
     46  NH2      -16.2950  -16.4970  -56.7440 N.pl3  43  ARG43       0.1354
     47  N        -10.6140  -22.9250  -55.1270 N.3    47  PHE47      -0.1241
     48  CA       -10.6790  -23.3840  -56.5120 C.3    47  PHE47       0.1605
     49  C         -9.5380  -24.3470  -56.8230 C.2    47  PHE47       0.2264
     50  O         -9.6280  -25.1680  -57.7340 O.2    47  PHE47      -0.2867
     51  CB       -10.6750  -22.2000  -57.4810 C.3    47  PHE47       0.0534
     52  CG       -11.9960  -21.4930  -57.5650 C.ar   47  PHE47      -0.0203
     53  CD1      -12.9420  -21.8800  -58.4990 C.ar   47  PHE47      -0.0042
     54  CD2      -12.3000  -20.4540  -56.7040 C.ar   47  PHE47      -0.0042
     55  CE1      -14.1670  -21.2350  -58.5760 C.ar   47  PHE47      -0.0003
     56  CE2      -13.5230  -19.8080  -56.7760 C.ar   47  PHE47      -0.0003
     57  CZ       -14.4570  -20.1990  -57.7090 C.ar   47  PHE47      -0.0000
     58  N         -9.7960  -28.2250  -58.4830 N.3    50  ARG50      -0.1245
     59  CA        -8.9800  -28.8750  -59.4970 C.3    50  ARG50       0.1563
     60  C         -8.5530  -30.2590  -59.0210 C.2    50  ARG50       0.2260
     61  O         -8.5590  -31.2150  -59.7910 O.2    50  ARG50      -0.2867
     62  CB        -7.7570  -28.0230  -59.8560 C.3    50  ARG50       0.0307
     63  CG        -6.8000  -28.7040  -60.8410 C.3    50  ARG50       0.0489
     64  CD        -5.5580  -27.8610  -61.1100 C.3    50  ARG50       0.2205
     65  NE        -4.8720  -27.4810  -59.8750 N.pl3  50  ARG50      -0.0865
     66  CZ        -3.9960  -28.2540  -59.2360 C.cat  50  ARG50       0.5346
     67  NH1       -3.6990  -29.4580  -59.7190 N.pl3  50  ARG50       0.1354
     68  NH2       -3.4200  -27.8240  -58.1130 N.pl3  50  ARG50       0.1354
     69  N        -10.1270  -32.1270  -56.8260 N.3    52  ALA52      -0.1231
     70  CA       -11.3380  -32.9330  -56.8490 C.3    52  ALA52       0.1694
     71  C        -11.6280  -33.4870  -58.2470 C.2    52  ALA52       0.2591
     72  O        -12.0870  -34.6220  -58.3840 O.2    52  ALA52      -0.2718
     73  CB       -12.5250  -32.1300  -56.3340 C.3    52  ALA52       0.0304
     74  N        -11.3550  -32.6980  -59.2840 N.am   53  GLU53      -0.1979
     75  CA       -11.6360  -33.1430  -60.6450 C.3    53  GLU53       0.1602
     76  C        -10.6150  -34.1750  -61.1000 C.2    53  GLU53       0.2287
     77  O        -10.9620  -35.1540  -61.7530 O.2    53  GLU53      -0.2864
     78  CB       -11.6990  -31.9730  -61.6330 C.3    53  GLU53       0.0415
     79  CG       -12.1460  -32.3990  -63.0220 C.3    53  GLU53       0.1163
     80  CD       -12.4310  -31.2350  -63.9550 C.2    53  GLU53       0.3649
     81  OE1      -12.0410  -30.0910  -63.6360 O.co2  53  GLU53      -0.2457
     82  OE2      -13.0460  -31.4710  -65.0160 O.co2  53  GLU53      -0.2457
     83  N        -19.7610  -38.4690  -54.5070 N.3    68  TYR68      -0.1241
     84  CA       -20.0890  -37.0520  -54.3890 C.3    68  TYR68       0.1605
     85  C        -21.2210  -36.8460  -53.3890 C.2    68  TYR68       0.2264
     86  O        -21.8750  -35.8020  -53.3770 O.2    68  TYR68      -0.2867
     87  CB       -20.4880  -36.4860  -55.7530 C.3    68  TYR68       0.0534
     88  CG       -19.3220  -35.9680  -56.5700 C.ar   68  TYR68      -0.0201
     89  CD1      -18.4350  -36.8380  -57.1830 C.ar   68  TYR68      -0.0009
     90  CD2      -19.1120  -34.6070  -56.7250 C.ar   68  TYR68      -0.0009
     91  CE1      -17.3750  -36.3720  -57.9250 C.ar   68  TYR68       0.0417
     92  CE2      -18.0510  -34.1260  -57.4710 C.ar   68  TYR68       0.0417
     93  CZ       -17.1850  -35.0130  -58.0690 C.ar   68  TYR68       0.1957
     94  OH       -16.1270  -34.5400  -58.8110 O.3    68  TYR68      -0.2866
@<TRIPOS>BOND
     1    82    80   ar
     2    80    81   ar
     3    80    79    1
     4    79    78    1
     5    77    76    2
     6    78    75    1
     7    64    63    1
     8    64    65    1
     9    76    75    1
    10    63    62    1
    11    75    74    1
    12    65    66    2
    13    62    59    1
    14    61    60    2
    15    67    66    1
    16    59    60    1
    17    59    58    1
    18    74    71   am
    19    66    68    1
    20    94    93    1
    21    55    53   ar
    22    55    57   ar
    23    53    52   ar
    24    72    71    2
    25    71    70    1
    26    93    91   ar
    27    93    92   ar
    28    91    89   ar
    29    50    49    2
    30    57    56   ar
    31    52    51    1
    32    52    54   ar
    33    51    48    1
    34    92    90   ar
    35    89    88   ar
    36    70    69    1
    37    70    73    1
    38    49    48    1
    39    56    54   ar
    40    46    44    1
    41    90    88   ar
    42    88    87    1
    43    48    47    1
    44    43    44    2
    45    43    42    1
    46    87    84    1
    47    44    45    1
    48    42    41    1
    49    83    84    1
    50    84    85    1
    51    41    40    1
    52    16    14    1
    53    39    38    2
    54     8     6    1
    55    33    35   ar
    56    33    31   ar
    57    38    37    1
    58    85    86    2
    59    35    34   ar
    60    40    37    1
    61    15    13    1
    62    14    13    1
    63    31    30   ar
    64     7     6    1
    65     6     5    1
    66    37    36    1
    67    34    32   ar
    68    13    10    1
    69    30    32   ar
    70    30    29    1
    71     5     2    1
    72     1     2    1
    73     2     3    1
    74    10    11    1
    75    10     9    1
    76    29    26    1
    77    23    22    2
    78    12    11    2
    79    11    17   am
    80    26    25    1
    81    26    27    1
    82     3     4    2
    83    17    18    1
    84    22    24   am
    85    22    21    1
    86    28    27    2
    87    18    21    1
    88    18    19    1
    89    19    20    2
