@<TRIPOS>MOLECULE
tmp/2wtnB00.pdb
 133 129 0 0 0
SMALL
GASTEIGER

@<TRIPOS>ATOM
      1  N          1.0240  -11.0370  -15.5420 N.3    34  GLY34      -0.1210
      2  CA         0.0590  -11.9030  -16.1860 C.3    34  GLY34       0.1956
      3  C         -0.8870  -12.6230  -15.2690 C.2    34  GLY34       0.2611
      4  O         -0.9900  -12.3020  -14.0870 O.2    34  GLY34      -0.2717
      5  N         -1.6370  -13.5480  -15.8670 N.am   35  PHE35      -0.1976
      6  CA        -2.7760  -14.2760  -15.2600 C.3    35  PHE35       0.1639
      7  C         -2.1920  -15.1760  -14.1570 C.2    35  PHE35       0.2290
      8  O         -1.3060  -15.9820  -14.4170 O.2    35  PHE35      -0.2864
      9  CB        -3.4520  -15.0690  -16.4170 C.3    35  PHE35       0.0560
     10  CG        -4.5780  -15.9710  -16.0550 C.ar   35  PHE35      -0.0200
     11  CD1       -5.9110  -15.5040  -16.1150 C.ar   35  PHE35      -0.0042
     12  CD2       -4.3320  -17.3410  -15.7530 C.ar   35  PHE35      -0.0042
     13  CE1       -7.0040  -16.4130  -15.8930 C.ar   35  PHE35      -0.0003
     14  CE2       -5.3600  -18.2490  -15.4620 C.ar   35  PHE35      -0.0003
     15  CZ        -6.7110  -17.7930  -15.5280 C.ar   35  PHE35      -0.0000
     16  N          3.7680   -8.7160  -19.2950 N.3   106  HIS106     -0.1226
     17  CA         4.0290  -10.1210  -19.5860 C.3   106  HIS106      0.1752
     18  C          2.7380  -10.9370  -19.7040 C.2   106  HIS106      0.2597
     19  O          1.8570  -10.8800  -18.8200 O.2   106  HIS106     -0.2718
     20  CB         4.9790  -10.7500  -18.5490 C.3   106  HIS106      0.0759
     21  CG         5.3540  -12.1670  -18.8660 C.ar  106  HIS106      0.0818
     22  ND1        4.7380  -13.2340  -18.2680 N.ar  106  HIS106     -0.2268
     23  CD2        6.2250  -12.6880  -19.7630 C.ar  106  HIS106      0.1154
     24  CE1        5.2060  -14.3600  -18.7850 C.ar  106  HIS106      0.1986
     25  NE2        6.1270  -14.0600  -19.6850 N.ar  106  HIS106     -0.2212
     26  N          2.5910  -11.6190  -20.8310 N.am  107  SER107     -0.1938
     27  CA         1.5180  -12.6410  -21.0340 C.3   107  SER107      0.2055
     28  C          0.1620  -12.0040  -21.0780 C.2   107  SER107      0.2642
     29  O         -0.0480  -11.1230  -21.8860 O.2   107  SER107     -0.2714
     30  CB         1.6620  -13.6990  -19.9980 C.3   107  SER107      0.2130
     31  OG         0.9920  -14.8950  -20.4100 O.3   107  SER107     -0.2179
     32  N         -0.7530  -12.3110  -20.1660 N.am  108  GLN108     -0.1976
     33  CA        -1.9980  -11.5750  -20.1420 C.3   108  GLN108      0.1601
     34  C         -1.7880  -10.0780  -19.9460 C.2   108  GLN108      0.2287
     35  O         -2.5630   -9.2720  -20.4850 O.2   108  GLN108     -0.2864
     36  CB        -2.9730  -12.1330  -19.1290 C.3   108  GLN108      0.0394
     37  CG        -4.3320  -11.3920  -19.0780 C.3   108  GLN108      0.0908
     38  CD        -5.3820  -12.0690  -18.1820 C.2   108  GLN108      0.2608
     39  OE1       -5.9450  -13.1070  -18.5780 O.2   108  GLN108     -0.2717
     40  NE2       -5.7180  -11.4230  -17.0130 N.am  108  GLN108     -0.0878
     41  N         -0.1940  -12.8320  -24.3680 N.3   133  ALA133     -0.1245
     42  CA        -1.2700  -13.8370  -24.4880 C.3   133  ALA133      0.1562
     43  C         -2.3840  -13.3150  -25.3470 C.2   133  ALA133      0.2260
     44  O         -3.5680  -13.2570  -24.9360 O.2   133  ALA133     -0.2867
     45  CB        -1.8210  -14.2080  -23.0820 C.3   133  ALA133      0.0290
     46  N         -3.8100  -14.2470  -28.0310 N.3   135  MET135     -0.1230
     47  CA        -4.8190  -15.1890  -28.5310 C.3   135  MET135      0.1702
     48  C         -5.9900  -15.4270  -27.5620 C.2   135  MET135      0.2592
     49  O         -6.9470  -16.0520  -27.9140 O.2   135  MET135     -0.2718
     50  CB        -4.1620  -16.5400  -28.8210 C.3   135  MET135      0.0401
     51  CG        -3.8260  -17.4170  -27.5920 C.3   135  MET135      0.0596
     52  SD        -2.6470  -16.7160  -26.3960 S.3   135  MET135     -0.1393
     53  CE        -2.9350  -17.9470  -25.1160 C.3   135  MET135      0.0692
     54  N         -5.9220  -14.8840  -26.3550 N.am  136  ILE136     -0.1980
     55  CA        -6.9660  -15.1460  -25.3870 C.3   136  ILE136      0.1595
     56  C         -8.3800  -14.8250  -25.9530 C.2   136  ILE136      0.2287
     57  O         -9.3130  -15.6260  -25.7460 O.2   136  ILE136     -0.2864
     58  CB        -6.6920  -14.4020  -24.0290 C.3   136  ILE136      0.0276
     59  CG1       -5.6070  -15.1200  -23.2000 C.3   136  ILE136      0.0022
     60  CG2       -8.0250  -14.1730  -23.2080 C.3   136  ILE136      0.0022
     61  CD1       -5.0690  -14.2670  -21.9840 C.3   136  ILE136      0.0001
     62  N         -9.3380  -17.6490  -28.5470 N.3   139  ILE139     -0.1245
     63  CA        -9.6510  -18.9730  -27.9370 C.3   139  ILE139      0.1561
     64  C        -10.8510  -18.9410  -26.9540 C.2   139  ILE139      0.2260
     65  O        -11.5210  -19.9700  -26.7460 O.2   139  ILE139     -0.2867
     66  CB        -8.4900  -19.6860  -27.2860 C.3   139  ILE139      0.0252
     67  CG1       -8.0440  -19.0170  -26.0020 C.3   139  ILE139      0.0019
     68  CG2       -7.3110  -19.8040  -28.2870 C.3   139  ILE139      0.0019
     69  CD1       -6.7480  -19.5790  -25.4090 C.3   139  ILE139      0.0001
     70  N        -10.2000  -22.5520  -23.5110 N.3   145  LEU145     -0.1231
     71  CA        -9.3990  -21.7330  -22.6060 C.3   145  LEU145      0.1693
     72  C         -8.9960  -22.6890  -21.5090 C.2   145  LEU145      0.2591
     73  O         -9.7620  -23.5520  -21.1800 O.2   145  LEU145     -0.2718
     74  CB       -10.3170  -20.6140  -22.1210 C.3   145  LEU145      0.0284
     75  CG        -9.9320  -19.1870  -21.8010 C.3   145  LEU145      0.0019
     76  CD1       -9.0150  -18.5050  -22.8410 C.3   145  LEU145      0.0001
     77  CD2      -11.2640  -18.4160  -21.6340 C.3   145  LEU145      0.0001
     78  N         -7.7670  -22.5850  -21.0190 N.am  146  LEU146     -0.1980
     79  CA        -7.2870  -23.2690  -19.8330 C.3   146  LEU146      0.1596
     80  C         -7.2070  -24.8210  -19.8570 C.2   146  LEU146      0.2287
     81  O         -7.4310  -25.4990  -18.8160 O.2   146  LEU146     -0.2864
     82  CB        -8.0960  -22.8100  -18.6290 C.3   146  LEU146      0.0297
     83  CG        -8.0730  -21.3020  -18.2600 C.3   146  LEU146      0.0022
     84  CD1       -9.1820  -20.9540  -17.2750 C.3   146  LEU146      0.0001
     85  CD2       -6.6900  -20.9510  -17.7090 C.3   146  LEU146      0.0001
     86  N         -5.8290  -22.4650  -12.8670 N.3   162  TRP162     -0.1241
     87  CA        -4.5630  -23.0070  -12.4260 C.3   162  TRP162      0.1605
     88  C         -4.6030  -23.2240  -10.9120 C.2   162  TRP162      0.2264
     89  O         -4.9650  -22.3410  -10.1740 O.2   162  TRP162     -0.2867
     90  CB        -3.3920  -22.0680  -12.8540 C.3   162  TRP162      0.0550
     91  CG        -3.3020  -21.8170  -14.4110 C.ar  162  TRP162      0.0003
     92  CD1       -4.0080  -22.4670  -15.3880 C.ar  162  TRP162      0.0946
     93  CD2       -2.4480  -20.8830  -15.1010 C.ar  162  TRP162      0.0152
     94  NE1       -3.6830  -21.9770  -16.6380 N.ar  162  TRP162     -0.2442
     95  CE2       -2.7300  -21.0020  -16.4960 C.ar  162  TRP162      0.0810
     96  CE3       -1.4890  -19.9420  -14.6780 C.ar  162  TRP162      0.0012
     97  CZ2       -2.0830  -20.2410  -17.4610 C.ar  162  TRP162      0.0191
     98  CZ3       -0.8310  -19.1810  -15.6400 C.ar  162  TRP162      0.0001
     99  CH2       -1.1280  -19.3400  -17.0260 C.ar  162  TRP162      0.0015
    100  N        -15.3750  -13.7120  -17.2340 N.3   171  TYR171     -0.1241
    101  CA       -14.0700  -13.5720  -17.8200 C.3   171  TYR171      0.1605
    102  C        -14.1480  -13.8320  -19.3510 C.2   171  TYR171      0.2264
    103  O        -13.6200  -13.0450  -20.1740 O.2   171  TYR171     -0.2867
    104  CB       -13.0250  -14.5060  -17.1870 C.3   171  TYR171      0.0534
    105  CG       -11.6320  -14.4180  -17.8170 C.ar  171  TYR171     -0.0201
    106  CD1      -10.6490  -13.6370  -17.2620 C.ar  171  TYR171     -0.0009
    107  CD2      -11.3260  -15.1000  -19.0410 C.ar  171  TYR171     -0.0009
    108  CE1       -9.3410  -13.5530  -17.8590 C.ar  171  TYR171      0.0417
    109  CE2      -10.0970  -14.9770  -19.6480 C.ar  171  TYR171      0.0417
    110  CZ        -9.1030  -14.2010  -19.0490 C.ar  171  TYR171      0.1957
    111  OH        -7.8540  -14.1320  -19.6570 O.3   171  TYR171     -0.2866
    112  N          2.7120  -21.9800  -22.8680 N.3   201  ALA201     -0.1231
    113  CA         1.4230  -21.4130  -22.5080 C.3   201  ALA201      0.1694
    114  C          0.8190  -20.5870  -23.6300 C.2   201  ALA201      0.2591
    115  O         -0.4020  -20.5420  -23.7920 O.2   201  ALA201     -0.2718
    116  CB         1.5750  -20.5740  -21.2750 C.3   201  ALA201      0.0304
    117  N          1.6620  -19.9650  -24.4320 N.am  202  VAL202     -0.1980
    118  CA         1.2150  -19.0030  -25.3960 C.3   202  VAL202      0.1595
    119  C          2.0340  -19.2260  -26.6470 C.2   202  VAL202      0.2287
    120  O          3.2270  -18.9900  -26.6470 O.2   202  VAL202     -0.2864
    121  CB         1.4420  -17.5470  -24.8620 C.3   202  VAL202      0.0276
    122  CG1        1.0780  -16.5580  -25.8900 C.3   202  VAL202      0.0022
    123  CG2        0.6530  -17.3000  -23.5510 C.3   202  VAL202      0.0022
    124  N          7.7090  -19.8240  -21.1550 N.3   227  HIS227     -0.1241
    125  CA         6.8140  -18.7120  -20.9180 C.3   227  HIS227      0.1621
    126  C          7.3710  -17.6670  -19.9640 C.2   227  HIS227      0.2264
    127  O          7.2780  -16.4910  -20.2420 O.2   227  HIS227     -0.2867
    128  CB         5.4680  -19.1820  -20.3720 C.3   227  HIS227      0.0745
    129  CG         4.3950  -18.1290  -20.4890 C.ar  227  HIS227      0.0817
    130  ND1        4.2520  -17.3390  -21.6200 N.ar  227  HIS227     -0.2268
    131  CD2        3.4500  -17.7120  -19.6080 C.ar  227  HIS227      0.1154
    132  CE1        3.2550  -16.4940  -21.4320 C.ar  227  HIS227      0.1986
    133  NE2        2.7380  -16.7140  -20.2260 N.ar  227  HIS227     -0.2212
@<TRIPOS>BOND
     1    50    47    1
     2    50    51    1
     3    62    63    1
     4    47    46    1
     5    47    48    1
     6    68    66    1
     7    63    66    1
     8    63    64    1
     9    49    48    2
    10    51    52    1
    11    48    54   am
    12    66    67    1
    13    64    65    2
    14   119   120    2
    15   119   118    1
    16    52    53    1
    17    54    55    1
    18    67    69    1
    19    56    57    2
    20    56    55    1
    21   122   121    1
    22   118   121    1
    23   118   117    1
    24    55    58    1
    25    43    44    2
    26    43    42    1
    27   121   123    1
    28    42    41    1
    29    42    45    1
    30   117   114   am
    31    58    60    1
    32    58    59    1
    33   115   114    2
    34   114   113    1
    35    70    71    1
    36    59    61    1
    37   112   113    1
    38    76    75    1
    39    71    74    1
    40    71    72    1
    41   113   116    1
    42    74    75    1
    43    29    28    2
    44    75    77    1
    45   130   132   ar
    46   130   129   ar
    47    72    73    2
    48    72    78   am
    49   132   133   ar
    50   124   125    1
    51    28    27    1
    52    28    32   am
    53    27    26    1
    54    27    30    1
    55    78    79    1
    56   125   128    1
    57   125   126    1
    58    26    18   am
    59   129   128    1
    60   129   131   ar
    61    35    34    2
    62    31    30    1
    63   127   126    2
    64   133   131   ar
    65   103   102    2
    66    32    33    1
    67    33    34    1
    68    33    36    1
    69    80    79    1
    70    80    81    2
    71    79    82    1
    72    23    25   ar
    73    23    21   ar
    74    18    17    1
    75    18    19    2
    76    25    24   ar
    77   111   110    1
    78   109   110   ar
    79   109   107   ar
    80    17    16    1
    81    17    20    1
    82   102   101    1
    83    36    37    1
    84    37    38    1
    85   110   108   ar
    86   107   105   ar
    87    21    20    1
    88    21    22   ar
    89    24    22   ar
    90    82    83    1
    91    39    38    2
    92    83    85    1
    93    83    84    1
    94    38    40   am
    95   108   106   ar
    96   101   100    1
    97   101   104    1
    98   105   106   ar
    99   105   104    1
   100    97    99   ar
   101    97    95   ar
   102    99    98   ar
   103    94    95   ar
   104    94    92   ar
   105    95    93   ar
   106     9    10    1
   107     9     6    1
   108     2     1    1
   109     2     3    1
   110    11    10   ar
   111    11    13   ar
   112    10    12   ar
   113    13    15   ar
   114     5     3   am
   115     5     6    1
   116    12    14   ar
   117    98    96   ar
   118    15    14   ar
   119    92    91   ar
   120     3     4    2
   121     6     7    1
   122    93    96   ar
   123    93    91   ar
   124     8     7    2
   125    91    90    1
   126    86    87    1
   127    90    87    1
   128    87    88    1
   129    88    89    2
