@<TRIPOS>MOLECULE
tmp/2wtpB01.pdb
 83 79 0 0 0
SMALL
GASTEIGER

@<TRIPOS>ATOM
      1  N         38.0810   11.1940   66.1630 N.3     3  GLN3       -0.1245
      2  CA        37.4310   10.5330   65.0600 C.3     3  GLN3        0.1566
      3  C         36.0900   10.0390   65.4970 C.2     3  GLN3        0.2260
      4  O         35.1640    9.8680   64.6900 O.2     3  GLN3       -0.2867
      5  CB        38.2250    9.3240   64.6130 C.3     3  GLN3        0.0367
      6  CG        39.3900    9.6430   63.7250 C.3     3  GLN3        0.0905
      7  CD        40.2150    8.4010   63.4560 C.2     3  GLN3        0.2608
      8  OE1       40.0820    7.3890   64.1620 O.2     3  GLN3       -0.2717
      9  NE2       41.0760    8.4640   62.4420 N.am    3  GLN3       -0.0878
     10  N         33.8240   12.9610   65.3660 N.3     6  ALA6       -0.1231
     11  CA        33.4690   13.3100   63.9980 C.3     6  ALA6        0.1694
     12  C         32.4590   12.3670   63.4380 C.2     6  ALA6        0.2591
     13  O         31.5570   12.7660   62.6850 O.2     6  ALA6       -0.2718
     14  CB        34.7250   13.3120   63.1230 C.3     6  ALA6        0.0304
     15  N         32.5750   11.1030   63.7900 N.am    7  LYS7       -0.1980
     16  CA        31.6490   10.0670   63.3360 C.3     7  LYS7        0.1596
     17  C         30.2360   10.3080   63.8850 C.2     7  LYS7        0.2287
     18  O         29.1850   10.2290   63.2220 O.2     7  LYS7       -0.2864
     19  CB        32.2310    8.6790   63.6340 C.3     7  LYS7        0.0298
     20  CG        31.4160    7.5190   63.1580 C.3     7  LYS7        0.0038
     21  CD        32.2440    6.2290   63.3070 C.3     7  LYS7        0.0206
     22  CE        33.5600    6.3520   62.5330 C.3     7  LYS7        0.1093
     23  NZ        34.6680    5.4970   63.0810 N.3     7  LYS7       -0.1314
     24  N         28.8840   13.2460   61.9630 N.3    10  ALA10      -0.1231
     25  CA        28.4810   12.8560   60.5920 C.3    10  ALA10       0.1694
     26  C         27.1070   12.1720   60.5620 C.2    10  ALA10       0.2592
     27  O         26.4020   12.2550   59.5450 O.2    10  ALA10      -0.2718
     28  CB        29.5370   11.9590   60.0240 C.3    10  ALA10       0.0304
     29  N         26.7320   11.4600   61.6130 N.am   11  THR11      -0.1953
     30  CA        25.4580   10.7790   61.6870 C.3    11  THR11       0.1897
     31  C         24.2490   11.6960   61.5240 C.2    11  THR11       0.2313
     32  O         23.1590   11.2710   61.1470 O.2    11  THR11      -0.2863
     33  CB        25.4260    9.8890   63.0040 C.3    11  THR11       0.1794
     34  OG1       26.5150    8.9640   62.9130 O.3    11  THR11      -0.2208
     35  CG2       24.1700    9.1240   63.0950 C.3    11  THR11       0.0378
     36  N         23.2580   11.4150   57.7860 N.3    14  GLY14      -0.1225
     37  CA        22.9280   10.1350   57.1560 C.3    14  GLY14       0.1811
     38  C         23.8150    9.0590   57.6350 C.2    14  GLY14       0.2280
     39  O         24.3450    9.0870   58.7450 O.2    14  GLY14      -0.2866
     40  N         26.6140    5.6250   56.3110 N.3    16  PRO16      -0.2116
     41  CA        27.3600    4.9210   55.2710 C.3    16  PRO16       0.1372
     42  C         26.4340    3.9020   54.5970 C.2    16  PRO16       0.2244
     43  O         25.4960    3.3370   55.1880 O.2    16  PRO16      -0.2868
     44  CB        28.4990    4.2060   56.0390 C.3    16  PRO16       0.0268
     45  CG        28.5710    4.9630   57.3550 C.3    16  PRO16       0.0207
     46  CD        27.2070    5.4600   57.6650 C.3    16  PRO16       0.0892
     47  N         27.0830    6.8760   50.6300 N.3    54  TRP54      -0.1241
     48  CA        26.3860    7.5320   51.7580 C.3    54  TRP54       0.1605
     49  C         24.9320    7.6700   51.4360 C.2    54  TRP54       0.2264
     50  O         24.6260    8.1080   50.3080 O.2    54  TRP54      -0.2867
     51  CB        27.0080    8.9340   51.9680 C.3    54  TRP54       0.0550
     52  CG        26.5510    9.5830   53.2350 C.ar   54  TRP54       0.0003
     53  CD1       25.5620   10.4740   53.3910 C.ar   54  TRP54       0.0946
     54  CD2       27.1610    9.4260   54.5630 C.ar   54  TRP54       0.0152
     55  NE1       25.4350   10.8630   54.7420 N.ar   54  TRP54      -0.2442
     56  CE2       26.4140   10.2120   55.4550 C.ar   54  TRP54       0.0810
     57  CE3       28.2390    8.6760   55.0470 C.ar   54  TRP54       0.0012
     58  CZ2       26.7210   10.3020   56.8250 C.ar   54  TRP54       0.0191
     59  CZ3       28.5240    8.7420   56.4650 C.ar   54  TRP54       0.0001
     60  CH2       27.7710    9.5580   57.2980 C.ar   54  TRP54       0.0015
     61  N         33.9590   15.6270   56.4430 N.3    69  LEU69      -0.1231
     62  CA        33.3730   15.1280   57.7170 C.3    69  LEU69       0.1693
     63  C         32.7730   13.7410   57.5360 C.2    69  LEU69       0.2591
     64  O         32.9340   12.8490   58.3870 O.2    69  LEU69      -0.2718
     65  CB        32.2990   16.0780   58.2350 C.3    69  LEU69       0.0284
     66  CG        31.6380   15.4950   59.5030 C.3    69  LEU69       0.0019
     67  CD1       32.5950   15.5180   60.7210 C.3    69  LEU69       0.0001
     68  CD2       30.4320   16.3510   59.8560 C.3    69  LEU69       0.0001
     69  N         32.1210   13.5130   56.4050 N.am   70  LEU70      -0.1980
     70  CA        31.4330   12.2540   56.1870 C.3    70  LEU70       0.1596
     71  C         32.3750   11.1540   55.7450 C.2    70  LEU70       0.2287
     72  O         32.2040   10.0110   56.0970 O.2    70  LEU70      -0.2864
     73  CB        30.3890   12.4440   55.0800 C.3    70  LEU70       0.0297
     74  CG        29.4310   13.5910   55.2330 C.3    70  LEU70       0.0022
     75  CD1       28.3830   13.6300   54.2030 C.3    70  LEU70       0.0001
     76  CD2       28.7990   13.5450   56.6120 C.3    70  LEU70       0.0001
     77  N         36.3370   11.0910   55.6720 N.3    72  PRO72      -0.2116
     78  CA        37.7100   11.5730   55.8210 C.3    72  PRO72       0.1372
     79  C         38.7530   10.7270   55.1420 C.2    72  PRO72       0.2244
     80  O         39.7970   11.2750   54.8250 O.2    72  PRO72      -0.2868
     81  CB        37.9330   11.5740   57.3480 C.3    72  PRO72       0.0268
     82  CG        36.9180   10.5710   57.8710 C.3    72  PRO72       0.0207
     83  CD        35.7100   10.6840   56.9350 C.3    72  PRO72       0.0892
@<TRIPOS>BOND
     1    50    49    2
     2    47    48    1
     3    49    48    1
     4    48    51    1
     5    51    52    1
     6    52    53   ar
     7    52    54   ar
     8    53    55   ar
     9    75    74    1
    10    54    57   ar
    11    54    56   ar
    12    42    43    2
    13    42    41    1
    14    55    56   ar
    15    80    79    2
    16    57    59   ar
    17    73    74    1
    18    73    70    1
    19    79    78    1
    20    74    76    1
    21    41    44    1
    22    41    40    1
    23    56    58   ar
    24    77    78    1
    25    77    83    1
    26    71    72    2
    27    71    70    1
    28    78    81    1
    29    44    45    1
    30    70    69    1
    31    40    46    1
    32    69    63   am
    33    61    62    1
    34    59    60   ar
    35    58    60   ar
    36    83    82    1
    37    37    38    1
    38    37    36    1
    39    81    82    1
    40    45    46    1
    41    63    62    1
    42    63    64    2
    43    38    39    2
    44    62    65    1
    45    65    66    1
    46    66    68    1
    47    66    67    1
    48    27    26    2
    49    28    25    1
    50    26    25    1
    51    26    29   am
    52    25    24    1
    53    32    31    2
    54    31    30    1
    55    29    30    1
    56    30    33    1
    57     9     7   am
    58    22    23    1
    59    22    21    1
    60    13    12    2
    61    34    33    1
    62    33    35    1
    63    14    11    1
    64    20    21    1
    65    20    19    1
    66    18    17    2
    67    16    19    1
    68    16    15    1
    69    16    17    1
    70    12    15   am
    71    12    11    1
    72     7     6    1
    73     7     8    2
    74     6     5    1
    75    11    10    1
    76     5     2    1
    77     4     3    2
    78     2     3    1
    79     2     1    1
