@<TRIPOS>MOLECULE
tmp/2wtwA00.pdb
 191 180 0 0 0
SMALL
GASTEIGER

@<TRIPOS>ATOM
      1  N         21.0340   51.9920   61.2050 N.3    10  ARG10      -0.1245
      2  CA        20.7690   52.4940   59.8620 C.3    10  ARG10       0.1563
      3  C         20.4330   53.9780   59.8670 C.2    10  ARG10       0.2260
      4  O         19.7600   54.4630   60.7760 O.2    10  ARG10      -0.2867
      5  CB        19.6210   51.7220   59.2190 C.3    10  ARG10       0.0307
      6  CG        18.3250   51.7760   60.0060 C.3    10  ARG10       0.0489
      7  CD        17.1530   51.3130   59.1590 C.3    10  ARG10       0.2205
      8  NE        16.3990   52.4280   58.5930 N.pl3  10  ARG10      -0.0865
      9  CZ        15.1700   52.7650   58.9770 C.cat  10  ARG10       0.5346
     10  NH1       14.5570   52.0710   59.9270 N.pl3  10  ARG10       0.1354
     11  NH2       14.5500   53.7900   58.4080 N.pl3  10  ARG10       0.1354
     12  N         18.5370   57.3850   59.1150 N.3    12  LEU12      -0.1231
     13  CA        17.1150   57.7010   59.0190 C.3    12  LEU12       0.1693
     14  C         16.8880   59.0490   58.3350 C.2    12  LEU12       0.2593
     15  O         15.7910   59.3260   57.8370 O.2    12  LEU12      -0.2718
     16  CB        16.4920   57.7410   60.4150 C.3    12  LEU12       0.0284
     17  CG        16.8170   56.5990   61.3790 C.3    12  LEU12       0.0019
     18  CD1       16.4750   56.9930   62.8060 C.3    12  LEU12       0.0001
     19  CD2       16.0750   55.3430   60.9740 C.3    12  LEU12       0.0001
     20  N         17.9210   59.8900   58.3240 N.am   13  GLY13      -0.1942
     21  CA        17.8090   61.2210   57.7540 C.3    13  GLY13       0.2014
     22  C         19.1410   61.9010   57.4900 C.2    13  GLY13       0.2638
     23  O         20.1920   61.4190   57.9130 O.2    13  GLY13      -0.2714
     24  N         19.0880   63.0280   56.7800 N.am   14  LYS14      -0.1977
     25  CA        20.2750   63.8060   56.4240 C.3    14  LYS14       0.1596
     26  C         19.9370   65.2950   56.4330 C.2    14  LYS14       0.2287
     27  O         18.7860   65.6740   56.2160 O.2    14  LYS14      -0.2864
     28  CB        20.7760   63.4310   55.0260 C.3    14  LYS14       0.0298
     29  CG        20.7760   61.9400   54.7080 C.3    14  LYS14       0.0038
     30  CD        19.3830   61.4270   54.3230 C.3    14  LYS14       0.0206
     31  CE        18.8610   62.0670   53.0400 C.3    14  LYS14       0.1093
     32  NZ        17.4990   61.5610   52.6990 N.3    14  LYS14      -0.1314
     33  N         21.1500   61.4890   61.1050 N.3    20  VAL20      -0.1245
     34  CA        20.4470   60.8470   62.2020 C.3    20  VAL20       0.1561
     35  C         20.4240   59.3450   61.9720 C.2    20  VAL20       0.2260
     36  O         19.7910   58.8630   61.0330 O.2    20  VAL20      -0.2867
     37  CB        19.0050   61.3660   62.3240 C.3    20  VAL20       0.0252
     38  CG1       18.4310   61.0160   63.6900 C.3    20  VAL20       0.0019
     39  CG2       18.9690   62.8660   62.0980 C.3    20  VAL20       0.0019
     40  N         17.3830   57.2950   68.7730 N.3    33  ALA33      -0.1245
     41  CA        17.8260   58.0000   67.5780 C.3    33  ALA33       0.1562
     42  C         18.9200   59.0050   67.9280 C.2    33  ALA33       0.2260
     43  O         18.7660   59.8120   68.8470 O.2    33  ALA33      -0.2867
     44  CB        16.6520   58.6970   66.9150 C.3    33  ALA33       0.0290
     45  N         21.4070   62.0420   66.6310 N.3    35  LYS35      -0.1245
     46  CA        21.7030   63.0620   65.6280 C.3    35  LYS35       0.1561
     47  C         23.1520   63.5330   65.6890 C.2    35  LYS35       0.2260
     48  O         23.6600   63.8860   66.7540 O.2    35  LYS35      -0.2867
     49  CB        20.7630   64.2620   65.7590 C.3    35  LYS35       0.0271
     50  CG        21.2650   65.4950   65.0230 C.3    35  LYS35       0.0035
     51  CD        20.2540   66.6290   65.0520 C.3    35  LYS35       0.0206
     52  CE        19.0570   66.3300   64.1660 C.3    35  LYS35       0.1093
     53  NZ        18.1630   67.5150   64.0410 N.3    35  LYS35      -0.1314
     54  N         18.1510   75.7570   71.4670 N.3    54  GLU54      -0.1245
     55  CA        17.0960   74.8390   71.0570 C.3    54  GLU54       0.1567
     56  C         17.1770   73.5780   71.9060 C.2    54  GLU54       0.2260
     57  O         16.1990   73.1690   72.5320 O.2    54  GLU54      -0.2867
     58  CB        17.2430   74.4880   69.5740 C.3    54  GLU54       0.0388
     59  CG        16.1500   73.5710   69.0400 C.3    54  GLU54       0.1160
     60  CD        16.4750   73.0000   67.6680 C.2    54  GLU54       0.3649
     61  OE1       15.7990   72.0360   67.2430 O.co2  54  GLU54      -0.2457
     62  OE2       17.4100   73.5130   67.0170 O.co2  54  GLU54      -0.2457
     63  N         14.1330   72.0850   74.4130 N.3    58  GLN58      -0.1245
     64  CA        13.6820   70.7040   74.2730 C.3    58  GLN58       0.1566
     65  C         14.1100   69.8150   75.4360 C.2    58  GLN58       0.2260
     66  O         13.3510   68.9560   75.8790 O.2    58  GLN58      -0.2867
     67  CB        14.1640   70.1060   72.9450 C.3    58  GLN58       0.0367
     68  CG        13.6410   68.6930   72.6750 C.3    58  GLN58       0.0905
     69  CD        13.7640   68.2760   71.2150 C.2    58  GLN58       0.2608
     70  OE1       14.5250   68.8670   70.4480 O.2    58  GLN58      -0.2717
     71  NE2       13.0120   67.2520   70.8280 N.am   58  GLN58      -0.0878
     72  N          8.6190   64.6090   71.2770 N.3    67  LEU67      -0.1245
     73  CA         9.8200   63.7800   71.2070 C.3    67  LEU67       0.1561
     74  C         10.8420   64.2530   72.2340 C.2    67  LEU67       0.2260
     75  O         11.1190   65.4460   72.3470 O.2    67  LEU67      -0.2867
     76  CB        10.4330   63.8170   69.8080 C.3    67  LEU67       0.0270
     77  CG        11.4600   62.7200   69.5220 C.3    67  LEU67       0.0019
     78  CD1       10.7910   61.5270   68.8660 C.3    67  LEU67       0.0001
     79  CD2       12.5640   63.2560   68.6380 C.3    67  LEU67       0.0001
     80  N         18.4770   61.4740   71.1120 N.3    83  LEU83      -0.1231
     81  CA        17.0490   61.7390   70.9700 C.3    83  LEU83       0.1693
     82  C         16.1880   60.4920   71.1170 C.2    83  LEU83       0.2592
     83  O         16.6500   59.3740   70.9050 O.2    83  LEU83      -0.2718
     84  CB        16.7700   62.3970   69.6160 C.3    83  LEU83       0.0284
     85  CG        17.3360   63.8060   69.4310 C.3    83  LEU83       0.0019
     86  CD1       17.5440   64.1280   67.9570 C.3    83  LEU83       0.0001
     87  CD2       16.4310   64.8330   70.0990 C.3    83  LEU83       0.0001
     88  N         14.9290   60.6990   71.4860 N.am   84  GLU84      -0.1966
     89  CA        13.9440   59.6290   71.4890 C.3    84  GLU84       0.1733
     90  C         13.7110   59.1690   70.0560 C.2    84  GLU84       0.2616
     91  O         13.6540   59.9880   69.1400 O.2    84  GLU84      -0.2715
     92  CB        12.6350   60.1240   72.1030 C.3    84  GLU84       0.0429
     93  CG        11.4620   59.1770   71.9310 C.3    84  GLU84       0.1163
     94  CD        10.1710   59.7320   72.5140 C.2    84  GLU84       0.3649
     95  OE1        9.1140   59.0960   72.3160 O.co2  84  GLU84      -0.2457
     96  OE2       10.2100   60.7990   73.1670 O.co2  84  GLU84      -0.2457
     97  N         13.5790   57.8610   69.8640 N.am   85  TYR85      -0.1960
     98  CA        13.3730   57.2940   68.5360 C.3    85  TYR85       0.1771
     99  C         11.8970   56.9870   68.2890 C.2    85  TYR85       0.2619
    100  O         11.2470   56.3460   69.1120 O.2    85  TYR85      -0.2715
    101  CB        14.2330   56.0370   68.3750 C.3    85  TYR85       0.0574
    102  CG        13.7440   55.0480   67.3390 C.ar   85  TYR85      -0.0198
    103  CD1       13.0750   53.8900   67.7180 C.ar   85  TYR85      -0.0009
    104  CD2       13.9580   55.2650   65.9840 C.ar   85  TYR85      -0.0009
    105  CE1       12.6280   52.9770   66.7770 C.ar   85  TYR85       0.0417
    106  CE2       13.5140   54.3570   65.0330 C.ar   85  TYR85       0.0417
    107  CZ        12.8480   53.2140   65.4360 C.ar   85  TYR85       0.1957
    108  OH        12.4020   52.3040   64.5010 O.3    85  TYR85      -0.2866
    109  N         11.3720   57.4570   67.1600 N.am   86  ALA86      -0.1964
    110  CA         9.9690   57.2310   66.8020 C.3    86  ALA86       0.1713
    111  C          9.8130   56.1220   65.7570 C.2    86  ALA86       0.2458
    112  O         10.1130   56.3220   64.5800 O.2    86  ALA86      -0.2730
    113  CB         9.3320   58.5180   66.3050 C.3    86  ALA86       0.0333
    114  N          9.3180   54.9550   66.1900 N.am   87  PRO87      -0.2716
    115  CA         9.2330   53.7080   65.4170 C.3    87  PRO87       0.1536
    116  C          8.4320   53.7960   64.1100 C.2    87  PRO87       0.2598
    117  O          8.8870   53.2790   63.0830 O.2    87  PRO87      -0.2715
    118  CB         8.5300   52.7500   66.3870 C.3    87  PRO87       0.0310
    119  CG         8.8120   53.2990   67.7260 C.3    87  PRO87       0.0237
    120  CD         8.8090   54.7800   67.5600 C.3    87  PRO87       0.0939
    121  N          7.2620   54.4300   64.1510 N.am   88  ARG88      -0.1964
    122  CA         6.3590   54.4550   63.0010 C.3    88  ARG88       0.1729
    123  C          6.8060   55.3970   61.8760 C.2    88  ARG88       0.2617
    124  O          6.2490   55.3680   60.7780 O.2    88  ARG88      -0.2715
    125  CB         4.9370   54.8000   63.4510 C.3    88  ARG88       0.0348
    126  CG         4.3060   53.7680   64.3790 C.3    88  ARG88       0.0492
    127  CD         3.8560   52.5380   63.6070 C.3    88  ARG88       0.2205
    128  NE         3.5070   51.4240   64.4870 N.pl3  88  ARG88      -0.0865
    129  CZ         2.2750   51.1550   64.9100 C.cat  88  ARG88       0.5346
    130  NH1        1.2570   51.9220   64.5430 N.pl3  88  ARG88       0.1354
    131  NH2        2.0620   50.1160   65.7060 N.pl3  88  ARG88       0.1354
    132  N          7.8050   56.2310   62.1520 N.am   89  GLY89      -0.1940
    133  CA         8.3640   57.1050   61.1340 C.3    89  GLY89       0.2014
    134  C          7.8570   58.5350   61.1710 C.2    89  GLY89       0.2638
    135  O          7.4050   59.0220   62.2080 O.2    89  GLY89      -0.2714
    136  N          7.9350   59.2110   60.0290 N.am   90  GLU90      -0.1977
    137  CA         7.5290   60.6080   59.9410 C.3    90  GLU90       0.1602
    138  C          6.1260   60.7820   59.3610 C.2    90  GLU90       0.2287
    139  O          5.7360   60.0840   58.4240 O.2    90  GLU90      -0.2864
    140  CB         8.5530   61.4140   59.1370 C.3    90  GLU90       0.0415
    141  CG         8.9860   60.7480   57.8440 C.3    90  GLU90       0.1163
    142  CD        10.3650   61.1880   57.3910 C.2    90  GLU90       0.3649
    143  OE1       10.4820   61.7080   56.2610 O.co2  90  GLU90      -0.2457
    144  OE2       11.3320   61.0120   58.1630 O.co2  90  GLU90      -0.2457
    145  N          6.0060   61.6810   55.3880 N.3    93  LYS93      -0.1245
    146  CA         6.0590   60.5520   54.4640 C.3    93  LYS93       0.1561
    147  C          4.7250   59.8290   54.3940 C.2    93  LYS93       0.2260
    148  O          4.2500   59.4830   53.3150 O.2    93  LYS93      -0.2867
    149  CB         7.1370   59.5570   54.8860 C.3    93  LYS93       0.0271
    150  CG         8.5420   59.8830   54.4030 C.3    93  LYS93       0.0035
    151  CD         9.2460   58.6000   53.9640 C.3    93  LYS93       0.0206
    152  CE        10.6440   58.4600   54.5580 C.3    93  LYS93       0.1093
    153  NZ        11.5840   59.4990   54.0670 N.3    93  LYS93      -0.1314
    154  N          6.5950   67.6970   58.4150 N.3   133  GLU133     -0.1231
    155  CA         7.9430   67.1480   58.5670 C.3   133  GLU133      0.1699
    156  C          8.5640   67.4560   59.9280 C.2   133  GLU133      0.2592
    157  O          9.7260   67.1300   60.1780 O.2   133  GLU133     -0.2718
    158  CB         8.8710   67.6150   57.4430 C.3   133  GLU133      0.0402
    159  CG         8.9620   69.1180   57.2790 C.3   133  GLU133      0.1161
    160  CD         8.0000   69.6450   56.2340 C.2   133  GLU133      0.3649
    161  OE1        8.4860   70.1560   55.2030 O.co2 133  GLU133     -0.2457
    162  OE2        6.7680   69.5440   56.4340 O.co2 133  GLU133     -0.2457
    163  N          7.7870   68.0920   60.7980 N.am  134  ASN134     -0.1974
    164  CA         8.2010   68.3150   62.1770 C.3   134  ASN134      0.1688
    165  C          7.4700   67.3620   63.1000 C.2   134  ASN134      0.2292
    166  O          7.5380   67.4870   64.3230 O.2   134  ASN134     -0.2864
    167  CB         7.9430   69.7610   62.6050 C.3   134  ASN134      0.1181
    168  CG         9.1120   70.6700   62.3000 C.2   134  ASN134      0.2629
    169  OD1       10.2320   70.2050   62.0990 O.2   134  ASN134     -0.2716
    170  ND2        8.8610   71.9720   62.2650 N.am  134  ASN134     -0.0877
    171  N          6.5390   63.1960   63.9490 N.3   136  LEU136     -0.1245
    172  CA         6.9010   61.7970   63.7940 C.3   136  LEU136      0.1561
    173  C          5.8620   60.9440   64.5110 C.2   136  LEU136      0.2260
    174  O          4.9670   61.4760   65.1710 O.2   136  LEU136     -0.2867
    175  CB         8.2930   61.5560   64.3760 C.3   136  LEU136      0.0270
    176  CG         9.4170   62.4060   63.7750 C.3   136  LEU136      0.0019
    177  CD1       10.6500   62.4000   64.6670 C.3   136  LEU136      0.0001
    178  CD2        9.7600   61.9210   62.3770 C.3   136  LEU136      0.0001
    179  N          8.8300   67.0660   66.9020 N.3   146  ALA146     -0.1231
    180  CA        10.2510   66.7410   66.7940 C.3   146  ALA146      0.1694
    181  C         11.2080   67.9310   66.8720 C.2   146  ALA146      0.2592
    182  O         12.2230   67.8580   67.5640 O.2   146  ALA146     -0.2718
    183  CB        10.5140   65.9420   65.5200 C.3   146  ALA146      0.0304
    184  N         10.9020   69.0120   66.1560 N.am  147  ASP147     -0.1974
    185  CA        11.8470   70.1260   66.0220 C.3   147  ASP147      0.1709
    186  C         11.4970   71.3470   66.8720 C.2   147  ASP147      0.2293
    187  O         10.3260   71.6190   67.1300 O.2   147  ASP147     -0.2864
    188  CB        11.9730   70.5430   64.5520 C.3   147  ASP147      0.1436
    189  CG        12.8970   71.7380   64.3550 C.2   147  ASP147      0.3671
    190  OD1       12.4430   72.7600   63.7980 O.co2 147  ASP147     -0.2456
    191  OD2       14.0740   71.6610   64.7660 O.co2 147  ASP147     -0.2456
@<TRIPOS>BOND
     1    32    31    1
     2    31    30    1
     3   148   147    2
     4   151   150    1
     5   151   152    1
     6   153   152    1
     7    30    29    1
     8   147   146    1
     9   150   149    1
    10   146   149    1
    11   146   145    1
    12    29    28    1
    13    28    25    1
    14   161   160   ar
    15    27    26    2
    16   160   162   ar
    17   160   159    1
    18   143   142   ar
    19    25    26    1
    20    25    24    1
    21    24    22   am
    22   159   158    1
    23   142   141    1
    24   142   144   ar
    25   158   155    1
    26    22    21    1
    27    22    23    2
    28    21    20    1
    29    15    14    2
    30   141   140    1
    31    20    14   am
    32    14    13    1
    33    11     9    1
    34   154   155    1
    35   139   138    2
    36   155   156    1
    37     8     9    2
    38     8     7    1
    39     9    10    1
    40    13    12    1
    41    13    16    1
    42   140   137    1
    43     7     6    1
    44     5     2    1
    45     5     6    1
    46   138   137    1
    47     2     3    1
    48     2     1    1
    49     3     4    2
    50   156   157    2
    51   156   163   am
    52   137   136    1
    53   136   134   am
    54    16    17    1
    55   124   123    2
    56   163   164    1
    57    19    17    1
    58    36    35    2
    59    33    34    1
    60   133   134    1
    61   133   132    1
    62   134   135    2
    63    17    18    1
    64   123   132   am
    65   123   122    1
    66    35    34    1
    67    39    37    1
    68   169   168    2
    69   164   167    1
    70   164   165    1
    71    34    37    1
    72   170   168   am
    73   168   167    1
    74    37    38    1
    75   178   176    1
    76   122   125    1
    77   122   121    1
    78   117   116    2
    79   165   166    2
    80   125   126    1
    81   127   126    1
    82   127   128    1
    83   176   175    1
    84   176   177    1
    85   172   171    1
    86   172   175    1
    87   172   173    1
    88   190   189   ar
    89    53    52    1
    90   116   121   am
    91   116   115    1
    92    52    51    1
    93   189   188    1
    94   189   191   ar
    95   128   129    2
    96   108   107    1
    97   173   174    2
    98   130   129    1
    99   188   185    1
   100   112   111    2
   101   129   131    1
   102    50    51    1
   103    50    49    1
   104   106   107   ar
   105   106   104   ar
   106   115   114    1
   107   115   118    1
   108   107   105   ar
   109   183   180    1
   110    46    47    1
   111    46    49    1
   112    46    45    1
   113    47    48    2
   114   111   114   am
   115   111   110    1
   116   104   102   ar
   117   185   184    1
   118   185   186    1
   119   184   181   am
   120   114   120    1
   121   113   110    1
   122   118   119    1
   123   105   103   ar
   124   180   181    1
   125   180   179    1
   126   110   109    1
   127   186   187    2
   128   181   182    2
   129    44    41    1
   130    62    60   ar
   131   109    99   am
   132    61    60   ar
   133   102   103   ar
   134   102   101    1
   135   120   119    1
   136    41    42    1
   137    41    40    1
   138    60    59    1
   139    42    43    2
   140    86    85    1
   141    99    98    1
   142    99   100    2
   143   101    98    1
   144    98    97    1
   145    79    77    1
   146    78    77    1
   147    59    58    1
   148    91    90    2
   149    85    84    1
   150    85    87    1
   151    77    76    1
   152    58    55    1
   153    84    81    1
   154    76    73    1
   155    97    90   am
   156    90    89    1
   157    70    69    2
   158    71    69   am
   159    83    82    2
   160    81    80    1
   161    81    82    1
   162    55    54    1
   163    55    56    1
   164    82    88   am
   165    73    72    1
   166    73    74    1
   167    69    68    1
   168    88    89    1
   169    89    92    1
   170    56    57    2
   171    93    92    1
   172    93    94    1
   173    74    75    2
   174    95    94   ar
   175    94    96   ar
   176    68    67    1
   177    67    64    1
   178    64    63    1
   179    64    65    1
   180    65    66    2
