@<TRIPOS>MOLECULE
tmp/2wtxD01.pdb
 186 181 0 0 0
SMALL
GASTEIGER

@<TRIPOS>ATOM
      1  N         13.6260   22.6350   47.9690 N.3    22  GLY22      -0.1210
      2  CA        13.5480   22.7550   49.4040 C.3    22  GLY22       0.1956
      3  C         12.3380   23.4760   49.9600 C.2    22  GLY22       0.2611
      4  O         11.3190   23.6410   49.3180 O.2    22  GLY22      -0.2717
      5  N         12.4770   23.8810   51.2080 N.am   23  LEU23      -0.1979
      6  CA        11.3960   24.4890   52.0100 C.3    23  LEU23       0.1596
      7  C         10.8150   25.7470   51.3440 C.2    23  LEU23       0.2287
      8  O          9.6350   26.0600   51.5150 O.2    23  LEU23      -0.2864
      9  CB        11.8720   24.7780   53.4480 C.3    23  LEU23       0.0297
     10  CG        11.7230   23.6940   54.5430 C.3    23  LEU23       0.0022
     11  CD1       12.3580   22.3440   54.1900 C.3    23  LEU23       0.0001
     12  CD2       12.2440   24.1740   55.9180 C.3    23  LEU23       0.0001
     13  N         22.1610   25.3760   66.6590 N.3    76  TYR76      -0.1241
     14  CA        22.1350   24.7240   65.3630 C.3    76  TYR76       0.1605
     15  C         23.0120   23.4640   65.2980 C.2    76  TYR76       0.2264
     16  O         22.4710   22.3500   65.1460 O.2    76  TYR76      -0.2867
     17  CB        22.4870   25.7350   64.2800 C.3    76  TYR76       0.0534
     18  CG        22.4760   25.2170   62.8710 C.ar   76  TYR76      -0.0201
     19  CD1       21.2780   24.9460   62.2070 C.ar   76  TYR76      -0.0009
     20  CD2       23.6640   25.0310   62.1870 C.ar   76  TYR76      -0.0009
     21  CE1       21.2760   24.4830   60.8990 C.ar   76  TYR76       0.0417
     22  CE2       23.6830   24.5720   60.8830 C.ar   76  TYR76       0.0417
     23  CZ        22.4970   24.3030   60.2450 C.ar   76  TYR76       0.1957
     24  OH        22.5470   23.8510   58.9560 O.3    76  TYR76      -0.2866
     25  N         17.7340   15.9890   65.4270 N.3    85  TRP85      -0.1241
     26  CA        17.8490   15.2300   64.1890 C.3    85  TRP85       0.1605
     27  C         18.0660   13.7210   64.3970 C.2    85  TRP85       0.2264
     28  O         17.2840   12.9250   63.8570 O.2    85  TRP85      -0.2867
     29  CB        18.9010   15.8230   63.2240 C.3    85  TRP85       0.0550
     30  CG        18.8980   15.1010   61.9090 C.ar   85  TRP85       0.0003
     31  CD1       19.5930   13.9760   61.5950 C.ar   85  TRP85       0.0946
     32  CD2       18.1210   15.4340   60.7440 C.ar   85  TRP85       0.0152
     33  NE1       19.3100   13.5890   60.3030 N.ar   85  TRP85      -0.2442
     34  CE2       18.4210   14.4750   59.7550 C.ar   85  TRP85       0.0810
     35  CE3       17.2180   16.4650   60.4380 C.ar   85  TRP85       0.0012
     36  CZ2       17.8420   14.5040   58.4730 C.ar   85  TRP85       0.0191
     37  CZ3       16.6450   16.4950   59.1550 C.ar   85  TRP85       0.0001
     38  CH2       16.9630   15.5190   58.1940 C.ar   85  TRP85       0.0015
     39  N         15.0810   10.7770   63.8940 N.3    89  HIS89      -0.1241
     40  CA        15.3760    9.6900   62.9510 C.3    89  HIS89       0.1621
     41  C         15.7840    8.3910   63.6370 C.2    89  HIS89       0.2264
     42  O         16.4600    7.5520   63.0210 O.2    89  HIS89      -0.2867
     43  CB        16.4230   10.1230   61.9050 C.3    89  HIS89       0.0745
     44  CG        15.9470   11.2300   61.0350 C.ar   89  HIS89       0.0817
     45  ND1       16.0310   12.5530   61.4090 N.ar   89  HIS89      -0.2268
     46  CD2       15.3110   11.2160   59.8410 C.ar   89  HIS89       0.1154
     47  CE1       15.4960   13.3110   60.4660 C.ar   89  HIS89       0.1986
     48  NE2       15.0590   12.5250   59.4980 N.ar   89  HIS89      -0.2212
     49  N          9.4770   23.6120   61.2070 N.3   130  ASP130     -0.1225
     50  CA        10.4870   22.5950   61.4470 C.3   130  ASP130      0.1805
     51  C         11.1690   22.6140   62.8190 C.2   130  ASP130      0.2598
     52  O         10.9900   23.5360   63.6260 O.2   130  ASP130     -0.2718
     53  CB        11.5330   22.6210   60.3220 C.3   130  ASP130      0.1424
     54  CG        11.7820   21.2430   59.7230 C.2   130  ASP130      0.3668
     55  OD1       11.2120   20.2280   60.2090 O.co2 130  ASP130     -0.2456
     56  OD2       12.5370   21.1880   58.7360 O.co2 130  ASP130     -0.2456
     57  N         11.9680   21.5740   63.0520 N.am  131  TYR131     -0.1962
     58  CA        12.4370   21.2090   64.3790 C.3   131  TYR131      0.1771
     59  C         13.3290   22.2460   65.0660 C.2   131  TYR131      0.2619
     60  O         13.4700   22.2150   66.2840 O.2   131  TYR131     -0.2715
     61  CB        13.1570   19.8490   64.3080 C.3   131  TYR131      0.0574
     62  CG        14.2840   19.8240   63.2920 C.ar  131  TYR131     -0.0198
     63  CD1       14.0110   19.6470   61.9300 C.ar  131  TYR131     -0.0009
     64  CD2       15.6250   19.9620   63.6890 C.ar  131  TYR131     -0.0009
     65  CE1       15.0260   19.6230   60.9880 C.ar  131  TYR131      0.0417
     66  CE2       16.6700   19.9260   62.7420 C.ar  131  TYR131      0.0417
     67  CZ        16.3550   19.7710   61.3990 C.ar  131  TYR131      0.1957
     68  OH        17.3420   19.7460   60.4430 O.3   131  TYR131     -0.2866
     69  N         13.9210   23.1640   64.3030 N.am  132  HIS132     -0.1973
     70  CA        14.7340   24.2400   64.8880 C.3   132  HIS132      0.1656
     71  C         13.9030   25.1220   65.8360 C.2   132  HIS132      0.2291
     72  O         14.4480   25.8250   66.6900 O.2   132  HIS132     -0.2864
     73  CB        15.3530   25.1260   63.7820 C.3   132  HIS132      0.0771
     74  CG        16.0200   24.3520   62.6840 C.ar  132  HIS132      0.0820
     75  ND1       15.3560   23.9590   61.5350 N.ar  132  HIS132     -0.2267
     76  CD2       17.2840   23.8820   62.5680 C.ar  132  HIS132      0.1154
     77  CE1       16.1920   23.2990   60.7520 C.ar  132  HIS132      0.1986
     78  NE2       17.3700   23.2480   61.3500 N.ar  132  HIS132     -0.2212
     79  N          8.6430   18.8760   59.2440 N.3   154  HIS154     -0.1226
     80  CA         9.0570   18.2910   57.9480 C.3   154  HIS154      0.1752
     81  C          9.6680   16.9030   58.0330 C.2   154  HIS154      0.2595
     82  O          9.7330   16.1760   57.0340 O.2   154  HIS154     -0.2718
     83  CB        10.0120   19.2300   57.2160 C.3   154  HIS154      0.0759
     84  CG         9.3480   20.4650   56.6970 C.ar  154  HIS154      0.0818
     85  ND1        8.7590   20.5210   55.4530 N.ar  154  HIS154     -0.2268
     86  CD2        9.1770   21.6920   57.2520 C.ar  154  HIS154      0.1154
     87  CE1        8.2710   21.7330   55.2510 C.ar  154  HIS154      0.1986
     88  NE2        8.5090   22.4640   56.3280 N.ar  154  HIS154     -0.2212
     89  N         10.1120   16.5410   59.2270 N.am  155  ILE155     -0.1980
     90  CA        10.8120   15.2960   59.4660 C.3   155  ILE155      0.1595
     91  C          9.9040   14.4230   60.3100 C.2   155  ILE155      0.2287
     92  O          8.8690   14.9050   60.7840 O.2   155  ILE155     -0.2864
     93  CB        12.1730   15.5620   60.2000 C.3   155  ILE155      0.0276
     94  CG1       11.9300   16.1180   61.6130 C.3   155  ILE155      0.0022
     95  CG2       13.0460   16.5320   59.3670 C.3   155  ILE155      0.0022
     96  CD1       13.2130   16.1790   62.5160 C.3   155  ILE155      0.0001
     97  N          3.7700   15.1510   58.4650 N.3   185  GLN185     -0.1245
     98  CA         3.9530   14.5660   57.1290 C.3   185  GLN185      0.1566
     99  C          3.0480   13.3530   56.8830 C.2   185  GLN185      0.2260
    100  O          2.5690   13.1420   55.7550 O.2   185  GLN185     -0.2867
    101  CB         5.4210   14.1570   56.9080 C.3   185  GLN185      0.0367
    102  CG         6.4470   15.3190   56.8260 C.3   185  GLN185      0.0905
    103  CD         6.5510   15.9460   55.4270 C.2   185  GLN185      0.2608
    104  OE1        5.5610   16.0490   54.7040 O.2   185  GLN185     -0.2717
    105  NE2        7.7660   16.3730   55.0500 N.am  185  GLN185     -0.0878
    106  N          3.7110   16.8380   52.2340 N.3   225  ILE225     -0.1245
    107  CA         4.2350   17.8470   51.3170 C.3   225  ILE225      0.1561
    108  C          4.4990   17.2530   49.9180 C.2   225  ILE225      0.2260
    109  O          4.8330   16.0710   49.7910 O.2   225  ILE225     -0.2867
    110  CB         5.4680   18.5640   51.9060 C.3   225  ILE225      0.0252
    111  CG1        5.7870   19.8340   51.1100 C.3   225  ILE225      0.0019
    112  CG2        6.6760   17.6140   51.9720 C.3   225  ILE225      0.0019
    113  CD1        6.7370   20.8080   51.8560 C.3   225  ILE225      0.0001
    114  N         21.4100   14.1830   50.2860 N.3   262  ARG262     -0.1245
    115  CA        22.4620   14.6550   51.1890 C.3   262  ARG262      0.1563
    116  C         23.1190   13.4340   51.7890 C.2   262  ARG262      0.2260
    117  O         22.4350   12.4500   52.1140 O.2   262  ARG262     -0.2867
    118  CB        21.8670   15.4730   52.3280 C.3   262  ARG262      0.0307
    119  CG        21.3700   16.8530   51.9320 C.3   262  ARG262      0.0489
    120  CD        20.7050   17.5470   53.1080 C.3   262  ARG262      0.2205
    121  NE        19.6600   16.7070   53.6800 N.pl3 262  ARG262     -0.0865
    122  CZ        19.7660   16.0650   54.8430 C.cat 262  ARG262      0.5346
    123  NH1       20.8840   16.1520   55.5880 N.pl3 262  ARG262      0.1354
    124  NH2       18.7650   15.3070   55.2450 N.pl3 262  ARG262      0.1354
    125  N         19.6340    8.3900   55.3680 N.3   267  LYS267     -0.1245
    126  CA        19.3990    7.9260   53.9950 C.3   267  LYS267      0.1561
    127  C         19.8030    6.4930   53.7010 C.2   267  LYS267      0.2260
    128  O         19.5870    6.0230   52.5840 O.2   267  LYS267     -0.2867
    129  CB        20.1020    8.8480   52.9850 C.3   267  LYS267      0.0271
    130  CG        19.7670   10.3370   53.1330 C.3   267  LYS267      0.0035
    131  CD        18.3260   10.6430   52.8060 C.3   267  LYS267      0.0206
    132  CE        18.0200   12.0910   53.1150 C.3   267  LYS267      0.1093
    133  NZ        16.6880   12.5190   52.6190 N.3   267  LYS267     -0.1314
    134  N         26.9410   17.0710   53.9320 N.3   299  SER299     -0.1202
    135  CA        25.9310   17.8050   54.6720 C.3   299  SER299      0.2020
    136  C         26.3350   17.8110   56.1590 C.2   299  SER299      0.2618
    137  O         26.7800   16.7770   56.6940 O.2   299  SER299     -0.2717
    138  CB        24.5750   17.0950   54.4990 C.3   299  SER299      0.2103
    139  OG        23.5560   17.7180   55.2600 O.3   299  SER299     -0.2182
    140  N         26.2060   18.9710   56.8060 N.am  300  ARG300     -0.1979
    141  CA        26.5450   19.1370   58.2510 C.3   300  ARG300      0.1597
    142  C         27.8650   18.4700   58.5890 C.2   300  ARG300      0.2287
    143  O         27.9710   17.6580   59.5080 O.2   300  ARG300     -0.2864
    144  CB        25.4130   18.5960   59.1210 C.3   300  ARG300      0.0334
    145  CG        24.0790   19.2330   58.7220 C.3   300  ARG300      0.0492
    146  CD        22.9250   18.2760   58.9180 C.3   300  ARG300      0.2205
    147  NE        21.7100   18.7870   58.2690 N.pl3 300  ARG300     -0.0865
    148  CZ        20.4770   18.5190   58.6840 C.cat 300  ARG300      0.5346
    149  NH1       20.2920   17.7550   59.7550 N.pl3 300  ARG300      0.1354
    150  NH2       19.4330   19.0090   58.0280 N.pl3 300  ARG300      0.1354
    151  N         12.6230    8.8610   56.7180 N.3   361  ASP361     -0.1225
    152  CA        12.5690   10.1110   55.9460 C.3   361  ASP361      0.1805
    153  C         11.1790   10.6990   56.0700 C.2   361  ASP361      0.2598
    154  O         10.1950    9.9980   55.8370 O.2   361  ASP361     -0.2718
    155  CB        12.8930    9.8500   54.4560 C.3   361  ASP361      0.1424
    156  CG        13.9880   10.7840   53.9000 C.2   361  ASP361      0.3668
    157  OD1       14.2320   11.8790   54.4560 O.co2 361  ASP361     -0.2456
    158  OD2       14.6230   10.4230   52.8750 O.co2 361  ASP361     -0.2456
    159  N         11.1040   11.9840   56.4160 N.am  362  GLY362     -0.1942
    160  CA         9.8280   12.6700   56.6330 C.3   362  GLY362      0.2014
    161  C          8.9160   12.5120   55.4350 C.2   362  GLY362      0.2639
    162  O          7.7410   12.1900   55.5810 O.2   362  GLY362     -0.2714
    163  N          9.4770   12.7080   54.2440 N.am  363  MET363     -0.1963
    164  CA         8.7530   12.4880   52.9900 C.3   363  MET363      0.1736
    165  C          9.6960   11.9060   51.9370 C.2   363  MET363      0.2616
    166  O          9.5460   10.7560   51.5030 O.2   363  MET363     -0.2715
    167  CB         8.1310   13.8000   52.4840 C.3   363  MET363      0.0427
    168  CG         7.2330   13.6610   51.2510 C.3   363  MET363      0.0599
    169  SD         5.8650   12.4780   51.4490 S.3   363  MET363     -0.1393
    170  CE         5.0250   13.0860   52.9100 C.3   363  MET363      0.0692
    171  N         10.6900   12.7140   51.5770 N.am  364  ASN364     -0.1958
    172  CA        11.6100   12.4560   50.4830 C.3   364  ASN364      0.1819
    173  C         11.0100   12.9210   49.1490 C.2   364  ASN364      0.2621
    174  O         10.2500   12.1920   48.4990 O.2   364  ASN364     -0.2715
    175  CB        12.1100   10.9950   50.4450 C.3   364  ASN364      0.1195
    176  CG        13.2900   10.8240   49.5210 C.2   364  ASN364      0.2630
    177  OD1       13.1960   11.1400   48.3300 O.2   364  ASN364     -0.2716
    178  ND2       14.4280   10.3620   50.0620 N.am  364  ASN364     -0.0877
    179  N         11.3730   14.1400   48.7590 N.am  365  LEU365     -0.1977
    180  CA        10.9050   14.7350   47.5230 C.3   365  LEU365      0.1596
    181  C         11.6920   14.2640   46.2840 C.2   365  LEU365      0.2287
    182  O         11.2350   14.4360   45.1520 O.2   365  LEU365     -0.2864
    183  CB        10.8610   16.2670   47.6570 C.3   365  LEU365      0.0297
    184  CG         9.8300   16.7490   48.7030 C.3   365  LEU365      0.0022
    185  CD1        9.6720   18.2590   48.6810 C.3   365  LEU365      0.0001
    186  CD2        8.4350   16.0500   48.5440 C.3   365  LEU365      0.0001
@<TRIPOS>BOND
     1   182   181    2
     2   181   180    1
     3   180   183    1
     4   180   179    1
     5   183   184    1
     6     1     2    1
     7   177   176    2
     8   174   173    2
     9   186   184    1
    10   185   184    1
    11   179   173   am
    12   173   172    1
    13     4     3    2
    14     2     3    1
    15   176   178   am
    16   176   175    1
    17   109   108    2
    18   108   107    1
    19     3     5   am
    20   114   115    1
    21   175   172    1
    22   172   171    1
    23   111   113    1
    24   111   110    1
    25   115   116    1
    26   115   118    1
    27     5     6    1
    28   168   169    1
    29   168   167    1
    30   107   110    1
    31   107   106    1
    32     7     8    2
    33     7     6    1
    34   169   170    1
    35   166   165    2
    36   171   165   am
    37   116   117    2
    38   110   112    1
    39   119   118    1
    40   119   120    1
    41   165   164    1
    42     6     9    1
    43   167   164    1
    44   128   127    2
    45   133   132    1
    46   131   132    1
    47   131   130    1
    48   158   156   ar
    49   129   130    1
    50   129   126    1
    51   164   163    1
    52   120   121    1
    53     9    10    1
    54   121   122    2
    55   127   126    1
    56   156   155    1
    57   156   157   ar
    58   134   135    1
    59   126   125    1
    60    11    10    1
    61   163   161   am
    62   155   152    1
    63   138   135    1
    64   138   139    1
    65    10    12    1
    66   135   136    1
    67   104   103    2
    68   122   124    1
    69   122   123    1
    70   105   103   am
    71    87    85   ar
    72    87    88   ar
    73   103   102    1
    74   161   162    2
    75   161   160    1
    76    85    84   ar
    77   100    99    2
    78   154   153    2
    79   152   153    1
    80   152   151    1
    81   153   159   am
    82   136   137    2
    83   136   140   am
    84    88    86   ar
    85   159   160    1
    86    84    83    1
    87    84    86   ar
    88   140   141    1
    89   102   101    1
    90    99    98    1
    91   101    98    1
    92    82    81    2
    93    98    97    1
    94    83    80    1
    95    80    81    1
    96    80    79    1
    97   150   148    1
    98    81    89   am
    99    38    36   ar
   100    38    37   ar
   101   141   142    1
   102   141   144    1
   103   147   148    2
   104   147   146    1
   105    36    34   ar
   106   142   143    2
   107   148   149    1
   108   145   146    1
   109   145   144    1
   110    56    54   ar
   111    24    23    1
   112    37    35   ar
   113    89    90    1
   114    95    93    1
   115    90    93    1
   116    90    91    1
   117    48    46   ar
   118    48    47   ar
   119    54    55   ar
   120    54    53    1
   121    34    33   ar
   122    34    32   ar
   123    46    44   ar
   124    93    94    1
   125    23    22   ar
   126    23    21   ar
   127    33    31   ar
   128    91    92    2
   129    53    50    1
   130    35    32   ar
   131    68    67    1
   132    47    45   ar
   133    32    30   ar
   134    77    78   ar
   135    77    75   ar
   136    22    20   ar
   137    21    19   ar
   138    65    67   ar
   139    65    63   ar
   140    44    45   ar
   141    44    43    1
   142    49    50    1
   143    78    76   ar
   144    67    66   ar
   145    50    51    1
   146    75    74   ar
   147    31    30   ar
   148    94    96    1
   149    43    40    1
   150    30    29    1
   151    63    62   ar
   152    20    18   ar
   153    19    18   ar
   154    76    74   ar
   155    74    73    1
   156    66    64   ar
   157    51    57   am
   158    51    52    2
   159    18    17    1
   160    40    41    1
   161    40    39    1
   162    42    41    2
   163    57    58    1
   164    29    26    1
   165    62    64   ar
   166    62    61    1
   167    73    70    1
   168    28    27    2
   169    26    27    1
   170    26    25    1
   171    17    14    1
   172    69    70    1
   173    69    59   am
   174    61    58    1
   175    58    59    1
   176    70    71    1
   177    59    60    2
   178    16    15    2
   179    15    14    1
   180    14    13    1
   181    71    72    2
