@<TRIPOS>MOLECULE
tmp/2wtxD00.pdb
 173 165 0 0 0
SMALL
GASTEIGER

@<TRIPOS>ATOM
      1  N         15.1700   26.2090   43.0320 N.3    20  ALA20      -0.1245
      2  CA        16.1670   25.4070   43.7010 C.3    20  ALA20       0.1562
      3  C         15.5520   24.3720   44.6310 C.2    20  ALA20       0.2260
      4  O         16.2350   23.5150   45.1290 O.2    20  ALA20      -0.2867
      5  CB        17.1380   26.2840   44.4560 C.3    20  ALA20       0.0290
      6  N         13.6260   22.6350   47.9690 N.3    22  GLY22      -0.1210
      7  CA        13.5480   22.7550   49.4040 C.3    22  GLY22       0.1956
      8  C         12.3380   23.4760   49.9600 C.2    22  GLY22       0.2611
      9  O         11.3190   23.6410   49.3180 O.2    22  GLY22      -0.2717
     10  N         12.4770   23.8810   51.2080 N.am   23  LEU23      -0.1979
     11  CA        11.3960   24.4890   52.0100 C.3    23  LEU23       0.1596
     12  C         10.8150   25.7470   51.3440 C.2    23  LEU23       0.2287
     13  O          9.6350   26.0600   51.5150 O.2    23  LEU23      -0.2864
     14  CB        11.8720   24.7780   53.4480 C.3    23  LEU23       0.0297
     15  CG        11.7230   23.6940   54.5430 C.3    23  LEU23       0.0022
     16  CD1       12.3580   22.3440   54.1900 C.3    23  LEU23       0.0001
     17  CD2       12.2440   24.1740   55.9180 C.3    23  LEU23       0.0001
     18  N         17.7340   15.9890   65.4270 N.3    85  TRP85      -0.1241
     19  CA        17.8490   15.2300   64.1890 C.3    85  TRP85       0.1605
     20  C         18.0660   13.7210   64.3970 C.2    85  TRP85       0.2264
     21  O         17.2840   12.9250   63.8570 O.2    85  TRP85      -0.2867
     22  CB        18.9010   15.8230   63.2240 C.3    85  TRP85       0.0550
     23  CG        18.8980   15.1010   61.9090 C.ar   85  TRP85       0.0003
     24  CD1       19.5930   13.9760   61.5950 C.ar   85  TRP85       0.0946
     25  CD2       18.1210   15.4340   60.7440 C.ar   85  TRP85       0.0152
     26  NE1       19.3100   13.5890   60.3030 N.ar   85  TRP85      -0.2442
     27  CE2       18.4210   14.4750   59.7550 C.ar   85  TRP85       0.0810
     28  CE3       17.2180   16.4650   60.4380 C.ar   85  TRP85       0.0012
     29  CZ2       17.8420   14.5040   58.4730 C.ar   85  TRP85       0.0191
     30  CZ3       16.6450   16.4950   59.1550 C.ar   85  TRP85       0.0001
     31  CH2       16.9630   15.5190   58.1940 C.ar   85  TRP85       0.0015
     32  N         20.1230   10.2250   44.4870 N.3   260  VAL260     -0.1231
     33  CA        20.6690   11.4820   44.9260 C.3   260  VAL260      0.1692
     34  C         20.0430   11.8760   46.2740 C.2   260  VAL260      0.2592
     35  O         18.8210   11.7870   46.4550 O.2   260  VAL260     -0.2718
     36  CB        20.5380   12.5650   43.8250 C.3   260  VAL260      0.0266
     37  CG1       19.1080   12.6650   43.3120 C.3   260  VAL260      0.0020
     38  CG2       21.0520   13.9050   44.2980 C.3   260  VAL260      0.0020
     39  N         20.9030   12.2290   47.2290 N.am  261  GLU261     -0.1966
     40  CA        20.5020   12.7610   48.5460 C.3   261  GLU261      0.1733
     41  C         21.6950   13.3970   49.2480 C.2   261  GLU261      0.2616
     42  O         22.8510   13.1390   48.8760 O.2   261  GLU261     -0.2715
     43  CB        19.9840   11.6730   49.4790 C.3   261  GLU261      0.0429
     44  CG        20.7510   10.4050   49.4410 C.3   261  GLU261      0.1163
     45  CD        19.9530    9.3450   48.7180 C.2   261  GLU261      0.3649
     46  OE1       18.9820    8.8230   49.3230 O.co2 261  GLU261     -0.2457
     47  OE2       20.2730    9.0480   47.5350 O.co2 261  GLU261     -0.2457
     48  N         21.4100   14.1830   50.2860 N.am  262  ARG262     -0.1977
     49  CA        22.4620   14.6550   51.1890 C.3   262  ARG262      0.1597
     50  C         23.1190   13.4340   51.7890 C.2   262  ARG262      0.2287
     51  O         22.4350   12.4500   52.1140 O.2   262  ARG262     -0.2864
     52  CB        21.8670   15.4730   52.3280 C.3   262  ARG262      0.0334
     53  CG        21.3700   16.8530   51.9320 C.3   262  ARG262      0.0492
     54  CD        20.7050   17.5470   53.1080 C.3   262  ARG262      0.2205
     55  NE        19.6600   16.7070   53.6800 N.pl3 262  ARG262     -0.0865
     56  CZ        19.7660   16.0650   54.8430 C.cat 262  ARG262      0.5346
     57  NH1       20.8840   16.1520   55.5880 N.pl3 262  ARG262      0.1354
     58  NH2       18.7650   15.3070   55.2450 N.pl3 262  ARG262      0.1354
     59  N         19.6340    8.3900   55.3680 N.3   267  LYS267     -0.1245
     60  CA        19.3990    7.9260   53.9950 C.3   267  LYS267      0.1561
     61  C         19.8030    6.4930   53.7010 C.2   267  LYS267      0.2260
     62  O         19.5870    6.0230   52.5840 O.2   267  LYS267     -0.2867
     63  CB        20.1020    8.8480   52.9850 C.3   267  LYS267      0.0271
     64  CG        19.7670   10.3370   53.1330 C.3   267  LYS267      0.0035
     65  CD        18.3260   10.6430   52.8060 C.3   267  LYS267      0.0206
     66  CE        18.0200   12.0910   53.1150 C.3   267  LYS267      0.1093
     67  NZ        16.6880   12.5190   52.6190 N.3   267  LYS267     -0.1314
     68  N         24.8370   10.2350   43.8550 N.3   295  ILE295     -0.1245
     69  CA        25.2570   11.5920   44.1510 C.3   295  ILE295      0.1561
     70  C         24.9770   11.8850   45.6350 C.2   295  ILE295      0.2260
     71  O         23.8400   11.7330   46.0860 O.2   295  ILE295     -0.2867
     72  CB        24.5680   12.5940   43.2040 C.3   295  ILE295      0.0252
     73  CG1       25.1040   12.3960   41.7670 C.3   295  ILE295      0.0019
     74  CG2       24.7970   14.0230   43.6750 C.3   295  ILE295      0.0019
     75  CD1       24.4840   13.3370   40.7280 C.3   295  ILE295      0.0001
     76  N         26.1880   14.9730   48.2340 N.3   297  PRO297     -0.2116
     77  CA        26.8950   16.1450   48.7640 C.3   297  PRO297      0.1372
     78  C         27.0740   16.0440   50.2650 C.2   297  PRO297      0.2244
     79  O         26.1650   15.5790   50.9780 O.2   297  PRO297     -0.2868
     80  CB        25.9430   17.3280   48.4640 C.3   297  PRO297      0.0268
     81  CG        24.5700   16.6790   48.2000 C.3   297  PRO297      0.0207
     82  CD        24.8590   15.3140   47.6740 C.3   297  PRO297      0.0892
     83  N         27.8060   18.4050   45.1770 N.3   338  HIS338     -0.1226
     84  CA        26.4750   18.9730   44.9650 C.3   338  HIS338      0.1752
     85  C         26.2440   19.2060   43.4740 C.2   338  HIS338      0.2596
     86  O         27.1260   19.6670   42.7600 O.2   338  HIS338     -0.2718
     87  CB        26.2870   20.2790   45.7550 C.3   338  HIS338      0.0759
     88  CG        24.9970   20.9890   45.4590 C.ar  338  HIS338      0.0818
     89  ND1       23.8540   20.8130   46.2140 N.ar  338  HIS338     -0.2268
     90  CD2       24.6690   21.8750   44.4850 C.ar  338  HIS338      0.1154
     91  CE1       22.8840   21.5700   45.7270 C.ar  338  HIS338      0.1986
     92  NE2       23.3540   22.2250   44.6790 N.ar  338  HIS338     -0.2212
     93  N         25.0470   18.8780   43.0190 N.am  339  PHE339     -0.1976
     94  CA        24.6460   19.1230   41.6490 C.3   339  PHE339      0.1639
     95  C         23.4560   20.0940   41.5360 C.2   339  PHE339      0.2290
     96  O         22.5320   20.0580   42.3480 O.2   339  PHE339     -0.2864
     97  CB        24.3230   17.7880   40.9760 C.3   339  PHE339      0.0560
     98  CG        25.5210   17.0890   40.4350 C.ar  339  PHE339     -0.0200
     99  CD1       26.4130   16.4450   41.2840 C.ar  339  PHE339     -0.0042
    100  CD2       25.7650   17.0710   39.0630 C.ar  339  PHE339     -0.0042
    101  CE1       27.5420   15.7960   40.7870 C.ar  339  PHE339     -0.0003
    102  CE2       26.9010   16.4180   38.5490 C.ar  339  PHE339     -0.0003
    103  CZ        27.7900   15.7810   39.4220 C.ar  339  PHE339     -0.0000
    104  N         20.0570   21.3880   40.6180 N.3   341  ARG341     -0.1245
    105  CA        18.7710   20.6950   40.5870 C.3   341  ARG341      0.1563
    106  C         18.1730   20.5500   39.1910 C.2   341  ARG341      0.2260
    107  O         17.6150   19.5110   38.8580 O.2   341  ARG341     -0.2867
    108  CB        17.7570   21.3960   41.4980 C.3   341  ARG341      0.0307
    109  CG        16.4870   20.5610   41.8110 C.3   341  ARG341      0.0489
    110  CD        15.6720   21.2270   42.9240 C.3   341  ARG341      0.2205
    111  NE        14.4000   20.5630   43.2030 N.pl3 341  ARG341     -0.0865
    112  CZ        13.2000   21.0290   42.8480 C.cat 341  ARG341      0.5346
    113  NH1       13.0840   22.1800   42.1820 N.pl3 341  ARG341      0.1354
    114  NH2       12.1030   20.3420   43.1620 N.pl3 341  ARG341      0.1354
    115  N         19.8020   17.7830   37.6130 N.3   344  LEU344     -0.1245
    116  CA        19.3470   16.5200   38.1780 C.3   344  LEU344      0.1561
    117  C         18.0420   16.0350   37.5350 C.2   344  LEU344      0.2260
    118  O         17.8310   14.8340   37.3860 O.2   344  LEU344     -0.2867
    119  CB        19.1450   16.6370   39.6910 C.3   344  LEU344      0.0270
    120  CG        20.3550   16.6890   40.6200 C.3   344  LEU344      0.0019
    121  CD1       19.8680   16.9330   42.0420 C.3   344  LEU344      0.0001
    122  CD2       21.1500   15.4150   40.5530 C.3   344  LEU344      0.0001
    123  N         17.4640   12.3280   35.9120 N.3   348  PHE348     -0.1241
    124  CA        16.2980   11.4990   36.2840 C.3   348  PHE348      0.1605
    125  C         15.5870   10.9820   35.0380 C.2   348  PHE348      0.2264
    126  O         15.2630    9.8120   34.9520 O.2   348  PHE348     -0.2867
    127  CB        15.2560   12.2840   37.0880 C.3   348  PHE348      0.0534
    128  CG        15.6290   12.5640   38.5080 C.ar  348  PHE348     -0.0203
    129  CD1       16.4570   11.7200   39.2170 C.ar  348  PHE348     -0.0042
    130  CD2       15.1010   13.6740   39.1460 C.ar  348  PHE348     -0.0042
    131  CE1       16.7960   11.9950   40.5350 C.ar  348  PHE348     -0.0003
    132  CE2       15.4130   13.9550   40.4610 C.ar  348  PHE348     -0.0003
    133  CZ        16.2740   13.1070   41.1650 C.ar  348  PHE348     -0.0000
    134  N         12.6230    8.8610   56.7180 N.3   361  ASP361     -0.1239
    135  CA        12.5690   10.1110   55.9460 C.3   361  ASP361      0.1674
    136  C         11.1790   10.6990   56.0700 C.2   361  ASP361      0.2266
    137  O         10.1950    9.9980   55.8370 O.2   361  ASP361     -0.2867
    138  CB        12.8930    9.8500   54.4560 C.3   361  ASP361      0.1410
    139  CG        13.9880   10.7840   53.9000 C.2   361  ASP361      0.3668
    140  OD1       14.2320   11.8790   54.4560 O.co2 361  ASP361     -0.2456
    141  OD2       14.6230   10.4230   52.8750 O.co2 361  ASP361     -0.2456
    142  N         10.6900   12.7140   51.5770 N.3   364  ASN364     -0.1225
    143  CA        11.6100   12.4560   50.4830 C.3   364  ASN364      0.1785
    144  C         11.0100   12.9210   49.1490 C.2   364  ASN364      0.2597
    145  O         10.2500   12.1920   48.4990 O.2   364  ASN364     -0.2718
    146  CB        12.1100   10.9950   50.4450 C.3   364  ASN364      0.1169
    147  CG        13.2900   10.8240   49.5210 C.2   364  ASN364      0.2627
    148  OD1       13.1960   11.1400   48.3300 O.2   364  ASN364     -0.2716
    149  ND2       14.4280   10.3620   50.0620 N.am  364  ASN364     -0.0877
    150  N         11.3730   14.1400   48.7590 N.am  365  LEU365     -0.1966
    151  CA        10.9050   14.7350   47.5230 C.3   365  LEU365      0.1728
    152  C         11.6920   14.2640   46.2840 C.2   365  LEU365      0.2616
    153  O         11.2350   14.4360   45.1520 O.2   365  LEU365     -0.2715
    154  CB        10.8610   16.2670   47.6570 C.3   365  LEU365      0.0311
    155  CG         9.8300   16.7490   48.7030 C.3   365  LEU365      0.0022
    156  CD1        9.6720   18.2590   48.6810 C.3   365  LEU365      0.0001
    157  CD2        8.4350   16.0500   48.5440 C.3   365  LEU365      0.0001
    158  N         12.8600   13.6570   46.4840 N.am  366  VAL366     -0.1977
    159  CA        13.6090   13.1380   45.3390 C.3   366  VAL366      0.1596
    160  C         12.7940   12.0630   44.6360 C.2   366  VAL366      0.2287
    161  O         12.7610   12.0210   43.4220 O.2   366  VAL366     -0.2864
    162  CB        15.0280   12.6440   45.7370 C.3   366  VAL366      0.0276
    163  CG1       15.6000   11.6730   44.7010 C.3   366  VAL366      0.0022
    164  CG2       15.9350   13.8370   45.9160 C.3   366  VAL366      0.0022
    165  N         10.0950   13.9890   42.6700 N.3   369  GLU369     -0.1245
    166  CA        10.8340   14.5790   41.5420 C.3   369  GLU369      0.1567
    167  C         11.1670   13.5550   40.4690 C.2   369  GLU369      0.2260
    168  O         11.0180   13.8400   39.2940 O.2   369  GLU369     -0.2867
    169  CB        12.1390   15.2410   42.0050 C.3   369  GLU369      0.0388
    170  CG        11.9520   16.5260   42.8000 C.3   369  GLU369      0.1160
    171  CD        13.2450   17.0450   43.4450 C.2   369  GLU369      0.3649
    172  OE1       13.1680   18.0830   44.1420 O.co2 369  GLU369     -0.2457
    173  OE2       14.3280   16.4380   43.2640 O.co2 369  GLU369     -0.2457
@<TRIPOS>BOND
     1   126   125    2
     2   125   124    1
     3   123   124    1
     4   124   127    1
     5   127   128    1
     6   118   117    2
     7   117   116    1
     8   115   116    1
     9   116   119    1
    10   128   130   ar
    11   128   129   ar
    12   102   100   ar
    13   102   103   ar
    14   107   106    2
    15   100    98   ar
    16   130   132   ar
    17   106   105    1
    18   129   131   ar
    19   168   167    2
    20   103   101   ar
    21   119   120    1
    22    98    97    1
    23    98    99   ar
    24   132   133   ar
    25   167   166    1
    26   131   133   ar
    27   122   120    1
    28   105   104    1
    29   105   108    1
    30   120   121    1
    31    75    73    1
    32   101    99   ar
    33    97    94    1
    34   108   109    1
    35    95    94    1
    36    95    96    2
    37   166   169    1
    38   166   165    1
    39    94    93    1
    40    73    72    1
    41   109   110    1
    42   169   170    1
    43   113   112    1
    44    86    85    2
    45   170   171    1
    46   112   114    1
    47   112   111    2
    48   110   111    1
    49    93    85   am
    50     1     2    1
    51    72    74    1
    52    72    69    1
    53   173   171   ar
    54    37    36    1
    55   161   160    2
    56   171   172   ar
    57    85    84    1
    58     2     5    1
    59     2     3    1
    60    36    38    1
    61    36    33    1
    62    68    69    1
    63    69    70    1
    64    90    92   ar
    65    90    88   ar
    66    32    33    1
    67     3     4    2
    68   160   159    1
    69    92    91   ar
    70   163   162    1
    71    33    34    1
    72    84    83    1
    73    84    87    1
    74   153   152    2
    75   159   162    1
    76   159   158    1
    77    88    87    1
    78    88    89   ar
    79    70    71    2
    80    91    89   ar
    81   162   164    1
    82    34    35    2
    83    34    39   am
    84   152   158   am
    85   152   151    1
    86    39    40    1
    87   151   154    1
    88   151   150    1
    89    47    45   ar
    90   154   155    1
    91    82    81    1
    92    82    76    1
    93     6     7    1
    94    81    80    1
    95    76    77    1
    96   148   147    2
    97    80    77    1
    98   145   144    2
    99   157   155    1
   100    40    41    1
   101    40    43    1
   102   156   155    1
   103    45    46   ar
   104    45    44    1
   105   150   144   am
   106    77    78    1
   107    42    41    2
   108   144   143    1
   109    41    48   am
   110     9     8    2
   111     7     8    1
   112    44    43    1
   113   147   149   am
   114   147   146    1
   115     8    10   am
   116    78    79    2
   117    48    49    1
   118   146   143    1
   119   143   142    1
   120    49    50    1
   121    49    52    1
   122    10    11    1
   123    12    13    2
   124    12    11    1
   125    50    51    2
   126    53    52    1
   127    53    54    1
   128    11    14    1
   129    62    61    2
   130    67    66    1
   131    65    66    1
   132    65    64    1
   133   141   139   ar
   134    63    64    1
   135    63    60    1
   136    54    55    1
   137    14    15    1
   138    55    56    2
   139    61    60    1
   140   139   140   ar
   141   139   138    1
   142    60    59    1
   143    16    15    1
   144   138   135    1
   145    15    17    1
   146    56    58    1
   147    56    57    1
   148   137   136    2
   149   135   136    1
   150   135   134    1
   151    31    29   ar
   152    31    30   ar
   153    29    27   ar
   154    30    28   ar
   155    27    26   ar
   156    27    25   ar
   157    26    24   ar
   158    28    25   ar
   159    25    23   ar
   160    24    23   ar
   161    23    22    1
   162    22    19    1
   163    21    20    2
   164    19    20    1
   165    19    18    1
