@<TRIPOS>MOLECULE
tmp/2wu1A01.pdb
 165 160 0 0 0
SMALL
GASTEIGER

@<TRIPOS>ATOM
      1  N         24.8140   -9.5650   21.8210 N.3    41  THR41      -0.1203
      2  CA        26.0780   -9.9020   22.4880 C.3    41  THR41       0.1994
      3  C         25.8680   -9.8980   23.9970 C.2    41  THR41       0.2618
      4  O         24.8030   -9.5330   24.4590 O.2    41  THR41      -0.2717
      5  CB        27.1540   -8.8660   22.1980 C.3    41  THR41       0.1784
      6  OG1       26.6790   -7.5870   22.6330 O.3    41  THR41      -0.2211
      7  CG2       27.4860   -8.8240   20.6960 C.3    41  THR41       0.0376
      8  N         26.8850  -10.2900   24.7640 N.am   42  GLY42      -0.1942
      9  CA        26.8470  -10.1610   26.2130 C.3    42  GLY42       0.2014
     10  C         26.9880  -11.4960   26.9030 C.2    42  GLY42       0.2639
     11  O         27.2610  -12.5140   26.2620 O.2    42  GLY42      -0.2714
     12  N         26.8080  -11.5010   28.2170 N.am   43  GLY43      -0.1939
     13  CA        26.7930  -12.7490   28.9650 C.3    43  GLY43       0.2014
     14  C         25.6590  -13.7000   28.5790 C.2    43  GLY43       0.2640
     15  O         25.8740  -14.8980   28.4010 O.2    43  GLY43      -0.2714
     16  N         24.4520  -13.1600   28.4300 N.am   44  THR44      -0.1937
     17  CA        23.2500  -13.9690   28.2320 C.3    44  THR44       0.2013
     18  C         23.3370  -15.0160   27.1240 C.2    44  THR44       0.2484
     19  O         23.0500  -16.1880   27.3640 O.2    44  THR44      -0.2729
     20  CB        21.9790  -13.1100   28.0180 C.3    44  THR44       0.1807
     21  OG1       21.6770  -12.4040   29.2260 O.3    44  THR44      -0.2208
     22  CG2       20.7970  -14.0060   27.6800 C.3    44  THR44       0.0379
     23  N         23.7150  -14.6020   25.9070 N.am   45  PRO45      -0.2726
     24  CA        23.6710  -15.5670   24.7960 C.3    45  PRO45       0.1402
     25  C         24.8370  -16.5860   24.7390 C.2    45  PRO45       0.2269
     26  O         24.8680  -17.3930   23.8110 O.2    45  PRO45      -0.2865
     27  CB        23.7230  -14.6770   23.5480 C.3    45  PRO45       0.0296
     28  CG        24.1380  -13.3020   24.0180 C.3    45  PRO45       0.0237
     29  CD        24.2950  -13.3060   25.5090 C.3    45  PRO45       0.0939
     30  N         22.2260   -6.3060   16.9810 N.3    71  MET71      -0.1245
     31  CA        21.3420   -5.3130   17.5920 C.3    71  MET71       0.1570
     32  C         21.9930   -3.9640   17.7980 C.2    71  MET71       0.2261
     33  O         21.3440   -2.9240   17.6410 O.2    71  MET71      -0.2867
     34  CB        20.9020   -5.7650   18.9830 C.3    71  MET71       0.0387
     35  CG        19.9660   -6.9130   19.0120 C.3    71  MET71       0.0595
     36  SD        19.2920   -7.1160   20.6610 S.3    71  MET71      -0.1393
     37  CE        20.7100   -6.7590   21.6560 C.3    71  MET71       0.0692
     38  N         31.6460   -5.0110   20.2010 N.3    85  TYR85      -0.1241
     39  CA        30.7130   -6.0750   19.8490 C.3    85  TYR85       0.1605
     40  C         31.1400   -6.7580   18.5520 C.2    85  TYR85       0.2264
     41  O         30.8300   -7.9210   18.3040 O.2    85  TYR85      -0.2867
     42  CB        29.2830   -5.5390   19.7820 C.3    85  TYR85       0.0534
     43  CG        28.7040   -5.2150   21.1480 C.ar   85  TYR85      -0.0201
     44  CD1       29.3610   -5.6090   22.3070 C.ar   85  TYR85      -0.0009
     45  CD2       27.4900   -4.5450   21.2770 C.ar   85  TYR85      -0.0009
     46  CE1       28.8380   -5.3330   23.5540 C.ar   85  TYR85       0.0417
     47  CE2       26.9590   -4.2650   22.5210 C.ar   85  TYR85       0.0417
     48  CZ        27.6330   -4.6650   23.6560 C.ar   85  TYR85       0.1957
     49  OH        27.1050   -4.3940   24.9050 O.3    85  TYR85      -0.2866
     50  N         18.6160  -10.3790   24.5020 N.3   137  GLY137     -0.1210
     51  CA        18.5190  -10.5280   25.9450 C.3   137  GLY137      0.1956
     52  C         17.6750   -9.3880   26.4890 C.2   137  GLY137      0.2612
     53  O         17.0240   -8.6720   25.7240 O.2   137  GLY137     -0.2717
     54  N         17.6660   -9.2110   27.8020 N.am  138  VAL138     -0.1965
     55  CA        16.9390   -8.0970   28.3770 C.3   138  VAL138      0.1727
     56  C         17.8160   -7.4770   29.4440 C.2   138  VAL138      0.2617
     57  O         18.5670   -8.1940   30.0970 O.2   138  VAL138     -0.2715
     58  CB        15.5890   -8.5680   28.9810 C.3   138  VAL138      0.0290
     59  CG1       15.8150   -9.6140   30.0920 C.3   138  VAL138      0.0023
     60  CG2       14.7830   -7.3730   29.4900 C.3   138  VAL138      0.0023
     61  N         17.7510   -6.1570   29.6160 N.am  139  GLY139     -0.1940
     62  CA        18.5150   -5.5090   30.6800 C.3   139  GLY139      0.2014
     63  C         17.8890   -5.6110   32.0690 C.2   139  GLY139      0.2639
     64  O         16.6990   -5.8930   32.2050 O.2   139  GLY139     -0.2714
     65  N         18.6870   -5.3770   33.1060 N.am  140  ASN140     -0.1958
     66  CA        18.1550   -5.3050   34.4760 C.3   140  ASN140      0.1819
     67  C         17.0030   -4.3120   34.5760 C.2   140  ASN140      0.2621
     68  O         16.0240   -4.5520   35.2850 O.2   140  ASN140     -0.2715
     69  CB        19.2490   -4.8940   35.4670 C.3   140  ASN140      0.1195
     70  CG        20.3840   -5.9110   35.5590 C.2   140  ASN140      0.2630
     71  OD1       20.3690   -6.9440   34.9060 O.2   140  ASN140     -0.2716
     72  ND2       21.3660   -5.6140   36.3860 N.am  140  ASN140     -0.0877
     73  N         17.1410   -3.1950   33.8630 N.am  141  ASP141     -0.1971
     74  CA        16.1200   -2.1440   33.8040 C.3   141  ASP141      0.1709
     75  C         15.0610   -2.3890   32.7160 C.2   141  ASP141      0.2293
     76  O         14.2100   -1.5440   32.4700 O.2   141  ASP141     -0.2864
     77  CB        16.7650   -0.7400   33.6600 C.3   141  ASP141      0.1436
     78  CG        17.5220   -0.5420   32.3210 C.2   141  ASP141      0.3671
     79  OD1       17.5380   -1.4700   31.4690 O.co2 141  ASP141     -0.2456
     80  OD2       18.1150    0.5580   32.1280 O.co2 141  ASP141     -0.2456
     81  N         15.5900   -2.9690   29.4100 N.3   143  HIS143     -0.1241
     82  CA        15.8650   -2.4760   28.0710 C.3   143  HIS143      0.1621
     83  C         15.9900   -3.6460   27.0910 C.2   143  HIS143      0.2264
     84  O         16.4500   -4.7270   27.4460 O.2   143  HIS143     -0.2867
     85  CB        17.0710   -1.5180   28.0150 C.3   143  HIS143      0.0745
     86  CG        18.4070   -2.1910   28.1580 C.ar  143  HIS143      0.0817
     87  ND1       19.4550   -1.6210   28.8490 N.ar  143  HIS143     -0.2268
     88  CD2       18.8640   -3.3850   27.7120 C.ar  143  HIS143      0.1154
     89  CE1       20.4950   -2.4330   28.8230 C.ar  143  HIS143      0.1986
     90  NE2       20.1620   -3.5110   28.1380 N.ar  143  HIS143     -0.2212
     91  N         17.7420   -4.4520   23.4210 N.3   145  ALA145     -0.1231
     92  CA        18.9540   -3.8300   22.8710 C.3   145  ALA145      0.1694
     93  C         19.4240   -2.6720   23.7800 C.2   145  ALA145      0.2592
     94  O         19.4600   -2.8460   24.9890 O.2   145  ALA145     -0.2718
     95  CB        18.7560   -3.3910   21.4160 C.3   145  ALA145      0.0304
     96  N         19.7970   -1.5120   23.2250 N.am  146  PHE146     -0.1976
     97  CA        20.0480   -0.3300   24.0660 C.3   146  PHE146      0.1639
     98  C         18.9160    0.6810   24.0180 C.2   146  PHE146      0.2290
     99  O         19.1160    1.8870   24.1640 O.2   146  PHE146     -0.2864
    100  CB        21.4010    0.3340   23.7970 C.3   146  PHE146      0.0560
    101  CG        22.5480   -0.4600   24.3240 C.ar  146  PHE146     -0.0200
    102  CD1       22.5210   -0.9390   25.6350 C.ar  146  PHE146     -0.0042
    103  CD2       23.6290   -0.7760   23.5110 C.ar  146  PHE146     -0.0042
    104  CE1       23.5640   -1.7040   26.1380 C.ar  146  PHE146     -0.0003
    105  CE2       24.6750   -1.5400   24.0000 C.ar  146  PHE146     -0.0003
    106  CZ        24.6440   -2.0070   25.3260 C.ar  146  PHE146     -0.0000
    107  N         22.9870    3.1420   35.1720 N.3   165  ASP165     -0.1225
    108  CA        22.7870    1.7600   35.5850 C.3   165  ASP165      0.1805
    109  C         23.3310    0.7550   34.5700 C.2   165  ASP165      0.2598
    110  O         23.9630   -0.2300   34.9490 O.2   165  ASP165     -0.2718
    111  CB        21.3070    1.5180   35.8730 C.3   165  ASP165      0.1424
    112  CG        20.7690    2.4760   36.9280 C.2   165  ASP165      0.3668
    113  OD1       21.2070    2.3630   38.0910 O.co2 165  ASP165     -0.2456
    114  OD2       19.9410    3.3570   36.5900 O.co2 165  ASP165     -0.2456
    115  N         23.1030    1.0130   33.2830 N.am  166  THR166     -0.1953
    116  CA        23.6190    0.1400   32.2350 C.3   166  THR166      0.1897
    117  C         25.1540    0.1380   32.2040 C.2   166  THR166      0.2313
    118  O         25.7720   -0.8950   31.9740 O.2   166  THR166     -0.2863
    119  CB        23.0650    0.5340   30.8510 C.3   166  THR166      0.1794
    120  OG1       21.6580    0.2750   30.8160 O.3   166  THR166     -0.2208
    121  CG2       23.7710   -0.2450   29.7260 C.3   166  THR166      0.0378
    122  N         26.4560   -1.8770   35.1080 N.3   169  ALA169     -0.1231
    123  CA        26.2120   -3.2840   34.8120 C.3   169  ALA169      0.1694
    124  C         27.2200   -3.8470   33.8160 C.2   169  ALA169      0.2592
    125  O         27.6220   -5.0080   33.9140 O.2   169  ALA169     -0.2718
    126  CB        24.7820   -3.4860   34.2950 C.3   169  ALA169      0.0304
    127  N         27.6190   -3.0280   32.8500 N.am  170  ASN170     -0.1974
    128  CA        28.5090   -3.5030   31.8010 C.3   170  ASN170      0.1688
    129  C         29.9910   -3.3790   32.1680 C.2   170  ASN170      0.2292
    130  O         30.8620   -3.9040   31.4720 O.2   170  ASN170     -0.2864
    131  CB        28.1950   -2.8070   30.4710 C.3   170  ASN170      0.1181
    132  CG        26.9530   -3.3740   29.7990 C.2   170  ASN170      0.2629
    133  OD1       26.2260   -4.1740   30.3850 O.2   170  ASN170     -0.2716
    134  ND2       26.7090   -2.9670   28.5610 N.am  170  ASN170     -0.0877
    135  N         31.6920   -4.8160   34.2590 N.3   172  ARG172     -0.1231
    136  CA        32.3210   -6.1180   34.4960 C.3   172  ARG172      0.1694
    137  C         33.1630   -6.5630   33.2990 C.2   172  ARG172      0.2592
    138  O         34.0580   -7.4030   33.4420 O.2   172  ARG172     -0.2718
    139  CB        31.2780   -7.1920   34.8580 C.3   172  ARG172      0.0321
    140  CG        30.3080   -7.5750   33.7400 C.3   172  ARG172      0.0489
    141  CD        29.1810   -8.4760   34.2610 C.3   172  ARG172      0.2205
    142  NE        28.0400   -8.5350   33.3430 N.pl3 172  ARG172     -0.0865
    143  CZ        27.5150   -9.6570   32.8510 C.cat 172  ARG172      0.5346
    144  NH1       28.0170  -10.8370   33.1940 N.pl3 172  ARG172      0.1354
    145  NH2       26.4780   -9.6020   32.0210 N.pl3 172  ARG172      0.1354
    146  N         32.8740   -5.9950   32.1260 N.am  173  PHE173     -0.1976
    147  CA        33.6620   -6.2640   30.9220 C.3   173  PHE173      0.1639
    148  C         34.7680   -5.2360   30.7000 C.2   173  PHE173      0.2290
    149  O         35.6330   -5.4280   29.8510 O.2   173  PHE173     -0.2864
    150  CB        32.7680   -6.3010   29.6810 C.3   173  PHE173      0.0560
    151  CG        31.7110   -7.3440   29.7370 C.ar  173  PHE173     -0.0200
    152  CD1       32.0500   -8.6820   29.7180 C.ar  173  PHE173     -0.0042
    153  CD2       30.3730   -6.9900   29.8050 C.ar  173  PHE173     -0.0042
    154  CE1       31.0660   -9.6560   29.7710 C.ar  173  PHE173     -0.0003
    155  CE2       29.3860   -7.9540   29.8570 C.ar  173  PHE173     -0.0003
    156  CZ        29.7300   -9.2870   29.8400 C.ar  173  PHE173     -0.0000
    157  N         17.3800  -10.4830   36.5890 N.3   208  LYS208     -0.1245
    158  CA        16.4350  -10.1660   35.5260 C.3   208  LYS208      0.1561
    159  C         14.9750  -10.4290   35.9200 C.2   208  LYS208      0.2260
    160  O         14.0800  -10.2540   35.0890 O.2   208  LYS208     -0.2867
    161  CB        16.7620  -10.9850   34.2700 C.3   208  LYS208      0.0271
    162  CG        18.1900  -10.8260   33.7840 C.3   208  LYS208      0.0035
    163  CD        18.4400   -9.3820   33.3860 C.3   208  LYS208      0.0206
    164  CE        19.9130   -9.1130   33.1480 C.3   208  LYS208      0.1093
    165  NZ        20.3680   -9.8000   31.9280 N.3   208  LYS208     -0.1314
@<TRIPOS>BOND
     1    30    31    1
     2    31    32    1
     3    31    34    1
     4    33    32    2
     5    41    40    2
     6    40    39    1
     7    34    35    1
     8    35    36    1
     9    42    39    1
    10    42    43    1
    11    39    38    1
    12    36    37    1
    13     7     5    1
    14    43    45   ar
    15    43    44   ar
    16    45    47   ar
    17    95    92    1
    18     1     2    1
    19     5     2    1
    20     5     6    1
    21    44    46   ar
    22     2     3    1
    23    47    48   ar
    24    92    91    1
    25    92    93    1
    26    96    93   am
    27    96    97    1
    28   103   105   ar
    29   103   101   ar
    30    27    28    1
    31    27    24    1
    32    46    48   ar
    33    48    49    1
    34    93    94    2
    35   100    97    1
    36   100   101    1
    37    26    25    2
    38     3     4    2
    39     3     8   am
    40   105   106   ar
    41    28    29    1
    42    98    97    1
    43    98    99    2
    44   101   102   ar
    45    50    51    1
    46    25    24    1
    47     8     9    1
    48    24    23    1
    49   106   104   ar
    50    29    23    1
    51   102   104   ar
    52    53    52    2
    53    23    18   am
    54    51    52    1
    55     9    10    1
    56    11    10    2
    57    52    54   am
    58    10    12   am
    59    83    84    2
    60    83    82    1
    61    18    19    2
    62    18    17    1
    63    22    20    1
    64    88    90   ar
    65    88    86   ar
    66    54    55    1
    67    85    82    1
    68    85    86    1
    69    20    17    1
    70    20    21    1
    71    82    81    1
    72    90    89   ar
    73    86    87   ar
    74    12    13    1
    75    17    16    1
    76    55    58    1
    77    55    56    1
    78    15    14    2
    79    16    14   am
    80   134   132   am
    81    14    13    1
    82    89    87   ar
    83    58    60    1
    84    58    59    1
    85    56    61   am
    86    56    57    2
    87    61    62    1
    88   150   151    1
    89   150   147    1
    90   152   151   ar
    91   152   154   ar
    92   121   119    1
    93   151   153   ar
    94   154   156   ar
    95   132   133    2
    96   132   131    1
    97   153   155   ar
    98   156   155   ar
    99   149   148    2
   100   131   128    1
   101    62    63    1
   102   148   147    1
   103   120   119    1
   104   119   116    1
   105   147   146    1
   106    79    78   ar
   107   130   129    2
   108   128   129    1
   109   128   127    1
   110   165   164    1
   111   118   117    2
   112   145   143    1
   113    63    64    2
   114    63    65   am
   115   146   137   am
   116    80    78   ar
   117   117   116    1
   118   116   115    1
   119    78    77    1
   120    76    75    2
   121    75    74    1
   122   127   124   am
   123   143   144    1
   124   143   142    2
   125    65    66    1
   126   164   163    1
   127   115   109   am
   128   137   138    2
   129   137   136    1
   130   142   141    1
   131   163   162    1
   132    77    74    1
   133   140   141    1
   134   140   139    1
   135   162   161    1
   136    74    73    1
   137   124   125    2
   138   124   123    1
   139    73    67   am
   140   135   136    1
   141   161   158    1
   142   126   123    1
   143    66    67    1
   144    66    69    1
   145   136   139    1
   146   109   110    2
   147   109   108    1
   148    67    68    2
   149   123   122    1
   150    71    70    2
   151   160   159    2
   152   107   108    1
   153    69    70    1
   154   158   159    1
   155   158   157    1
   156    70    72   am
   157   108   111    1
   158   111   112    1
   159   114   112   ar
   160   112   113   ar
