@<TRIPOS>MOLECULE
tmp/2wu6A00.pdb
 168 158 0 0 0
SMALL
GASTEIGER

@<TRIPOS>ATOM
      1  N         43.8330   65.1380   14.5740 N.3    28  ASN28      -0.1225
      2  CA        43.3780   64.5430   15.8030 C.3    28  ASN28       0.1785
      3  C         41.9190   64.2130   15.6630 C.2    28  ASN28       0.2597
      4  O         41.1510   65.0220   15.1440 O.2    28  ASN28      -0.2718
      5  CB        43.6010   65.5200   16.9560 C.3    28  ASN28       0.1169
      6  CG        45.0760   65.6510   17.3220 C.2    28  ASN28       0.2627
      7  OD1       45.7130   64.6730   17.7440 O.2    28  ASN28      -0.2716
      8  ND2       45.6270   66.8630   17.1680 N.am   28  ASN28      -0.0877
      9  N         41.5310   63.0170   16.0840 N.am   29  LEU29      -0.1980
     10  CA        40.1350   62.6020   15.9540 C.3    29  LEU29       0.1596
     11  C         39.4120   62.5180   17.2980 C.2    29  LEU29       0.2287
     12  O         38.2200   62.8710   17.4160 O.2    29  LEU29      -0.2864
     13  CB        40.0330   61.2560   15.1910 C.3    29  LEU29       0.0297
     14  CG        40.4550   61.3240   13.7160 C.3    29  LEU29       0.0022
     15  CD1       40.4040   59.9350   13.0500 C.3    29  LEU29       0.0001
     16  CD2       39.6130   62.3270   12.8870 C.3    29  LEU29       0.0001
     17  N         41.7470   54.8490   26.9000 N.3    34  PHE34      -0.1241
     18  CA        42.5820   53.8450   26.2230 C.3    34  PHE34       0.1605
     19  C         43.8210   54.4890   25.6130 C.2    34  PHE34       0.2264
     20  O         44.7920   53.7960   25.3200 O.2    34  PHE34      -0.2867
     21  CB        41.8160   53.1030   25.1140 C.3    34  PHE34       0.0534
     22  CG        41.3340   54.0000   24.0020 C.ar   34  PHE34      -0.0203
     23  CD1       42.2010   54.3970   22.9570 C.ar   34  PHE34      -0.0042
     24  CD2       40.0180   54.4700   24.0030 C.ar   34  PHE34      -0.0042
     25  CE1       41.7660   55.2290   21.9480 C.ar   34  PHE34      -0.0003
     26  CE2       39.5630   55.3200   22.9770 C.ar   34  PHE34      -0.0003
     27  CZ        40.4480   55.6990   21.9530 C.ar   34  PHE34      -0.0000
     28  N         43.0840   58.6720   19.2430 N.3    37  VAL37      -0.1245
     29  CA        42.7900   58.3400   17.8490 C.3    37  VAL37       0.1561
     30  C         43.2310   59.5310   16.9710 C.2    37  VAL37       0.2260
     31  O         42.7690   60.6530   17.1570 O.2    37  VAL37      -0.2867
     32  CB        41.2960   58.0540   17.6050 C.3    37  VAL37       0.0252
     33  CG1       41.0820   57.4930   16.1910 C.3    37  VAL37       0.0019
     34  CG2       40.7180   57.0500   18.6560 C.3    37  VAL37       0.0019
     35  N         42.1660   56.1390   10.3150 N.3    51  ALA51      -0.1245
     36  CA        42.0230   56.4830   11.7200 C.3    51  ALA51       0.1562
     37  C         42.8840   55.4700   12.4760 C.2    51  ALA51       0.2260
     38  O         42.6700   54.2700   12.3910 O.2    51  ALA51      -0.2867
     39  CB        40.5560   56.3860   12.1850 C.3    51  ALA51       0.0290
     40  N         44.2060   54.2290   15.9870 N.3    53  LYS53      -0.1245
     41  CA        43.9860   54.1700   17.4090 C.3    53  LYS53       0.1561
     42  C         45.3260   53.8380   18.0830 C.2    53  LYS53       0.2260
     43  O         45.9340   52.7910   17.8120 O.2    53  LYS53      -0.2867
     44  CB        42.9330   53.0830   17.7320 C.3    53  LYS53       0.0271
     45  CG        42.6320   52.8590   19.2040 C.3    53  LYS53       0.0035
     46  CD        41.5840   51.6890   19.3600 C.3    53  LYS53       0.0206
     47  CE        40.9460   51.6890   20.7370 C.3    53  LYS53       0.1093
     48  NZ        40.0760   50.4850   20.9090 N.3    53  LYS53      -0.1314
     49  N         41.5300   42.8030   21.2340 N.3    68  GLU68      -0.1245
     50  CA        40.7370   43.4490   20.1840 C.3    68  GLU68       0.1567
     51  C         41.2460   43.0790   18.7760 C.2    68  GLU68       0.2260
     52  O         40.4640   42.7400   17.8800 O.2    68  GLU68      -0.2867
     53  CB        40.7150   44.9770   20.3860 C.3    68  GLU68       0.0388
     54  CG        39.9480   45.7470   19.2850 C.3    68  GLU68       0.1160
     55  CD        39.9710   47.2670   19.4800 C.2    68  GLU68       0.3649
     56  OE1       40.5120   47.7480   20.5020 O.co2  68  GLU68      -0.2457
     57  OE2       39.4650   47.9950   18.5910 O.co2  68  GLU68      -0.2457
     58  N         33.5200   48.3370   10.9940 N.3    87  VAL87      -0.1245
     59  CA        34.7790   49.0210   10.8100 C.3    87  VAL87       0.1561
     60  C         35.8900   47.9920   11.0530 C.2    87  VAL87       0.2260
     61  O         36.2530   47.6760   12.2100 O.2    87  VAL87      -0.2867
     62  CB        34.9350   50.1960   11.8030 C.3    87  VAL87       0.0252
     63  CG1       36.2390   50.9280   11.5500 C.3    87  VAL87       0.0019
     64  CG2       33.7930   51.1540   11.6400 C.3    87  VAL87       0.0019
     65  N         42.4310   51.8950   11.0490 N.3   103  PHE103     -0.1227
     66  CA        41.1230   51.5990   10.4220 C.3   103  PHE103      0.1736
     67  C         40.9080   52.5340    9.2450 C.2   103  PHE103      0.2595
     68  O         41.3850   53.6910    9.2900 O.2   103  PHE103     -0.2718
     69  CB        39.9590   51.8040   11.4240 C.3   103  PHE103      0.0547
     70  CG        40.0540   50.9750   12.6800 C.ar  103  PHE103     -0.0202
     71  CD1       39.4950   49.6860   12.7350 C.ar  103  PHE103     -0.0042
     72  CD2       40.6970   51.4770   13.8150 C.ar  103  PHE103     -0.0042
     73  CE1       39.5550   48.9130   13.8730 C.ar  103  PHE103     -0.0003
     74  CE2       40.7790   50.7060   14.9850 C.ar  103  PHE103     -0.0003
     75  CZ        40.1890   49.4180   15.0150 C.ar  103  PHE103     -0.0000
     76  N         40.1740   52.0860    8.2190 N.am  104  GLU104     -0.1965
     77  CA        39.7840   53.0090    7.1320 C.3   104  GLU104      0.1733
     78  C         39.0350   54.2100    7.7590 C.2   104  GLU104      0.2616
     79  O         38.2050   54.0200    8.6490 O.2   104  GLU104     -0.2715
     80  CB        38.9010   52.3290    6.0690 C.3   104  GLU104      0.0429
     81  CG        38.6820   53.1890    4.7960 C.3   104  GLU104      0.1163
     82  CD        37.7340   52.5640    3.7340 C.2   104  GLU104      0.3649
     83  OE1       36.8830   51.7120    4.0900 O.co2 104  GLU104     -0.2457
     84  OE2       37.8470   52.9420    2.5310 O.co2 104  GLU104     -0.2457
     85  N         39.3680   55.4270    7.3220 N.am  105  LEU105     -0.1963
     86  CA        38.8300   56.6480    7.9230 C.3   105  LEU105      0.1728
     87  C         37.3890   56.7990    7.5090 C.2   105  LEU105      0.2616
     88  O         37.0680   56.7960    6.3110 O.2   105  LEU105     -0.2715
     89  CB        39.5920   57.9090    7.4670 C.3   105  LEU105      0.0311
     90  CG        39.1380   59.2530    8.0910 C.3   105  LEU105      0.0022
     91  CD1       39.5500   59.3300    9.5790 C.3   105  LEU105      0.0001
     92  CD2       39.7170   60.4670    7.3240 C.3   105  LEU105      0.0001
     93  N         36.5230   56.9510    8.5050 N.am  106  LEU106     -0.1963
     94  CA        35.1110   57.2290    8.2660 C.3   106  LEU106      0.1728
     95  C         34.7890   58.6010    8.8460 C.2   106  LEU106      0.2617
     96  O         35.6830   59.3050    9.3010 O.2   106  LEU106     -0.2715
     97  CB        34.2680   56.1350    8.9470 C.3   106  LEU106      0.0311
     98  CG        34.5490   54.7130    8.4100 C.3   106  LEU106      0.0022
     99  CD1       33.7870   53.7190    9.2140 C.3   106  LEU106      0.0001
    100  CD2       34.1550   54.6210    6.9340 C.3   106  LEU106      0.0001
    101  N         33.5140   58.9760    8.8430 N.am  107  GLY107     -0.1940
    102  CA        33.0790   60.2300    9.4660 C.3   107  GLY107      0.2014
    103  C         32.8570   60.1410   10.9750 C.2   107  GLY107      0.2639
    104  O         33.2450   59.1760   11.6230 O.2   107  GLY107     -0.2714
    105  N         32.2630   61.1920   11.5260 N.am  108  LYS108     -0.1963
    106  CA        31.9640   61.3330   12.9450 C.3   108  LYS108      0.1728
    107  C         31.0620   60.1870   13.4140 C.2   108  LYS108      0.2616
    108  O         30.2520   59.6450   12.6280 O.2   108  LYS108     -0.2715
    109  CB        31.1860   62.6470   13.1520 C.3   108  LYS108      0.0311
    110  CG        31.9910   63.9000   12.9590 C.3   108  LYS108      0.0038
    111  CD        31.1720   65.1420   13.3170 C.3   108  LYS108      0.0206
    112  CE        31.8840   66.4100   12.8570 C.3   108  LYS108      0.1093
    113  NZ        33.0770   66.6050   13.6790 N.3   108  LYS108     -0.1314
    114  N         31.1390   59.8800   14.6990 N.am  109  ASN109     -0.1972
    115  CA        30.2410   58.9040   15.2630 C.3   109  ASN109      0.1688
    116  C         28.8620   59.5380   15.4740 C.2   109  ASN109      0.2292
    117  O         28.7300   60.7700   15.4230 O.2   109  ASN109     -0.2864
    118  CB        30.8310   58.2480   16.5350 C.3   109  ASN109      0.1181
    119  CG        30.9160   59.1970   17.7310 C.2   109  ASN109      0.2629
    120  OD1       29.9280   59.7660   18.1630 O.2   109  ASN109     -0.2716
    121  ND2       32.1030   59.2890   18.3240 N.am  109  ASN109     -0.0877
    122  N         28.6210   62.1720   18.3130 N.3   112  GLU112     -0.1245
    123  CA        29.3200   63.4190   18.0150 C.3   112  GLU112      0.1567
    124  C         28.5180   64.2560   17.0190 C.2   112  GLU112      0.2260
    125  O         28.3910   65.4790   17.1950 O.2   112  GLU112     -0.2867
    126  CB        30.7120   63.1360   17.4440 C.3   112  GLU112      0.0388
    127  CG        31.8150   63.1030   18.4890 C.3   112  GLU112      0.1160
    128  CD        31.9300   64.4170   19.2470 C.2   112  GLU112      0.3649
    129  OE1       32.0960   65.4980   18.6190 O.co2 112  GLU112     -0.2457
    130  OE2       31.8410   64.3460   20.4790 O.co2 112  GLU112     -0.2457
    131  N         28.3510   56.3910   20.2760 N.3   154  GLU154     -0.1231
    132  CA        29.7860   56.6490   20.0640 C.3   154  GLU154      0.1699
    133  C         30.4940   55.5610   19.2780 C.2   154  GLU154      0.2592
    134  O         31.5100   55.8450   18.6370 O.2   154  GLU154     -0.2718
    135  CB        30.5290   56.8510   21.4040 C.3   154  GLU154      0.0402
    136  CG        30.1940   58.1870   22.0670 C.3   154  GLU154      0.1161
    137  CD        30.5750   58.2600   23.5540 C.2   154  GLU154      0.3649
    138  OE1       30.1930   57.3620   24.3470 O.co2 154  GLU154     -0.2457
    139  OE2       31.2220   59.2520   23.9270 O.co2 154  GLU154     -0.2457
    140  N         29.9610   54.3330   19.3110 N.am  155  ASN155     -0.1974
    141  CA        30.5470   53.2110   18.5560 C.3   155  ASN155      0.1688
    142  C         29.8980   52.9580   17.1650 C.2   155  ASN155      0.2292
    143  O         30.1740   51.9300   16.5320 O.2   155  ASN155     -0.2864
    144  CB        30.5640   51.9070   19.4110 C.3   155  ASN155      0.1181
    145  CG        31.5630   51.9660   20.5470 C.2   155  ASN155      0.2629
    146  OD1       32.5050   52.7820   20.5220 O.2   155  ASN155     -0.2716
    147  ND2       31.4220   51.0550   21.5190 N.am  155  ASN155     -0.0877
    148  N         29.5130   54.8000   13.4690 N.3   157  LEU157     -0.1245
    149  CA        30.1060   55.9160   12.6930 C.3   157  LEU157      0.1561
    150  C         29.3490   56.1240   11.3900 C.2   157  LEU157      0.2260
    151  O         28.9780   55.1510   10.7330 O.2   157  LEU157     -0.2867
    152  CB        31.5680   55.6130   12.3380 C.3   157  LEU157      0.0270
    153  CG        32.5400   55.0990   13.4050 C.3   157  LEU157      0.0019
    154  CD1       33.9140   54.9310   12.8300 C.3   157  LEU157      0.0001
    155  CD2       32.5960   56.0550   14.6010 C.3   157  LEU157      0.0001
    156  N         31.5740   50.0290   15.0510 N.3   186  ALA186     -0.1231
    157  CA        32.9680   49.9860   15.4860 C.3   186  ALA186      0.1694
    158  C         33.1550   49.4100   16.9030 C.2   186  ALA186      0.2592
    159  O         32.1940   49.0740   17.5970 O.2   186  ALA186     -0.2718
    160  CB        33.5620   51.3820   15.4300 C.3   186  ALA186      0.0304
    161  N         34.4190   49.3470   17.3080 N.am  187  ASP187     -0.1974
    162  CA        34.8670   49.0190   18.6690 C.3   187  ASP187      0.1709
    163  C         34.5000   47.6300   19.1650 C.2   187  ASP187      0.2293
    164  O         33.6610   47.4640   20.0490 O.2   187  ASP187     -0.2864
    165  CB        34.4160   50.0820   19.6740 C.3   187  ASP187      0.1436
    166  CG        35.3020   50.1220   20.8870 C.2   187  ASP187      0.3671
    167  OD1       36.5210   49.8870   20.7280 O.co2 187  ASP187     -0.2456
    168  OD2       34.7850   50.3850   21.9890 O.co2 187  ASP187     -0.2456
@<TRIPOS>BOND
     1    84    82   ar
     2    82    83   ar
     3    82    81    1
     4    81    80    1
     5    80    77    1
     6    88    87    2
     7   100    98    1
     8    77    78    1
     9    77    76    1
    10    85    78   am
    11    85    86    1
    12    92    90    1
    13    89    86    1
    14    89    90    1
    15    87    86    1
    16    87    93   am
    17    78    79    2
    18    90    91    1
    19    76    67   am
    20    94    93    1
    21    94    95    1
    22    94    97    1
    23    98    97    1
    24    98    99    1
    25   101    95   am
    26   101   102    1
    27    95    96    2
    28    67    68    2
    29    67    66    1
    30   102   103    1
    31    35    36    1
    32    66    65    1
    33    66    69    1
    34   151   150    2
    35    59    58    1
    36    59    60    1
    37    59    62    1
    38   103   105   am
    39   103   104    2
    40    60    61    2
    41   150   149    1
    42    69    70    1
    43   105   106    1
    44    63    62    1
    45    64    62    1
    46    36    39    1
    47    36    37    1
    48   152   149    1
    49   152   153    1
    50    38    37    2
    51   108   107    2
    52    70    71   ar
    53    70    72   ar
    54   149   148    1
    55    71    73   ar
    56   154   153    1
    57   112   111    1
    58   112   113    1
    59    16    14    1
    60   106   109    1
    61   106   107    1
    62   110   109    1
    63   110   111    1
    64    15    14    1
    65   153   155    1
    66   107   114   am
    67    14    13    1
    68    72    74   ar
    69    73    75   ar
    70     1     2    1
    71   114   115    1
    72    74    75   ar
    73   156   157    1
    74     4     3    2
    75    13    10    1
    76   115   116    1
    77   115   118    1
    78   117   116    2
    79   160   157    1
    80   157   158    1
    81     3     2    1
    82     3     9   am
    83     2     5    1
    84    10     9    1
    85    10    11    1
    86    40    41    1
    87    33    32    1
    88   143   142    2
    89   118   119    1
    90   158   161   am
    91   158   159    2
    92     5     6    1
    93    30    31    2
    94    30    29    1
    95   124   125    2
    96   124   123    1
    97   142   141    1
    98     8     6   am
    99    11    12    2
   100   161   162    1
   101     6     7    2
   102    41    44    1
   103    41    42    1
   104   126   123    1
   105   126   127    1
   106    32    29    1
   107    32    34    1
   108   119   120    2
   109   119   121   am
   110    44    45    1
   111    43    42    2
   112    29    28    1
   113    52    51    2
   114   123   122    1
   115   127   128    1
   116   141   140    1
   117   141   144    1
   118    57    55   ar
   119   129   128   ar
   120   134   133    2
   121   162   163    1
   122   162   165    1
   123    51    50    1
   124   163   164    2
   125    45    46    1
   126   128   130   ar
   127   133   140   am
   128   133   132    1
   129    54    55    1
   130    54    53    1
   131    46    47    1
   132   144   145    1
   133    55    56   ar
   134   165   166    1
   135   132   131    1
   136   132   135    1
   137    50    53    1
   138    50    49    1
   139   146   145    2
   140   145   147   am
   141   167   166   ar
   142    47    48    1
   143   166   168   ar
   144   135   136    1
   145    25    27   ar
   146    25    23   ar
   147    27    26   ar
   148   136   137    1
   149    23    22   ar
   150    26    24   ar
   151   137   139   ar
   152   137   138   ar
   153    22    24   ar
   154    22    21    1
   155    21    18    1
   156    20    19    2
   157    19    18    1
   158    18    17    1
