@<TRIPOS>MOLECULE
tmp/2wu7A00.pdb
 160 148 0 0 0
SMALL
GASTEIGER

@<TRIPOS>ATOM
      1  N         39.2740   21.6600   15.7840 N.3    28  LEU28      -0.1231
      2  CA        37.8740   21.2490   15.5530 C.3    28  LEU28       0.1693
      3  C         37.0580   20.9320   16.7990 C.2    28  LEU28       0.2593
      4  O         35.8350   20.9160   16.7290 O.2    28  LEU28      -0.2718
      5  CB        37.8410   20.0360   14.6040 C.3    28  LEU28       0.0284
      6  CG        38.6480   20.1450   13.2900 C.3    28  LEU28       0.0019
      7  CD1       38.7160   18.8040   12.5800 C.3    28  LEU28       0.0001
      8  CD2       38.0620   21.2090   12.3540 C.3    28  LEU28       0.0001
      9  N         37.7200   20.6220   17.9030 N.am   29  GLY29      -0.1942
     10  CA        37.0380   20.2830   19.1430 C.3    29  GLY29       0.2014
     11  C         37.9330   19.7120   20.2160 C.2    29  GLY29       0.2642
     12  O         39.1100   19.4480   19.9810 O.2    29  GLY29      -0.2714
     13  N         37.3640   19.5260   21.4080 N.am   30  GLU30      -0.1917
     14  CA        38.0330   19.0320   22.6040 C.3    30  GLU30       0.1949
     15  C         37.0600   18.2690   23.4790 C.2    30  GLU30       0.2659
     16  O         35.8680   18.5880   23.5480 O.2    30  GLU30      -0.2711
     17  CB        38.5910   20.1960   23.4400 C.2    30  GLU30       0.0111
     18  CG        39.8780   20.8100   22.9190 C.2    30  GLU30       0.0838
     19  CD        40.3700   22.0230   23.6860 C.2    30  GLU30       0.3877
     20  OE1       39.5270   22.8360   24.1370 O.co2  30  GLU30      -0.2406
     21  OE2       41.6070   22.1770   23.8100 O.co2  30  GLU30      -0.2406
     22  N         37.6090   17.2960   24.1820 N.am   31  GLY31      -0.1952
     23  CA        36.9000   16.4790   25.1460 C.3    31  GLY31       0.1869
     24  C         37.8310   16.0870   26.2730 C.2    31  GLY31       0.2309
     25  O         38.9810   16.5540   26.3630 O.2    31  GLY31      -0.2863
     26  N         39.2330   13.2420   26.5370 N.3    33  PHE33      -0.1241
     27  CA        40.2720   12.4420   25.8900 C.3    33  PHE33       0.1605
     28  C         41.4730   13.2430   25.4060 C.2    33  PHE33       0.2264
     29  O         42.5130   12.6530   25.1460 O.2    33  PHE33      -0.2867
     30  CB        39.6920   11.6570   24.6960 C.3    33  PHE33       0.0534
     31  CG        39.0620   12.5000   23.6090 C.ar   33  PHE33      -0.0203
     32  CD1       39.8450   13.1040   22.6280 C.ar   33  PHE33      -0.0042
     33  CD2       37.6840   12.6820   23.5580 C.ar   33  PHE33      -0.0042
     34  CE1       39.2620   13.8850   21.6310 C.ar   33  PHE33      -0.0003
     35  CE2       37.1040   13.4580   22.5600 C.ar   33  PHE33      -0.0003
     36  CZ        37.8930   14.0380   21.5880 C.ar   33  PHE33      -0.0000
     37  N         40.9070   17.3690   19.0270 N.3    36  VAL36      -0.1245
     38  CA        40.7030   16.9650   17.6380 C.3    36  VAL36       0.1561
     39  C         41.1100   18.1760   16.8070 C.2    36  VAL36       0.2260
     40  O         40.6170   19.2770   17.0550 O.2    36  VAL36      -0.2867
     41  CB        39.2770   16.4340   17.3090 C.3    36  VAL36       0.0252
     42  CG1       39.2030   15.9060   15.8790 C.3    36  VAL36       0.0019
     43  CG2       38.8430   15.3440   18.3020 C.3    36  VAL36       0.0019
     44  N         40.8060   14.8770    9.9620 N.3    50  ALA50      -0.1245
     45  CA        40.5770   15.2300   11.3590 C.3    50  ALA50       0.1562
     46  C         41.4960   14.2720   12.1420 C.2    50  ALA50       0.2260
     47  O         41.4180   13.0500   11.9520 O.2    50  ALA50      -0.2867
     48  CB        39.1070   15.0240   11.7590 C.3    50  ALA50       0.0290
     49  N         42.4460   13.0980   15.9170 N.3    52  LYS52      -0.1245
     50  CA        42.0930   12.9880   17.3190 C.3    52  LYS52       0.1561
     51  C         43.4060   12.6640   18.0530 C.2    52  LYS52       0.2260
     52  O         43.9820   11.5790   17.8830 O.2    52  LYS52      -0.2867
     53  CB        41.0550   11.8500   17.5050 C.3    52  LYS52       0.0271
     54  CG        40.5100   11.7010   18.9100 C.3    52  LYS52       0.0035
     55  CD        39.4960   10.5500   18.9410 C.3    52  LYS52       0.0206
     56  CE        38.8960   10.3330   20.2950 C.3    52  LYS52       0.1093
     57  NZ        37.8130    9.3220   20.2410 N.3    52  LYS52      -0.1314
     58  N         39.2120    1.8860   21.1680 N.3    67  GLU67      -0.1245
     59  CA        38.5180    2.4880   20.0250 C.3    67  GLU67       0.1567
     60  C         39.1250    2.0680   18.6540 C.2    67  GLU67       0.2260
     61  O         38.3860    1.6900   17.7390 O.2    67  GLU67      -0.2867
     62  CB        38.4760    4.0140   20.1510 C.3    67  GLU67       0.0388
     63  CG        37.7390    4.6870   19.0000 C.3    67  GLU67       0.1160
     64  CD        37.6110    6.1890   19.1140 C.2    67  GLU67       0.3649
     65  OE1       38.4060    6.7940   19.8700 O.co2  67  GLU67      -0.2457
     66  OE2       36.7170    6.7590   18.4430 O.co2  67  GLU67      -0.2457
     67  N         32.1310    7.1800   11.4510 N.3    86  VAL86      -0.1245
     68  CA        33.3790    7.9150   11.1880 C.3    86  VAL86       0.1561
     69  C         34.3470    6.9380   10.4920 C.2    86  VAL86       0.2260
     70  O         34.4060    5.7660   10.8790 O.2    86  VAL86      -0.2867
     71  CB        34.0320    8.5420   12.4550 C.3    86  VAL86       0.0252
     72  CG1       33.3460    9.8390   12.8510 C.3    86  VAL86       0.0019
     73  CG2       34.0790    7.5690   13.6340 C.3    86  VAL86       0.0019
     74  N         41.0130   10.6090   10.7780 N.3   102  PHE102     -0.1227
     75  CA        39.6960   10.3490   10.2190 C.3   102  PHE102      0.1736
     76  C         39.4650   11.1880    8.9880 C.2   102  PHE102      0.2595
     77  O         40.0800   12.2420    8.8330 O.2   102  PHE102     -0.2718
     78  CB        38.6080   10.7310   11.2410 C.3   102  PHE102      0.0547
     79  CG        38.6060    9.9470   12.5320 C.ar  102  PHE102     -0.0202
     80  CD1       37.9690    8.7110   12.6130 C.ar  102  PHE102     -0.0042
     81  CD2       39.1690   10.4780   13.6880 C.ar  102  PHE102     -0.0042
     82  CE1       37.9170    8.0100   13.8230 C.ar  102  PHE102     -0.0003
     83  CE2       39.1130    9.7790   14.8950 C.ar  102  PHE102     -0.0003
     84  CZ        38.4740    8.5550   14.9580 C.ar  102  PHE102     -0.0000
     85  N         38.4930   10.7840    8.1770 N.am  103  GLU103     -0.1979
     86  CA        38.0480   11.5620    7.0350 C.3   103  GLU103      0.1602
     87  C         37.3380   12.7700    7.6310 C.2   103  GLU103      0.2287
     88  O         36.4680   12.6140    8.5010 O.2   103  GLU103     -0.2864
     89  CB        37.0860   10.7480    6.1610 C.3   103  GLU103      0.0415
     90  CG        36.9150   11.3370    4.7770 C.3   103  GLU103      0.1163
     91  CD        35.6140   11.0000    4.0730 C.2   103  GLU103      0.3649
     92  OE1       34.6200   10.6760    4.7660 O.co2 103  GLU103     -0.2457
     93  OE2       35.5810   11.1010    2.8250 O.co2 103  GLU103     -0.2457
     94  N         34.9660   15.6020    8.6060 N.3   105  LEU105     -0.1231
     95  CA        33.5110   15.8150    8.6360 C.3   105  LEU105      0.1693
     96  C         33.2800   17.2110    9.1990 C.2   105  LEU105      0.2592
     97  O         34.2590   17.8860    9.5420 O.2   105  LEU105     -0.2718
     98  CB        32.8140   14.7500    9.5050 C.3   105  LEU105      0.0284
     99  CG        33.0230   13.2860    9.0600 C.3   105  LEU105      0.0019
    100  CD1       32.6540   12.3380   10.1440 C.3   105  LEU105      0.0001
    101  CD2       32.2470   12.9540    7.8010 C.3   105  LEU105      0.0001
    102  N         32.0160   17.6270    9.2770 N.am  106  GLY106     -0.1957
    103  CA        31.6320   18.9370    9.7880 C.3   106  GLY106      0.1869
    104  C         31.3940   18.9770   11.2850 C.2   106  GLY106      0.2309
    105  O         31.8250   18.0790   12.0150 O.2   106  GLY106     -0.2863
    106  N         29.7610   18.7250   15.0530 N.3   108  ASN108     -0.1240
    107  CA        28.9130   17.7110   15.6830 C.3   108  ASN108      0.1653
    108  C         27.5330   18.3620   15.8750 C.2   108  ASN108      0.2266
    109  O         27.4440   19.6000   15.8580 O.2   108  ASN108     -0.2867
    110  CB        29.4870   17.1480   17.0010 C.3   108  ASN108      0.1155
    111  CG        29.5660   18.0930   18.1540 C.2   108  ASN108      0.2627
    112  OD1       28.5670   18.6090   18.6310 O.2   108  ASN108     -0.2716
    113  ND2       30.7690   18.3060   18.6560 N.am  108  ASN108     -0.0877
    114  N         27.2860   21.1130   18.6700 N.3   111  GLU111     -0.1245
    115  CA        27.9510   22.3640   18.3160 C.3   111  GLU111      0.1567
    116  C         27.1680   23.2070   17.3300 C.2   111  GLU111      0.2260
    117  O         27.2160   24.4350   17.4350 O.2   111  GLU111     -0.2867
    118  CB        29.3810   22.1340   17.8230 C.3   111  GLU111      0.0388
    119  CG        30.3430   21.7490   18.9340 C.3   111  GLU111      0.1160
    120  CD        30.5220   22.7630   20.0470 C.2   111  GLU111      0.3649
    121  OE1       30.5650   23.9780   19.7480 O.co2 111  GLU111     -0.2457
    122  OE2       30.6540   22.3370   21.2170 O.co2 111  GLU111     -0.2457
    123  N         26.7140   15.4060   20.7750 N.3   153  GLU153     -0.1231
    124  CA        28.1420   15.6740   20.6370 C.3   153  GLU153      0.1699
    125  C         28.8590   14.5910   19.8390 C.2   153  GLU153      0.2592
    126  O         29.8850   14.8980   19.2380 O.2   153  GLU153     -0.2718
    127  CB        28.7820   15.7990   22.0200 C.3   153  GLU153      0.0402
    128  CG        30.0660   16.5990   22.0220 C.3   153  GLU153      0.1161
    129  CD        30.3400   17.4210   23.2680 C.2   153  GLU153      0.3649
    130  OE1       29.4670   17.4870   24.1690 O.co2 153  GLU153     -0.2457
    131  OE2       31.4370   18.0220   23.3250 O.co2 153  GLU153     -0.2457
    132  N         28.3430   13.3320   19.8350 N.am  154  ASN154     -0.1974
    133  CA        28.9630   12.2220   19.1070 C.3   154  ASN154      0.1688
    134  C         28.3540   11.9330   17.7150 C.2   154  ASN154      0.2292
    135  O         28.6870   10.9310   17.0740 O.2   154  ASN154     -0.2864
    136  CB        29.0970   10.9720   19.9940 C.3   154  ASN154      0.1181
    137  CG        30.1730   11.1430   21.0440 C.2   154  ASN154      0.2629
    138  OD1       30.9730   12.0750   20.9920 O.2   154  ASN154     -0.2716
    139  ND2       30.1970   10.2890   22.0520 N.am  154  ASN154     -0.0877
    140  N         28.0020   13.6430   13.9030 N.3   156  LEU156     -0.1245
    141  CA        28.5720   14.7230   13.0810 C.3   156  LEU156      0.1561
    142  C         27.8900   14.8720   11.7520 C.2   156  LEU156      0.2260
    143  O         27.5770   13.8780   11.1060 O.2   156  LEU156     -0.2867
    144  CB        30.1010   14.5420   12.8040 C.3   156  LEU156      0.0270
    145  CG        31.0460   14.1050   13.9500 C.3   156  LEU156      0.0019
    146  CD1       32.2770   13.4230   13.4020 C.3   156  LEU156      0.0001
    147  CD2       31.5660   15.2690   14.6850 C.3   156  LEU156      0.0001
    148  N         30.2030    9.0400   15.7100 N.3   185  ALA185     -0.1231
    149  CA        31.5740    9.1600   16.1900 C.3   185  ALA185      0.1694
    150  C         31.7360    8.5040   17.5740 C.2   185  ALA185      0.2592
    151  O         30.7430    8.1300   18.2010 O.2   185  ALA185     -0.2718
    152  CB        31.9480   10.6390   16.2810 C.3   185  ALA185      0.0304
    153  N         33.0100    8.4070   18.0480 N.am  186  ASP186     -0.1974
    154  CA        33.4370    7.9940   19.3820 C.3   186  ASP186      0.1709
    155  C         33.0880    6.5700   19.8360 C.2   186  ASP186      0.2293
    156  O         32.1980    6.3660   20.6540 O.2   186  ASP186     -0.2864
    157  CB        33.0450    9.0750   20.4210 C.3   186  ASP186      0.1436
    158  CG        33.6980    9.0020   21.7900 C.2   186  ASP186      0.3671
    159  OD1       34.7070    8.2750   21.9340 O.co2 186  ASP186     -0.2456
    160  OD2       33.2550    9.7390   22.6910 O.co2 186  ASP186     -0.2456
@<TRIPOS>BOND
     1    93    91   ar
     2    91    92   ar
     3    91    90    1
     4    90    89    1
     5    89    86    1
     6    86    87    1
     7    86    85    1
     8    87    88    2
     9   101    99    1
    10    85    76   am
    11    94    95    1
    12    95    96    1
    13    95    98    1
    14    77    76    2
    15    76    75    1
    16    99    98    1
    17    99   100    1
    18    96   102   am
    19    96    97    2
    20   102   103    1
    21   103   104    1
    22    44    45    1
    23    75    74    1
    24    75    78    1
    25    69    70    2
    26    69    68    1
    27   143   142    2
    28    68    67    1
    29    68    71    1
    30    78    79    1
    31   104   105    2
    32    45    48    1
    33    45    46    1
    34   142   141    1
    35    47    46    2
    36     8     6    1
    37    71    72    1
    38    71    73    1
    39    79    80   ar
    40    79    81   ar
    41     7     6    1
    42    80    82   ar
    43   144   141    1
    44   144   145    1
    45   141   140    1
    46     6     5    1
    47   146   145    1
    48    81    83   ar
    49    82    84   ar
    50   145   147    1
    51     5     2    1
    52    83    84   ar
    53   106   107    1
    54     2     1    1
    55     2     3    1
    56   107   108    1
    57   107   110    1
    58   148   149    1
    59   109   108    2
    60    42    41    1
    61    49    50    1
    62   149   152    1
    63   149   150    1
    64     4     3    2
    65     3     9   am
    66    39    40    2
    67    39    38    1
    68   110   111    1
    69   135   134    2
    70    41    38    1
    71    41    43    1
    72    50    53    1
    73    50    51    1
    74   116   117    2
    75   116   115    1
    76    53    54    1
    77   150   153   am
    78   150   151    2
    79    38    37    1
    80   134   133    1
    81    61    60    2
    82   118   115    1
    83   118   119    1
    84    52    51    2
    85     9    10    1
    86   153   154    1
    87   111   112    2
    88   111   113   am
    89   115   114    1
    90    66    64   ar
    91    60    59    1
    92    54    55    1
    93   119   120    1
    94    55    56    1
    95    63    64    1
    96    63    62    1
    97   133   132    1
    98   133   136    1
    99    64    65   ar
   100    10    11    1
   101   126   125    2
   102   154   155    1
   103   154   157    1
   104   121   120   ar
   105   132   125   am
   106   155   156    2
   107   125   124    1
   108    12    11    2
   109   136   137    1
   110    59    62    1
   111    59    58    1
   112   120   122   ar
   113    11    13   am
   114    57    56    1
   115   157   158    1
   116   124   123    1
   117   124   127    1
   118   138   137    2
   119   137   139   am
   120    13    14    1
   121    36    34   ar
   122    36    35   ar
   123    34    32   ar
   124   158   159   ar
   125   158   160   ar
   126   127   128    1
   127   128   129    1
   128    35    33   ar
   129    14    17    1
   130    14    15    1
   131    32    31   ar
   132    18    17    2
   133    18    19    1
   134   129   131   ar
   135   129   130   ar
   136    15    16    2
   137    15    22   am
   138    33    31   ar
   139    31    30    1
   140    19    21   ar
   141    19    20   ar
   142    22    23    1
   143    30    27    1
   144    23    24    1
   145    29    28    2
   146    28    27    1
   147    27    26    1
   148    24    25    2
