@<TRIPOS>MOLECULE
tmp/2wueB00.pdb
 165 157 0 0 0
SMALL
GASTEIGER

@<TRIPOS>ATOM
      1  N         12.1040  -41.9940   16.8080 N.3    38  GLY38      -0.1210
      2  CA        11.8720  -41.7900   15.3910 C.3    38  GLY38       0.1956
      3  C         12.6110  -40.6010   14.8030 C.2    38  GLY38       0.2612
      4  O         13.2670  -39.8630   15.5230 O.2    38  GLY38      -0.2717
      5  N         12.5050  -40.4110   13.4910 N.am   39  GLY39      -0.1942
      6  CA        13.2690  -39.3790   12.8170 C.3    39  GLY39       0.2014
      7  C         12.6180  -38.1690   12.1700 C.2    39  GLY39       0.2639
      8  O         13.1580  -37.6410   11.2040 O.2    39  GLY39      -0.2714
      9  N         11.4840  -37.7050   12.6790 N.am   40  GLY40      -0.1954
     10  CA        10.9180  -36.4710   12.1660 C.3    40  GLY40       0.1869
     11  C         11.7490  -35.3030   12.6610 C.2    40  GLY40       0.2309
     12  O         12.4280  -35.4120   13.6780 O.2    40  GLY40      -0.2863
     13  N         12.2540  -34.1260   16.5300 N.3    43  ALA43      -0.1245
     14  CA        12.0730  -35.3000   17.3800 C.3    43  ALA43       0.1562
     15  C         13.2940  -35.6500   18.2240 C.2    43  ALA43       0.2260
     16  O         14.4280  -35.3800   17.8470 O.2    43  ALA43      -0.2867
     17  CB        11.6730  -36.4940   16.5520 C.3    43  ALA43       0.0290
     18  N          9.5160  -38.3040   22.0070 N.3    48  ASN48      -0.1240
     19  CA         9.0930  -39.5130   21.3280 C.3    48  ASN48       0.1653
     20  C          8.5510  -40.5500   22.3000 C.2    48  ASN48       0.2266
     21  O          7.5970  -41.2460   21.9930 O.2    48  ASN48      -0.2867
     22  CB        10.2760  -40.1160   20.5880 C.3    48  ASN48       0.1155
     23  CG         9.9080  -40.6430   19.2250 C.2    48  ASN48       0.2627
     24  OD1        9.9640  -41.8380   18.9820 O.2    48  ASN48      -0.2716
     25  ND2        9.5470  -39.7460   18.3230 N.am   48  ASN48      -0.0877
     26  N         11.4490  -47.1190   17.0960 N.3   107  ASN107     -0.1225
     27  CA        10.4090  -46.7430   16.1670 C.3   107  ASN107      0.1785
     28  C         10.9450  -45.9840   14.9600 C.2   107  ASN107      0.2597
     29  O         11.8550  -45.1860   15.0730 O.2   107  ASN107     -0.2718
     30  CB         9.3020  -45.9560   16.8780 C.3   107  ASN107      0.1169
     31  CG         9.6840  -44.5320   17.1610 C.2   107  ASN107      0.2627
     32  OD1       10.7220  -44.2670   17.7510 O.2   107  ASN107     -0.2716
     33  ND2        8.8350  -43.6000   16.7560 N.am  107  ASN107     -0.0877
     34  N         10.3700  -46.2600   13.8010 N.am  108  ALA108     -0.1966
     35  CA        10.7280  -45.5810   12.5520 C.3   108  ALA108      0.1728
     36  C         12.2400  -45.6080   12.3060 C.2   108  ALA108      0.2616
     37  O         12.8620  -46.6700   12.3170 O.2   108  ALA108     -0.2715
     38  CB        10.2150  -44.1400   12.5680 C.3   108  ALA108      0.0334
     39  N         12.8350  -44.4320   12.0910 N.am  109  LEU109     -0.1977
     40  CA        14.2770  -44.3570   11.8790 C.3   109  LEU109      0.1596
     41  C         15.0380  -45.0980   12.9830 C.2   109  LEU109      0.2287
     42  O         16.0350  -45.7660   12.7160 O.2   109  LEU109     -0.2864
     43  CB        14.7410  -42.8910   11.7870 C.3   109  LEU109      0.0297
     44  CG        16.1990  -42.6800   11.3660 C.3   109  LEU109      0.0022
     45  CD1       16.4540  -43.2200    9.9600 C.3   109  LEU109      0.0001
     46  CD2       16.5500  -41.1880   11.4360 C.3   109  LEU109      0.0001
     47  N          4.1640  -39.6990    3.7000 N.3   148  GLY148     -0.1210
     48  CA         4.9560  -39.2600    4.8260 C.3   148  GLY148      0.1956
     49  C          6.4140  -38.8780    4.5580 C.2   148  GLY148      0.2611
     50  O          6.9290  -37.9270    5.1150 O.2   148  GLY148     -0.2717
     51  N          7.0540  -39.6200    3.6670 N.am  149  VAL149     -0.1979
     52  CA         8.4130  -39.3100    3.2780 C.3   149  VAL149      0.1595
     53  C          8.4270  -38.0430    2.4250 C.2   149  VAL149      0.2287
     54  O          9.3090  -37.2110    2.5630 O.2   149  VAL149     -0.2864
     55  CB         9.0700  -40.4810    2.5300 C.3   149  VAL149      0.0276
     56  CG1       10.3900  -40.0650    1.9480 C.3   149  VAL149      0.0022
     57  CG2        9.2470  -41.6610    3.4570 C.3   149  VAL149      0.0022
     58  N          8.0920  -35.0080    4.5870 N.3   152  LEU152     -0.1245
     59  CA         9.3210  -34.7710    5.3130 C.3   152  LEU152      0.1561
     60  C         10.3110  -34.0620    4.3950 C.2   152  LEU152      0.2260
     61  O         10.8710  -33.0290    4.7410 O.2   152  LEU152     -0.2867
     62  CB         9.9090  -36.0860    5.8150 C.3   152  LEU152      0.0270
     63  CG        10.9670  -35.9660    6.9130 C.3   152  LEU152      0.0019
     64  CD1       11.1390  -37.2530    7.6840 C.3   152  LEU152      0.0001
     65  CD2       12.2790  -35.5300    6.3280 C.3   152  LEU152      0.0001
     66  N          3.2770  -32.3580    7.6250 N.3   167  PHE167     -0.1227
     67  CA         4.0450  -33.5570    7.9400 C.3   167  PHE167      0.1736
     68  C          3.5110  -34.2610    9.1860 C.2   167  PHE167      0.2595
     69  O          3.2610  -35.4710    9.1700 O.2   167  PHE167     -0.2718
     70  CB         5.5280  -33.1950    8.1220 C.3   167  PHE167      0.0547
     71  CG         6.3480  -34.2990    8.7390 C.ar  167  PHE167     -0.0202
     72  CD1        6.7090  -35.4150    7.9950 C.ar  167  PHE167     -0.0042
     73  CD2        6.7370  -34.2290   10.0620 C.ar  167  PHE167     -0.0042
     74  CE1        7.4520  -36.4420    8.5600 C.ar  167  PHE167     -0.0003
     75  CE2        7.4770  -35.2450   10.6370 C.ar  167  PHE167     -0.0003
     76  CZ         7.8380  -36.3620    9.8800 C.ar  167  PHE167     -0.0000
     77  N          3.3150  -33.5030   10.2590 N.am  168  LEU168     -0.1980
     78  CA         2.8470  -34.0640   11.5120 C.3   168  LEU168      0.1596
     79  C          1.4800  -34.7340   11.3500 C.2   168  LEU168      0.2287
     80  O          1.1990  -35.7360   11.9960 O.2   168  LEU168     -0.2864
     81  CB         2.7940  -32.9860   12.6030 C.3   168  LEU168      0.0297
     82  CG         4.1570  -32.4770   13.1010 C.3   168  LEU168      0.0022
     83  CD1        3.9980  -31.2330   13.9570 C.3   168  LEU168      0.0001
     84  CD2        4.9160  -33.5420   13.8750 C.3   168  LEU168      0.0001
     85  N          1.4170  -38.3040   10.5480 N.3   171  MET171     -0.1245
     86  CA         2.0470  -39.1850   11.5440 C.3   171  MET171      0.1570
     87  C          1.0290  -39.9410   12.4010 C.2   171  MET171      0.2261
     88  O          1.3910  -40.8670   13.1060 O.2   171  MET171     -0.2867
     89  CB         2.9310  -38.4040   12.5240 C.3   171  MET171      0.0387
     90  CG         4.0940  -37.6210   11.9430 C.3   171  MET171      0.0595
     91  SD         5.3130  -38.6780   11.1770 S.3   171  MET171     -0.1393
     92  CE         4.8760  -38.4060    9.4560 C.3   171  MET171      0.0692
     93  N          7.5420  -28.2470   18.0410 N.3   186  ARG186     -0.1245
     94  CA         8.3530  -28.9880   17.1360 C.3   186  ARG186      0.1563
     95  C          8.9810  -28.0650   16.1020 C.2   186  ARG186      0.2260
     96  O         10.0950  -28.2950   15.7610 O.2   186  ARG186     -0.2867
     97  CB         7.5660  -30.1000   16.4170 C.3   186  ARG186      0.0307
     98  CG         7.1170  -31.2090   17.2680 C.3   186  ARG186      0.0489
     99  CD         8.2400  -32.1320   17.5960 C.3   186  ARG186      0.2205
    100  NE         7.7660  -33.4410   18.0230 N.pl3 186  ARG186     -0.0865
    101  CZ         7.2580  -33.7130   19.2200 C.cat 186  ARG186      0.5346
    102  NH1        7.1810  -32.7750   20.1330 N.pl3 186  ARG186      0.1354
    103  NH2        6.8430  -34.9280   19.5030 N.pl3 186  ARG186      0.1354
    104  N         21.0680  -36.6840    7.0140 N.3   202  MET202     -0.1230
    105  CA        20.4230  -37.9700    7.2590 C.3   202  MET202      0.1702
    106  C         19.8000  -38.5230    5.9850 C.2   202  MET202      0.2592
    107  O         20.0930  -39.6380    5.5750 O.2   202  MET202     -0.2718
    108  CB        19.3680  -37.8540    8.3630 C.3   202  MET202      0.0401
    109  CG        18.7150  -39.1650    8.7380 C.3   202  MET202      0.0596
    110  SD        17.2860  -39.5270    7.7160 S.3   202  MET202     -0.1393
    111  CE        16.1950  -38.1940    8.1730 C.3   202  MET202      0.0692
    112  N         18.9460  -37.7330    5.3560 N.am  203  GLY203     -0.1957
    113  CA        18.2760  -38.1660    4.1460 C.3   203  GLY203      0.1869
    114  C         19.2250  -38.5230    3.0210 C.2   203  GLY203      0.2309
    115  O         19.1300  -39.5930    2.4240 O.2   203  GLY203     -0.2863
    116  N         21.1210  -41.8140    2.8140 N.3   206  PHE206     -0.1241
    117  CA        20.4280  -43.0410    2.4570 C.3   206  PHE206      0.1605
    118  C         20.7010  -43.3870    1.0060 C.2   206  PHE206      0.2264
    119  O         20.3530  -44.4650    0.5410 O.2   206  PHE206     -0.2867
    120  CB        18.9320  -42.9190    2.7020 C.3   206  PHE206      0.0534
    121  CG        18.5080  -43.3620    4.0660 C.ar  206  PHE206     -0.0203
    122  CD1       17.9720  -44.6210    4.2650 C.ar  206  PHE206     -0.0042
    123  CD2       18.6380  -42.5190    5.1500 C.ar  206  PHE206     -0.0042
    124  CE1       17.5760  -45.0160    5.5120 C.ar  206  PHE206     -0.0003
    125  CE2       18.2450  -42.9190    6.4010 C.ar  206  PHE206     -0.0003
    126  CZ        17.7170  -44.1670    6.5800 C.ar  206  PHE206     -0.0000
    127  N          3.6890  -43.3150    6.7740 N.3   237  VAL237     -0.1231
    128  CA         5.1180  -43.0920    6.5310 C.3   237  VAL237      0.1692
    129  C          5.8500  -44.3570    6.0840 C.2   237  VAL237      0.2592
    130  O          6.5010  -44.3810    5.0300 O.2   237  VAL237     -0.2718
    131  CB         5.8290  -42.5790    7.8090 C.3   237  VAL237      0.0266
    132  CG1        7.3450  -42.4430    7.5800 C.3   237  VAL237      0.0020
    133  CG2        5.2400  -41.2460    8.2520 C.3   237  VAL237      0.0020
    134  N          5.7390  -45.3950    6.9140 N.am  238  ASN238     -0.1974
    135  CA         6.2080  -46.7420    6.6080 C.3   238  ASN238      0.1688
    136  C          4.9470  -47.6350    6.6840 C.2   238  ASN238      0.2292
    137  O          4.6080  -48.1340    7.7440 O.2   238  ASN238     -0.2864
    138  CB         7.2610  -47.1940    7.6310 C.3   238  ASN238      0.1181
    139  CG         8.5570  -46.3830    7.5440 C.2   238  ASN238      0.2629
    140  OD1        9.2560  -46.2290    8.5380 O.2   238  ASN238     -0.2716
    141  ND2        8.8710  -45.8600    6.3550 N.am  238  ASN238     -0.0877
    142  N          1.4690  -43.8600   12.4210 N.3   263  HIS263     -0.1226
    143  CA         2.9170  -44.0720   12.5430 C.3   263  HIS263      0.1752
    144  C          3.4800  -43.9230   13.9700 C.2   263  HIS263      0.2596
    145  O          4.5120  -44.5240   14.2920 O.2   263  HIS263     -0.2718
    146  CB         3.6290  -43.1620   11.5200 C.3   263  HIS263      0.0759
    147  CG         5.1200  -43.3340   11.4400 C.ar  263  HIS263      0.0818
    148  ND1        5.7220  -44.5030   11.0360 N.ar  263  HIS263     -0.2268
    149  CD2        6.1220  -42.4450   11.6520 C.ar  263  HIS263      0.1154
    150  CE1        7.0370  -44.3440   11.0440 C.ar  263  HIS263      0.1986
    151  NE2        7.3040  -43.1010   11.4020 N.ar  263  HIS263     -0.2212
    152  N          2.7970  -43.1620   14.8250 N.am  264  TRP264     -0.1976
    153  CA         3.2110  -43.0010   16.2250 C.3   264  TRP264      0.1640
    154  C          2.5300  -43.9980   17.1510 C.2   264  TRP264      0.2290
    155  O          1.7400  -43.6200   18.0190 O.2   264  TRP264     -0.2864
    156  CB         2.9000  -41.6030   16.7380 C.3   264  TRP264      0.0576
    157  CG         3.7810  -40.5570   16.1870 C.ar  264  TRP264      0.0006
    158  CD1        4.8850  -40.7300   15.4090 C.ar  264  TRP264      0.0946
    159  CD2        3.6510  -39.1590   16.4030 C.ar  264  TRP264      0.0152
    160  NE1        5.4470  -39.5040   15.1070 N.ar  264  TRP264     -0.2442
    161  CE2        4.7050  -38.5240   15.7150 C.ar  264  TRP264      0.0810
    162  CE3        2.7400  -38.3770   17.1100 C.ar  264  TRP264      0.0012
    163  CZ2        4.8710  -37.1470   15.7060 C.ar  264  TRP264      0.0191
    164  CZ3        2.9130  -36.9910   17.1030 C.ar  264  TRP264      0.0001
    165  CH2        3.9660  -36.4020   16.4030 C.ar  264  TRP264      0.0015
@<TRIPOS>BOND
     1   119   118    2
     2   118   117    1
     3    56    55    1
     4   115   114    2
     5    53    54    2
     6    53    52    1
     7   117   120    1
     8   117   116    1
     9    55    52    1
    10    55    57    1
    11   120   121    1
    12   114   113    1
    13    52    51    1
    14    51    49   am
    15    47    48    1
    16   121   122   ar
    17   121   123   ar
    18   113   112    1
    19   122   124   ar
    20    60    61    2
    21    60    59    1
    22    49    48    1
    23    49    50    2
    24    58    59    1
    25   130   129    2
    26   123   125   ar
    27    59    62    1
    28   112   106   am
    29   124   126   ar
    30   107   106    2
    31    62    63    1
    32   106   105    1
    33   129   128    1
    34   129   134   am
    35    65    63    1
    36   141   139   am
    37   125   126   ar
    38   128   127    1
    39   128   131    1
    40   135   136    1
    41   135   134    1
    42   135   138    1
    43   136   137    2
    44    63    64    1
    45   104   105    1
    46   105   108    1
    47   139   138    1
    48   139   140    2
    49   132   131    1
    50    66    67    1
    51   110   111    1
    52   110   109    1
    53   131   133    1
    54    67    70    1
    55    67    68    1
    56    72    74   ar
    57    72    71   ar
    58    70    71    1
    59   108   109    1
    60    74    76   ar
    61    71    73   ar
    62    69    68    2
    63    68    77   am
    64    92    91    1
    65    76    75   ar
    66    45    44    1
    67    73    75   ar
    68    77    78    1
    69    85    86    1
    70   148   150   ar
    71   148   147   ar
    72   150   151   ar
    73    91    90    1
    74     8     7    2
    75    79    78    1
    76    79    80    2
    77    44    46    1
    78    44    43    1
    79   151   149   ar
    80   147   146    1
    81   147   149   ar
    82    78    81    1
    83   146   143    1
    84    86    87    1
    85    86    89    1
    86    43    40    1
    87    40    39    1
    88    40    41    1
    89    90    89    1
    90    39    36   am
    91    10    11    1
    92    10     9    1
    93     7     9   am
    94     7     6    1
    95    36    37    2
    96    36    35    1
    97    87    88    2
    98   142   143    1
    99   143   144    1
   100    35    38    1
   101    35    34    1
   102    81    82    1
   103    11    12    2
   104    42    41    2
   105     6     5    1
   106    82    84    1
   107    82    83    1
   108     5     3   am
   109    34    28   am
   110   144   145    2
   111   144   152   am
   112     3     2    1
   113     3     4    2
   114   152   153    1
   115    28    29    2
   116    28    27    1
   117   160   158   ar
   118   160   161   ar
   119     2     1    1
   120   158   157   ar
   121   163   161   ar
   122   163   165   ar
   123   161   159   ar
   124    96    95    2
   125    95    94    1
   126    27    30    1
   127    27    26    1
   128   157   159   ar
   129   157   156    1
   130   153   156    1
   131   153   154    1
   132   165   164   ar
   133   159   162   ar
   134    97    94    1
   135    97    98    1
   136    13    14    1
   137    17    14    1
   138    33    31   am
   139    30    31    1
   140   164   162   ar
   141    94    93    1
   142   154   155    2
   143    31    32    2
   144    98    99    1
   145    14    15    1
   146    99   100    1
   147    16    15    2
   148   100   101    2
   149    25    23   am
   150    24    23    2
   151   101   103    1
   152   101   102    1
   153    23    22    1
   154    22    19    1
   155    19    18    1
   156    19    20    1
   157    21    20    2
