@<TRIPOS>MOLECULE
tmp/2wufB00.pdb
 178 171 0 0 0
SMALL
GASTEIGER

@<TRIPOS>ATOM
      1  N         12.0760  -41.9610   16.8590 N.3    38  GLY38      -0.1210
      2  CA        11.8230  -41.7800   15.4440 C.3    38  GLY38       0.1956
      3  C         12.4910  -40.5310   14.8800 C.2    38  GLY38       0.2612
      4  O         13.0540  -39.7610   15.6290 O.2    38  GLY38      -0.2717
      5  N         12.4120  -40.3320   13.5670 N.am   39  GLY39      -0.1942
      6  CA        13.2670  -39.3790   12.8900 C.3    39  GLY39       0.2014
      7  C         12.6570  -38.1190   12.2450 C.2    39  GLY39       0.2639
      8  O         13.2740  -37.5400   11.3350 O.2    39  GLY39      -0.2714
      9  N         11.4890  -37.7150   12.6790 N.am   40  GLY40      -0.1940
     10  CA        10.9040  -36.4700   12.1560 C.3    40  GLY40       0.1998
     11  C         11.7520  -35.3030   12.6620 C.2    40  GLY40       0.2480
     12  O         12.4370  -35.4190   13.6760 O.2    40  GLY40      -0.2729
     13  N         11.7080  -34.1730   11.9370 N.am   41  PRO41      -0.2726
     14  CA        12.4400  -32.9960   12.4110 C.3    41  PRO41       0.1402
     15  C         11.8970  -32.5350   13.7550 C.2    41  PRO41       0.2269
     16  O         10.6850  -32.4430   13.9370 O.2    41  PRO41      -0.2865
     17  CB        12.1260  -31.9450   11.3430 C.3    41  PRO41       0.0296
     18  CG        11.7680  -32.7180   10.1380 C.3    41  PRO41       0.0237
     19  CD        11.0740  -33.9550   10.6350 C.3    41  PRO41       0.0939
     20  N         12.1940  -34.1210   16.5120 N.3    43  ALA43      -0.1245
     21  CA        12.0000  -35.2700   17.3980 C.3    43  ALA43       0.1562
     22  C         13.2040  -35.5170   18.2900 C.2    43  ALA43       0.2260
     23  O         14.3350  -35.1620   17.9370 O.2    43  ALA43      -0.2867
     24  CB        11.6970  -36.5400   16.5510 C.3    43  ALA43       0.0290
     25  N          9.4080  -38.1020   22.2140 N.3    48  ASN48      -0.1240
     26  CA         8.9850  -39.3320   21.5190 C.3    48  ASN48       0.1653
     27  C          8.4610  -40.3820   22.5000 C.2    48  ASN48       0.2266
     28  O          7.5260  -41.1010   22.1870 O.2    48  ASN48      -0.2867
     29  CB        10.1640  -39.8700   20.7530 C.3    48  ASN48       0.1155
     30  CG         9.7650  -40.5500   19.4780 C.2    48  ASN48       0.2627
     31  OD1        9.9060  -41.7400   19.3500 O.2    48  ASN48      -0.2716
     32  ND2        9.2980  -39.7760   18.5210 N.am   48  ASN48      -0.0877
     33  N         11.4850  -46.9970   17.1620 N.3   107  ASN107     -0.1225
     34  CA        10.4580  -46.6890   16.1800 C.3   107  ASN107      0.1785
     35  C         10.8870  -45.9110   14.9780 C.2   107  ASN107      0.2597
     36  O         11.7210  -44.9660   15.0990 O.2   107  ASN107     -0.2718
     37  CB         9.2610  -45.9640   16.8280 C.3   107  ASN107      0.1169
     38  CG         9.5990  -44.5720   17.2770 C.2   107  ASN107      0.2627
     39  OD1       10.7110  -44.2980   17.7120 O.2   107  ASN107     -0.2716
     40  ND2        8.6250  -43.6640   17.1810 N.am  107  ASN107     -0.0877
     41  N         10.4070  -46.2950   13.7990 N.am  108  ALA108     -0.1966
     42  CA        10.7270  -45.5830   12.5420 C.3   108  ALA108      0.1728
     43  C         12.2330  -45.6170   12.2910 C.2   108  ALA108      0.2616
     44  O         12.8580  -46.6710   12.2800 O.2   108  ALA108     -0.2715
     45  CB        10.2110  -44.1410   12.5700 C.3   108  ALA108      0.0334
     46  N         12.8360  -44.4240   12.0900 N.am  109  LEU109     -0.1977
     47  CA        14.2810  -44.3740   11.8710 C.3   109  LEU109      0.1596
     48  C         15.0380  -45.0940   12.9890 C.2   109  LEU109      0.2287
     49  O         16.0300  -45.7620   12.7160 O.2   109  LEU109     -0.2864
     50  CB        14.7430  -42.8800   11.7870 C.3   109  LEU109      0.0297
     51  CG        16.2050  -42.6890   11.3690 C.3   109  LEU109      0.0022
     52  CD1       16.4600  -43.2180    9.9610 C.3   109  LEU109      0.0001
     53  CD2       16.5530  -41.1860   11.4370 C.3   109  LEU109      0.0001
     54  N          4.1520  -39.7030    3.7060 N.3   148  GLY148     -0.1210
     55  CA         4.9470  -39.2610    4.8330 C.3   148  GLY148      0.1956
     56  C          6.4150  -38.8810    4.5570 C.2   148  GLY148      0.2611
     57  O          6.9350  -37.9250    5.1160 O.2   148  GLY148     -0.2717
     58  N          7.0690  -39.6360    3.7240 N.am  149  VAL149     -0.1979
     59  CA         8.4530  -39.3260    3.3400 C.3   149  VAL149      0.1595
     60  C          8.4620  -38.0590    2.4620 C.2   149  VAL149      0.2287
     61  O          9.3410  -37.1890    2.6350 O.2   149  VAL149     -0.2864
     62  CB         9.1310  -40.5120    2.5950 C.3   149  VAL149      0.0276
     63  CG1       10.4520  -40.0750    1.9640 C.3   149  VAL149      0.0022
     64  CG2        9.3970  -41.6420    3.5810 C.3   149  VAL149      0.0022
     65  N          8.1790  -34.8890    4.6210 N.3   152  LEU152     -0.1231
     66  CA         9.4170  -34.5970    5.3300 C.3   152  LEU152      0.1693
     67  C         10.3870  -33.8830    4.3950 C.2   152  LEU152      0.2592
     68  O         10.9760  -32.8630    4.7590 O.2   152  LEU152     -0.2718
     69  CB        10.0470  -35.8850    5.8700 C.3   152  LEU152      0.0284
     70  CG        11.3200  -35.7290    6.7110 C.3   152  LEU152      0.0019
     71  CD1       11.2160  -34.5320    7.6340 C.3   152  LEU152      0.0001
     72  CD2       11.6040  -36.9690    7.5100 C.3   152  LEU152      0.0001
     73  N         10.5480  -34.4120    3.1980 N.am  153  SER153     -0.1952
     74  CA        11.4100  -33.8120    2.1940 C.3   153  SER153      0.1924
     75  C         10.9390  -32.4040    1.8290 C.2   153  SER153      0.2314
     76  O         11.7530  -31.5270    1.5960 O.2   153  SER153     -0.2863
     77  CB        11.4780  -34.6790    0.9350 C.3   153  SER153      0.2116
     78  OG        12.0240  -35.9500    1.2270 O.3   153  SER153     -0.2180
     79  N          3.2880  -32.3540    7.6220 N.3   167  PHE167     -0.1227
     80  CA         4.0490  -33.5640    7.9420 C.3   167  PHE167      0.1736
     81  C          3.5200  -34.2560    9.1840 C.2   167  PHE167      0.2595
     82  O          3.2680  -35.4850    9.1710 O.2   167  PHE167     -0.2718
     83  CB         5.5300  -33.2010    8.1210 C.3   167  PHE167      0.0547
     84  CG         6.3510  -34.2960    8.7370 C.ar  167  PHE167     -0.0202
     85  CD1        6.7120  -35.4140    7.9930 C.ar  167  PHE167     -0.0042
     86  CD2        6.7350  -34.2280   10.0640 C.ar  167  PHE167     -0.0042
     87  CE1        7.4510  -36.4440    8.5610 C.ar  167  PHE167     -0.0003
     88  CE2        7.4720  -35.2460   10.6390 C.ar  167  PHE167     -0.0003
     89  CZ         7.8360  -36.3670    9.8800 C.ar  167  PHE167     -0.0000
     90  N          3.3090  -33.5020   10.2600 N.am  168  LEU168     -0.1980
     91  CA         2.8440  -34.0760   11.5090 C.3   168  LEU168      0.1596
     92  C          1.4810  -34.7320   11.3480 C.2   168  LEU168      0.2287
     93  O          1.1950  -35.7320   12.0010 O.2   168  LEU168     -0.2864
     94  CB         2.7900  -32.9840   12.6060 C.3   168  LEU168      0.0297
     95  CG         4.1600  -32.4880   13.0990 C.3   168  LEU168      0.0022
     96  CD1        4.0000  -31.2330   13.9600 C.3   168  LEU168      0.0001
     97  CD2        4.9160  -33.5490   13.8720 C.3   168  LEU168      0.0001
     98  N          1.4040  -38.3010   10.5460 N.3   171  MET171     -0.1245
     99  CA         2.0430  -39.1890   11.5440 C.3   171  MET171      0.1570
    100  C          1.0250  -39.9430   12.3990 C.2   171  MET171      0.2261
    101  O          1.3860  -40.8640   13.1050 O.2   171  MET171     -0.2867
    102  CB         2.9320  -38.4080   12.5290 C.3   171  MET171      0.0387
    103  CG         4.0970  -37.6220   11.9400 C.3   171  MET171      0.0595
    104  SD         5.2960  -38.6750   11.1940 S.3   171  MET171     -0.1393
    105  CE         4.8730  -38.4090    9.4570 C.3   171  MET171      0.0692
    106  N          7.5210  -28.2280   18.1030 N.3   186  ARG186     -0.1245
    107  CA         8.3310  -28.9430   17.1520 C.3   186  ARG186      0.1563
    108  C          8.9880  -28.0320   16.1070 C.2   186  ARG186      0.2260
    109  O         10.0900  -28.2580   15.7300 O.2   186  ARG186     -0.2867
    110  CB         7.5710  -30.0580   16.4450 C.3   186  ARG186      0.0307
    111  CG         7.1280  -31.1680   17.3090 C.3   186  ARG186      0.0489
    112  CD         8.2280  -32.1600   17.5280 C.3   186  ARG186      0.2205
    113  NE         7.7120  -33.4580   17.9370 N.pl3 186  ARG186     -0.0865
    114  CZ         7.2180  -33.6950   19.1370 C.cat 186  ARG186      0.5346
    115  NH1        7.2130  -32.7330   20.0400 N.pl3 186  ARG186      0.1354
    116  NH2        6.7580  -34.8780   19.4440 N.pl3 186  ARG186      0.1354
    117  N         21.0620  -36.7800    6.9650 N.3   202  MET202     -0.1230
    118  CA        20.3930  -38.0670    7.2150 C.3   202  MET202      0.1702
    119  C         19.7670  -38.5670    5.9310 C.2   202  MET202      0.2592
    120  O         19.9060  -39.7250    5.5660 O.2   202  MET202     -0.2718
    121  CB        19.3560  -37.9120    8.3190 C.3   202  MET202      0.0401
    122  CG        18.6410  -39.1910    8.7060 C.3   202  MET202      0.0596
    123  SD        17.2380  -39.5490    7.6130 S.3   202  MET202     -0.1393
    124  CE        16.0400  -38.4730    8.3180 C.3   202  MET202      0.0692
    125  N         19.0810  -37.6800    5.2300 N.am  203  GLY203     -0.1957
    126  CA        18.4230  -38.0460    4.0120 C.3   203  GLY203      0.1869
    127  C         19.3180  -38.3890    2.8620 C.2   203  GLY203      0.2309
    128  O         19.1130  -39.3710    2.1920 O.2   203  GLY203     -0.2863
    129  N         21.3780  -41.9090    2.6390 N.3   206  PHE206     -0.1241
    130  CA        20.6480  -43.0660    2.1410 C.3   206  PHE206      0.1605
    131  C         20.9320  -43.3140    0.6660 C.2   206  PHE206      0.2264
    132  O         20.6310  -44.3920    0.1430 O.2   206  PHE206     -0.2867
    133  CB        19.1390  -42.9140    2.3830 C.3   206  PHE206      0.0534
    134  CG        18.6730  -43.4370    3.7160 C.ar  206  PHE206     -0.0203
    135  CD1       18.3220  -44.7710    3.8610 C.ar  206  PHE206     -0.0042
    136  CD2       18.5670  -42.6010    4.8200 C.ar  206  PHE206     -0.0042
    137  CE1       17.8850  -45.2650    5.0780 C.ar  206  PHE206     -0.0003
    138  CE2       18.1380  -43.0950    6.0460 C.ar  206  PHE206     -0.0003
    139  CZ        17.7900  -44.4270    6.1680 C.ar  206  PHE206     -0.0000
    140  N          3.6680  -43.2810    6.7850 N.3   237  VAL237     -0.1231
    141  CA         5.1180  -43.0920    6.5240 C.3   237  VAL237      0.1692
    142  C          5.8280  -44.3440    6.0720 C.2   237  VAL237      0.2592
    143  O          6.4630  -44.3660    5.0090 O.2   237  VAL237     -0.2718
    144  CB         5.8210  -42.5710    7.8110 C.3   237  VAL237      0.0266
    145  CG1        7.3500  -42.4470    7.5810 C.3   237  VAL237      0.0020
    146  CG2        5.2410  -41.2500    8.2510 C.3   237  VAL237      0.0020
    147  N          5.7360  -45.3980    6.9200 N.am  238  ASN238     -0.1974
    148  CA         6.2270  -46.7320    6.5990 C.3   238  ASN238      0.1688
    149  C          4.9260  -47.6460    6.6890 C.2   238  ASN238      0.2292
    150  O          4.6000  -48.1310    7.7340 O.2   238  ASN238     -0.2864
    151  CB         7.2530  -47.1900    7.6330 C.3   238  ASN238      0.1181
    152  CG         8.5610  -46.3740    7.5410 C.2   238  ASN238      0.2629
    153  OD1        8.8930  -45.8860    6.4890 O.2   238  ASN238     -0.2716
    154  ND2        9.2750  -46.2570    8.6670 N.am  238  ASN238     -0.0877
    155  N          1.4820  -43.8580   12.4160 N.3   263  HIS263     -0.1226
    156  CA         2.9060  -44.0790   12.5460 C.3   263  HIS263      0.1752
    157  C          3.4770  -43.9320   13.9710 C.2   263  HIS263      0.2596
    158  O          4.5060  -44.5220   14.2900 O.2   263  HIS263     -0.2718
    159  CB         3.6340  -43.1600   11.5160 C.3   263  HIS263      0.0759
    160  CG         5.1110  -43.3420   11.4340 C.ar  263  HIS263      0.0818
    161  ND1        5.7290  -44.5010   11.0370 N.ar  263  HIS263     -0.2268
    162  CD2        6.1270  -42.4380   11.6520 C.ar  263  HIS263      0.1154
    163  CE1        7.0350  -44.3490   11.0460 C.ar  263  HIS263      0.1986
    164  NE2        7.2960  -43.0930   11.3930 N.ar  263  HIS263     -0.2212
    165  N          2.7920  -43.1600   14.8280 N.am  264  TRP264     -0.1976
    166  CA         3.2160  -43.0030   16.2200 C.3   264  TRP264      0.1640
    167  C          2.5290  -44.0020   17.1520 C.2   264  TRP264      0.2290
    168  O          1.7350  -43.6220   18.0190 O.2   264  TRP264     -0.2864
    169  CB         2.8930  -41.5960   16.7460 C.3   264  TRP264      0.0576
    170  CG         3.7880  -40.5560   16.1850 C.ar  264  TRP264      0.0006
    171  CD1        4.8800  -40.7310   15.4140 C.ar  264  TRP264      0.0946
    172  CD2        3.6530  -39.1490   16.4020 C.ar  264  TRP264      0.0152
    173  NE1        5.4470  -39.5000   15.1050 N.ar  264  TRP264     -0.2442
    174  CE2        4.6980  -38.5290   15.7180 C.ar  264  TRP264      0.0810
    175  CE3        2.7400  -38.3880   17.1110 C.ar  264  TRP264      0.0012
    176  CZ2        4.8720  -37.1400   15.7080 C.ar  264  TRP264      0.0191
    177  CZ3        2.9150  -36.9860   17.1070 C.ar  264  TRP264      0.0001
    178  CH2        3.9720  -36.4080   16.4020 C.ar  264  TRP264      0.0015
@<TRIPOS>BOND
     1   132   131    2
     2   131   130    1
     3    77    78    1
     4    77    74    1
     5    76    75    2
     6    75    74    1
     7    63    62    1
     8   130   133    1
     9   130   129    1
    10   128   127    2
    11    74    73    1
    12   133   134    1
    13    60    61    2
    14    60    59    1
    15    62    59    1
    16    62    64    1
    17   127   126    1
    18    73    67   am
    19    59    58    1
    20    54    55    1
    21   134   135   ar
    22   134   136   ar
    23    58    56   am
    24   135   137   ar
    25   126   125    1
    26    67    68    2
    27    67    66    1
    28    56    55    1
    29    56    57    2
    30    65    66    1
    31   136   138   ar
    32   143   142    2
    33   137   139   ar
    34   125   119   am
    35    66    69    1
    36   120   119    2
    37    69    70    1
    38   119   118    1
    39   138   139   ar
    40   142   141    1
    41   142   147   am
    42   153   152    2
    43   141   140    1
    44   141   144    1
    45   148   149    1
    46   148   147    1
    47   148   151    1
    48   149   150    2
    49    70    72    1
    50    70    71    1
    51   117   118    1
    52   118   121    1
    53   152   151    1
    54   152   154   am
    55   145   144    1
    56   123   124    1
    57   123   122    1
    58    79    80    1
    59   144   146    1
    60    80    83    1
    61    80    81    1
    62    85    87   ar
    63    85    84   ar
    64    83    84    1
    65   121   122    1
    66    87    89   ar
    67    84    86   ar
    68    82    81    2
    69    81    90   am
    70   105   104    1
    71    89    88   ar
    72    52    51    1
    73    86    88   ar
    74    18    19    1
    75    18    17    1
    76    90    91    1
    77    98    99    1
    78    19    13    1
    79   161   163   ar
    80   161   160   ar
    81   163   164   ar
    82   104   103    1
    83     8     7    2
    84    17    14    1
    85    92    91    1
    86    92    93    2
    87    51    53    1
    88    51    50    1
    89   164   162   ar
    90   160   159    1
    91   160   162   ar
    92    91    94    1
    93   159   156    1
    94    99   100    1
    95    99   102    1
    96    50    47    1
    97    47    46    1
    98    47    48    1
    99    13    14    1
   100    13    11   am
   101   103   102    1
   102    46    43   am
   103    10    11    1
   104    10     9    1
   105     7     9   am
   106     7     6    1
   107    44    43    2
   108    43    42    1
   109   100   101    2
   110    14    15    1
   111   155   156    1
   112    42    45    1
   113    42    41    1
   114   156   157    1
   115    94    95    1
   116    11    12    2
   117    49    48    2
   118     6     5    1
   119    95    97    1
   120    95    96    1
   121     5     3   am
   122    15    16    2
   123    41    35   am
   124   157   158    2
   125   157   165   am
   126   165   166    1
   127     3     2    1
   128     3     4    2
   129    35    36    2
   130    35    34    1
   131   173   171   ar
   132   173   174   ar
   133   171   170   ar
   134     2     1    1
   135   176   174   ar
   136   176   178   ar
   137   174   172   ar
   138   109   108    2
   139   108   107    1
   140    34    37    1
   141    34    33    1
   142   170   172   ar
   143   170   169    1
   144   166   169    1
   145   166   167    1
   146   172   175   ar
   147   178   177   ar
   148   110   107    1
   149   110   111    1
   150    20    21    1
   151    24    21    1
   152    37    38    1
   153   177   175   ar
   154   107   106    1
   155   167   168    2
   156    40    38   am
   157    38    39    2
   158   111   112    1
   159    21    22    1
   160   112   113    1
   161   113   114    2
   162    23    22    2
   163    32    30   am
   164   114   116    1
   165   114   115    1
   166    31    30    2
   167    30    29    1
   168    29    26    1
   169    26    25    1
   170    26    27    1
   171    28    27    2
