@<TRIPOS>MOLECULE
tmp/2wugA00.pdb
 153 145 0 0 0
SMALL
GASTEIGER

@<TRIPOS>ATOM
      1  N        -10.8890  -17.5860   28.8340 N.3    38  GLY38      -0.1210
      2  CA       -10.7340  -17.7010   30.2780 C.3    38  GLY38       0.1956
      3  C         -9.4880  -17.0030   30.8250 C.2    38  GLY38       0.2612
      4  O         -8.7160  -16.4360   30.0670 O.2    38  GLY38      -0.2717
      5  N         -9.3270  -17.0110   32.1390 N.am   39  GLY39      -0.1942
      6  CA        -8.2580  -16.2560   32.7520 C.3    39  GLY39       0.2014
      7  C         -7.0580  -17.0350   33.2360 C.2    39  GLY39       0.2639
      8  O         -6.3210  -16.5490   34.0880 O.2    39  GLY39      -0.2714
      9  N         -6.8530  -18.2200   32.6970 N.am   40  GLY40      -0.1954
     10  CA        -5.7060  -19.0210   33.0840 C.3    40  GLY40       0.1869
     11  C         -4.3990  -18.3850   32.6330 C.2    40  GLY40       0.2309
     12  O         -4.3780  -17.5490   31.7510 O.2    40  GLY40      -0.2863
     13  N         -3.3570  -17.7500   28.9510 N.3    43  ALA43      -0.1245
     14  CA        -4.5730  -17.9240   28.1550 C.3    43  ALA43       0.1562
     15  C         -4.7710  -16.7100   27.2670 C.2    43  ALA43       0.2260
     16  O         -4.4260  -15.6030   27.6480 O.2    43  ALA43      -0.2867
     17  CB        -5.7860  -18.1140   29.0450 C.3    43  ALA43       0.0290
     18  N         -7.1270  -20.3960   23.4730 N.3    48  ASN48      -0.1240
     19  CA        -8.3790  -20.9390   23.9820 C.3    48  ASN48       0.1653
     20  C         -9.3560  -21.4560   22.9290 C.2    48  ASN48       0.2266
     21  O        -10.0210  -22.4540   23.1560 O.2    48  ASN48      -0.2867
     22  CB        -9.1010  -19.8780   24.8000 C.3    48  ASN48       0.1155
     23  CG        -9.0220  -20.1310   26.2700 C.2    48  ASN48       0.2627
     24  OD1      -10.0270  -20.0930   26.9620 O.2    48  ASN48      -0.2716
     25  ND2       -7.8240  -20.3930   26.7630 N.am   48  ASN48      -0.0877
     26  N        -15.9340  -18.2380   28.3330 N.3   107  ASN107     -0.1225
     27  CA       -15.6230  -19.2600   29.2950 C.3   107  ASN107      0.1785
     28  C        -14.9170  -18.7080   30.5230 C.2   107  ASN107      0.2597
     29  O        -14.0800  -17.8210   30.4310 O.2   107  ASN107     -0.2718
     30  CB       -14.8410  -20.4020   28.6700 C.3   107  ASN107      0.1169
     31  CG       -13.4360  -20.0730   28.4730 C.2   107  ASN107      0.2627
     32  OD1      -13.1160  -19.2270   27.6580 O.2   107  ASN107     -0.2716
     33  ND2      -12.5570  -20.7310   29.2140 N.am  107  ASN107     -0.0877
     34  N        -15.2840  -19.2460   31.6730 N.am  108  ALA108     -0.1966
     35  CA       -14.6450  -18.8540   32.9280 C.3   108  ALA108      0.1728
     36  C        -14.6180  -17.3380   33.1230 C.2   108  ALA108      0.2616
     37  O        -15.6570  -16.7030   33.1480 O.2   108  ALA108     -0.2715
     38  CB       -13.2370  -19.4470   33.0140 C.3   108  ALA108      0.0334
     39  N        -13.4240  -16.7540   33.2570 N.am  109  LEU109     -0.1977
     40  CA       -13.3330  -15.3280   33.5220 C.3   109  LEU109      0.1596
     41  C        -14.0500  -14.5490   32.3900 C.2   109  LEU109      0.2287
     42  O        -14.7060  -13.5240   32.6280 O.2   109  LEU109     -0.2864
     43  CB       -11.8510  -14.9210   33.5810 C.3   109  LEU109      0.0297
     44  CG       -11.5870  -13.4600   33.9650 C.3   109  LEU109      0.0022
     45  CD1      -12.0860  -13.1880   35.3710 C.3   109  LEU109      0.0001
     46  CD2      -10.0950  -13.1450   33.8550 C.3   109  LEU109      0.0001
     47  N         -8.6850  -22.7460   41.4450 N.3   149  VAL149     -0.1245
     48  CA        -8.3290  -21.3820   41.7980 C.3   149  VAL149      0.1561
     49  C         -7.0430  -21.3780   42.6220 C.2   149  VAL149      0.2260
     50  O         -6.1720  -20.5350   42.4350 O.2   149  VAL149     -0.2867
     51  CB        -9.4720  -20.7040   42.5600 C.3   149  VAL149      0.0252
     52  CG1       -9.0440  -19.3560   43.1000 C.3   149  VAL149      0.0019
     53  CG2      -10.7030  -20.5800   41.6320 C.3   149  VAL149      0.0019
     54  N         -4.0390  -21.8000   40.3560 N.3   152  LEU152     -0.1245
     55  CA        -3.7270  -20.5860   39.6290 C.3   152  LEU152      0.1561
     56  C         -2.9960  -19.6000   40.5320 C.2   152  LEU152      0.2260
     57  O         -2.0350  -18.9730   40.1270 O.2   152  LEU152     -0.2867
     58  CB        -4.9940  -19.9280   39.0940 C.3   152  LEU152      0.0270
     59  CG        -4.7290  -18.6560   38.3040 C.3   152  LEU152      0.0019
     60  CD1       -3.6250  -18.9010   37.3010 C.3   152  LEU152      0.0001
     61  CD2       -5.9770  -18.1640   37.6230 C.3   152  LEU152      0.0001
     62  N         -1.5610  -26.7440   37.4560 N.3   167  PHE167     -0.1241
     63  CA        -2.7840  -25.9970   37.1220 C.3   167  PHE167      0.1605
     64  C         -3.4910  -26.5970   35.9010 C.2   167  PHE167      0.2264
     65  O         -4.6980  -26.8600   35.9230 O.2   167  PHE167     -0.2867
     66  CB        -2.4710  -24.5240   36.8690 C.3   167  PHE167      0.0534
     67  CG        -3.6220  -23.7680   36.2890 C.ar  167  PHE167     -0.0203
     68  CD1       -4.6470  -23.3030   37.1050 C.ar  167  PHE167     -0.0042
     69  CD2       -3.6970  -23.5390   34.9220 C.ar  167  PHE167     -0.0042
     70  CE1       -5.7210  -22.6030   36.5660 C.ar  167  PHE167     -0.0003
     71  CE2       -4.7710  -22.8470   34.3740 C.ar  167  PHE167     -0.0003
     72  CZ        -5.7830  -22.3790   35.1960 C.ar  167  PHE167     -0.0000
     73  N         -7.6020  -28.5970   34.6160 N.3   171  MET171     -0.1245
     74  CA        -8.4770  -27.9360   33.6520 C.3   171  MET171      0.1570
     75  C         -9.2440  -28.9630   32.8240 C.2   171  MET171      0.2261
     76  O        -10.1690  -28.6050   32.1030 O.2   171  MET171     -0.2867
     77  CB        -7.6800  -27.0850   32.6580 C.3   171  MET171      0.0387
     78  CG        -6.9460  -25.9050   33.2050 C.3   171  MET171      0.0595
     79  SD        -8.0850  -24.6950   33.8900 S.3   171  MET171     -0.1393
     80  CE        -7.7800  -25.0340   35.6080 C.3   171  MET171      0.0692
     81  N          2.4770  -22.9930   27.0810 N.3   186  ARG186     -0.1245
     82  CA         1.7420  -22.1550   28.0070 C.3   186  ARG186      0.1563
     83  C          2.6680  -21.4820   29.0180 C.2   186  ARG186      0.2260
     84  O          2.4330  -20.3580   29.4100 O.2   186  ARG186     -0.2867
     85  CB         0.6640  -22.9620   28.7290 C.3   186  ARG186      0.0307
     86  CG        -0.5440  -23.2820   27.8730 C.3   186  ARG186      0.0489
     87  CD        -1.3330  -22.0310   27.5600 C.3   186  ARG186      0.2205
     88  NE        -2.7670  -22.2810   27.4390 N.pl3 186  ARG186     -0.0865
     89  CZ        -3.6600  -22.0570   28.3990 C.cat 186  ARG186      0.5346
     90  NH1       -3.2900  -21.5960   29.5890 N.pl3 186  ARG186      0.1354
     91  NH2       -4.9340  -22.3130   28.1750 N.pl3 186  ARG186      0.1354
     92  N         -5.3820   -9.0340   38.3420 N.3   202  MET202     -0.1230
     93  CA        -6.7030   -9.6130   38.1320 C.3   202  MET202      0.1702
     94  C         -7.2610  -10.2290   39.4040 C.2   202  MET202      0.2592
     95  O         -8.3290   -9.8540   39.8580 O.2   202  MET202     -0.2718
     96  CB        -6.6800  -10.6380   37.0030 C.3   202  MET202      0.0401
     97  CG        -8.0160  -11.2980   36.7520 C.3   202  MET202      0.0596
     98  SD        -8.2760  -12.7160   37.8390 S.3   202  MET202     -0.1393
     99  CE        -7.0730  -13.8700   37.1880 C.3   202  MET202      0.0692
    100  N         -6.5350  -11.1730   39.9850 N.am  203  GLY203     -0.1957
    101  CA        -7.0050  -11.8090   41.2010 C.3   203  GLY203      0.1869
    102  C         -7.3050  -10.7980   42.2900 C.2   203  GLY203      0.2309
    103  O         -8.3070  -10.8830   42.9920 O.2   203  GLY203     -0.2863
    104  N        -10.7370   -8.5920   42.4840 N.3   206  PHE206     -0.1241
    105  CA       -11.9980   -9.1530   42.9510 C.3   206  PHE206      0.1605
    106  C        -12.2320   -8.8130   44.4200 C.2   206  PHE206      0.2264
    107  O        -13.3260   -8.9980   44.9360 O.2   206  PHE206     -0.2867
    108  CB       -12.0130  -10.6690   42.7870 C.3   206  PHE206      0.0534
    109  CG       -12.3800  -11.1310   41.4110 C.ar  206  PHE206     -0.0203
    110  CD1      -13.6670  -11.5460   41.1260 C.ar  206  PHE206     -0.0042
    111  CD2      -11.4310  -11.1710   40.4050 C.ar  206  PHE206     -0.0042
    112  CE1      -13.9890  -11.9750   39.8710 C.ar  206  PHE206     -0.0003
    113  CE2      -11.7550  -11.6050   39.1470 C.ar  206  PHE206     -0.0003
    114  CZ       -13.0320  -12.0030   38.8800 C.ar  206  PHE206     -0.0000
    115  N        -12.3700  -26.0570   38.4750 N.3   237  VAL237     -0.1231
    116  CA       -12.1250  -24.6380   38.7050 C.3   237  VAL237      0.1692
    117  C        -13.3980  -23.9210   39.1700 C.2   237  VAL237      0.2592
    118  O        -13.4310  -23.2990   40.2310 O.2   237  VAL237     -0.2718
    119  CB       -11.5990  -23.9480   37.4410 C.3   237  VAL237      0.0266
    120  CG1      -11.2810  -22.4810   37.7280 C.3   237  VAL237      0.0020
    121  CG2      -10.3610  -24.6550   36.9450 C.3   237  VAL237      0.0020
    122  N        -14.4350  -24.0130   38.3500 N.am  238  ASN238     -0.1974
    123  CA       -15.7630  -23.5000   38.6770 C.3   238  ASN238      0.1688
    124  C        -16.7040  -24.7020   38.6130 C.2   238  ASN238      0.2292
    125  O        -17.2330  -25.0230   37.5580 O.2   238  ASN238     -0.2864
    126  CB       -16.1960  -22.4450   37.6510 C.3   238  ASN238      0.1181
    127  CG       -15.3350  -21.1840   37.7120 C.2   238  ASN238      0.2629
    128  OD1      -14.7980  -20.8390   38.7730 O.2   238  ASN238     -0.2716
    129  ND2      -15.2010  -20.4880   36.5840 N.am  238  ASN238     -0.0877
    130  N        -12.9680  -28.3910   32.9010 N.3   263  HIS263     -0.1226
    131  CA       -13.2070  -26.9790   32.7090 C.3   263  HIS263      0.1752
    132  C        -13.1810  -26.5530   31.2420 C.2   263  HIS263      0.2596
    133  O        -13.9650  -25.7230   30.8280 O.2   263  HIS263     -0.2718
    134  CB       -12.1720  -26.1920   33.5170 C.3   263  HIS263      0.0759
    135  CG       -12.4690  -24.7370   33.6440 C.ar  263  HIS263      0.0818
    136  ND1      -13.7030  -24.2510   34.0110 N.ar  263  HIS263     -0.2268
    137  CD2      -11.6680  -23.6550   33.4980 C.ar  263  HIS263      0.1154
    138  CE1      -13.6590  -22.9370   34.0600 C.ar  263  HIS263      0.1986
    139  NE2      -12.4310  -22.5490   33.7670 N.ar  263  HIS263     -0.2212
    140  N        -12.2880  -27.1420   30.4610 N.am  264  TRP264     -0.1976
    141  CA       -12.1590  -26.7950   29.0500 C.3   264  TRP264      0.1640
    142  C        -13.1730  -27.5150   28.1590 C.2   264  TRP264      0.2290
    143  O        -12.7920  -28.3280   27.3410 O.2   264  TRP264     -0.2864
    144  CB       -10.7570  -27.1520   28.5620 C.3   264  TRP264      0.0576
    145  CG        -9.7070  -26.2570   29.0760 C.ar  264  TRP264      0.0006
    146  CD1       -9.8830  -25.1310   29.8070 C.ar  264  TRP264      0.0946
    147  CD2       -8.2940  -26.4170   28.9140 C.ar  264  TRP264      0.0152
    148  NE1       -8.6700  -24.5660   30.1070 N.ar  264  TRP264     -0.2442
    149  CE2       -7.6790  -25.3400   29.5670 C.ar  264  TRP264      0.0810
    150  CE3       -7.4980  -27.3640   28.2760 C.ar  264  TRP264      0.0012
    151  CZ2       -6.3050  -25.1810   29.5990 C.ar  264  TRP264      0.0191
    152  CZ3       -6.1300  -27.2010   28.3100 C.ar  264  TRP264      0.0001
    153  CH2       -5.5520  -26.1200   28.9650 C.ar  264  TRP264      0.0015
@<TRIPOS>BOND
     1    20    21    2
     2    20    19    1
     3    18    19    1
     4    19    22    1
     5    22    23    1
     6    23    25   am
     7    23    24    2
     8    81    82    1
     9    15    16    2
    10    15    14    1
    11   143   142    2
    12    88    87    1
    13    88    89    2
    14    87    86    1
    15    32    31    2
    16    86    85    1
    17    82    85    1
    18    82    83    1
    19    14    13    1
    20    14    17    1
    21   142   141    1
    22    91    89    1
    23   150   152   ar
    24   150   147   ar
    25   152   153   ar
    26    26    27    1
    27    89    90    1
    28    31    30    1
    29    31    33   am
    30   144   141    1
    31   144   145    1
    32    30    27    1
    33     1     2    1
    34   147   145   ar
    35   147   149   ar
    36   153   151   ar
    37    83    84    2
    38   141   140    1
    39   145   146   ar
    40    27    28    1
    41   149   151   ar
    42   149   148   ar
    43   146   148   ar
    44     4     3    2
    45     2     3    1
    46    29    28    2
    47   140   132   am
    48    28    34   am
    49     3     5   am
    50   133   132    2
    51   132   131    1
    52    34    35    1
    53    12    11    2
    54    76    75    2
    55     5     6    1
    56    41    42    2
    57    41    40    1
    58    11    10    1
    59    77    78    1
    60    77    74    1
    61     9    10    1
    62     9     7   am
    63   131   130    1
    64   131   134    1
    65     6     7    1
    66    75    74    1
    67    35    38    1
    68    35    36    1
    69    36    37    2
    70    36    39   am
    71    78    79    1
    72     7     8    2
    73    39    40    1
    74   137   135   ar
    75   137   139   ar
    76   134   135    1
    77    40    43    1
    78    43    44    1
    79   135   136   ar
    80    74    73    1
    81   139   138   ar
    82    46    44    1
    83    79    80    1
    84    44    45    1
    85   136   138   ar
    86    71    69   ar
    87    71    72   ar
    88    69    67   ar
    89    72    70   ar
    90    64    65    2
    91    64    63    1
    92    67    66    1
    93    67    68   ar
    94    70    68   ar
    95   129   127   am
    96    97    96    1
    97    97    98    1
    98    66    63    1
    99   121   119    1
   100    96    93    1
   101    63    62    1
   102    99    98    1
   103    60    59    1
   104   119   120    1
   105   119   116    1
   106   125   124    2
   107    61    59    1
   108   126   127    1
   109   126   123    1
   110   127   128    2
   111    93    92    1
   112    93    94    1
   113    59    58    1
   114   122   123    1
   115   122   117   am
   116   115   116    1
   117   124   123    1
   118   116   117    1
   119   114   113   ar
   120   114   112   ar
   121    58    55    1
   122   113   111   ar
   123   117   118    2
   124    94    95    2
   125    94   100   am
   126    55    54    1
   127    55    56    1
   128   112   110   ar
   129   100   101    1
   130    57    56    2
   131   111   109   ar
   132   110   109   ar
   133   101   102    1
   134   109   108    1
   135    47    48    1
   136    53    51    1
   137    48    51    1
   138    48    49    1
   139   102   103    2
   140    50    49    2
   141   104   105    1
   142    51    52    1
   143   108   105    1
   144   105   106    1
   145   106   107    2
