@<TRIPOS>MOLECULE
tmp/2wuzA01.pdb
 120 112 0 0 0
SMALL
GASTEIGER

@<TRIPOS>ATOM
      1  N         35.4200   -9.7560   -2.9670 N.3    77  TYR77      -0.1241
      2  CA        35.3280   -9.2220   -1.5740 C.3    77  TYR77       0.1605
      3  C         34.6090   -7.8980   -1.4710 C.2    77  TYR77       0.2264
      4  O         34.4780   -7.3800   -0.3530 O.2    77  TYR77      -0.2867
      5  CB        36.6820   -9.1650   -0.8520 C.3    77  TYR77       0.0534
      6  CG        37.0080  -10.5150   -0.2120 C.ar   77  TYR77      -0.0201
      7  CD1       36.5720  -10.8240    1.0830 C.ar   77  TYR77      -0.0009
      8  CD2       37.7100  -11.4790   -0.9160 C.ar   77  TYR77      -0.0009
      9  CE1       36.8290  -12.0290    1.6430 C.ar   77  TYR77       0.0417
     10  CE2       37.9200  -12.7210   -0.3800 C.ar   77  TYR77       0.0417
     11  CZ        37.4760  -12.9860    0.8950 C.ar   77  TYR77       0.1957
     12  OH        37.7170  -14.1870    1.4220 O.3    77  TYR77      -0.2866
     13  N         31.9020   -7.1850    1.1020 N.3    80  MET80      -0.1245
     14  CA        32.3890   -6.9380    2.4550 C.3    80  MET80       0.1570
     15  C         32.8520   -5.4920    2.6550 C.2    80  MET80       0.2261
     16  O         33.2430   -5.1230    3.7580 O.2    80  MET80      -0.2867
     17  CB        33.5960   -7.8280    2.8020 C.3    80  MET80       0.0387
     18  CG        33.4500   -9.3130    2.5840 C.3    80  MET80       0.0595
     19  SD        31.9680   -9.8710    3.4350 S.3    80  MET80      -0.1393
     20  CE        32.4840   -9.7700    5.1550 C.3    80  MET80       0.0692
     21  N         34.3580   -4.1250    6.2980 N.3    84  PHE84      -0.1241
     22  CA        35.7940   -3.9010    6.5420 C.3    84  PHE84       0.1605
     23  C         36.0560   -2.4460    6.5470 C.2    84  PHE84       0.2264
     24  O         37.0540   -1.9880    7.0840 O.2    84  PHE84      -0.2867
     25  CB        36.6530   -4.5140    5.4330 C.3    84  PHE84       0.0534
     26  CG        36.5470   -6.0080    5.3040 C.ar   84  PHE84      -0.0203
     27  CD1       36.2290   -6.8110    6.3960 C.ar   84  PHE84      -0.0042
     28  CD2       36.8370   -6.6090    4.0740 C.ar   84  PHE84      -0.0042
     29  CE1       36.1460   -8.2280    6.2730 C.ar   84  PHE84      -0.0003
     30  CE2       36.7800   -8.0160    3.9180 C.ar   84  PHE84      -0.0003
     31  CZ        36.4320   -8.8430    5.0420 C.ar   84  PHE84      -0.0000
     32  N         40.9620   -5.9200    1.2350 N.3    90  TYR90      -0.1241
     33  CA        40.9040   -6.2950   -0.2030 C.3    90  TYR90       0.1605
     34  C         40.6510   -5.1040   -1.1520 C.2    90  TYR90       0.2264
     35  O         40.9650   -5.1610   -2.3470 O.2    90  TYR90      -0.2867
     36  CB        39.8950   -7.4060   -0.4380 C.3    90  TYR90       0.0534
     37  CG        40.1800   -8.5910    0.4670 C.ar   90  TYR90      -0.0201
     38  CD1       41.2030   -9.4870    0.1580 C.ar   90  TYR90      -0.0009
     39  CD2       39.4800   -8.7750    1.6450 C.ar   90  TYR90      -0.0009
     40  CE1       41.4740  -10.5520    0.9690 C.ar   90  TYR90       0.0417
     41  CE2       39.7740   -9.7850    2.4960 C.ar   90  TYR90       0.0417
     42  CZ        40.7520  -10.7120    2.1510 C.ar   90  TYR90       0.1957
     43  OH        41.0430  -11.7820    2.9650 O.3    90  TYR90      -0.2866
     44  N         46.7280   -6.9780    6.8270 N.3   101  LEU101     -0.1245
     45  CA        46.4900   -8.3590    7.2690 C.3   101  LEU101      0.1561
     46  C         47.5640   -8.8610    8.2060 C.2   101  LEU101      0.2260
     47  O         47.2460   -9.4780    9.2260 O.2   101  LEU101     -0.2867
     48  CB        46.3060   -9.3360    6.0930 C.3   101  LEU101      0.0270
     49  CG        44.9690   -9.1570    5.3340 C.3   101  LEU101      0.0019
     50  CD1       44.8450  -10.0940    4.1690 C.3   101  LEU101      0.0001
     51  CD2       43.6800   -9.2230    6.1840 C.3   101  LEU101      0.0001
     52  N         47.2550   -7.5680   11.7480 N.3   104  LEU104     -0.1245
     53  CA        46.3180   -8.4980   12.4110 C.3   104  LEU104      0.1561
     54  C         46.9800   -9.8730   12.7390 C.2   104  LEU104      0.2260
     55  O         46.8770  -10.4040   13.8670 O.2   104  LEU104     -0.2867
     56  CB        45.0780   -8.6830   11.5220 C.3   104  LEU104      0.0270
     57  CG        43.7460   -9.1890   12.0590 C.3   104  LEU104      0.0019
     58  CD1       43.3470   -8.3690   13.2090 C.3   104  LEU104      0.0001
     59  CD2       42.6710   -9.1010   10.9780 C.3   104  LEU104      0.0001
     60  N         37.1590   -6.9300   11.1160 N.3   255  ALA255     -0.1245
     61  CA        37.5000   -8.0800   10.2890 C.3   255  ALA255      0.1562
     62  C         37.8290   -9.3150   11.1590 C.2   255  ALA255      0.2260
     63  O         37.3130  -10.4340   10.9250 O.2   255  ALA255     -0.2867
     64  CB        38.7220   -7.7020    9.2990 C.3   255  ALA255      0.0290
     65  N         34.3270  -10.1690   13.1360 N.3   258  PHE258     -0.1227
     66  CA        33.4530  -10.6690   12.1370 C.3   258  PHE258      0.1736
     67  C         33.8910  -12.0750   11.6750 C.2   258  PHE258      0.2595
     68  O         33.0700  -13.0150   11.6630 O.2   258  PHE258     -0.2718
     69  CB        33.3590   -9.6640   10.9650 C.3   258  PHE258      0.0547
     70  CG        32.1790   -9.9080   10.0670 C.ar  258  PHE258     -0.0202
     71  CD1       30.9580   -9.2260   10.2810 C.ar  258  PHE258     -0.0042
     72  CD2       32.2720  -10.8510    9.0620 C.ar  258  PHE258     -0.0042
     73  CE1       29.8240   -9.4910    9.4500 C.ar  258  PHE258     -0.0003
     74  CE2       31.2050  -11.1520    8.2480 C.ar  258  PHE258     -0.0003
     75  CZ        29.9480  -10.4720    8.4240 C.ar  258  PHE258     -0.0000
     76  N         35.1780  -12.2430   11.3660 N.am  259  ALA259     -0.1966
     77  CA        35.6750  -13.5560   10.9250 C.3   259  ALA259      0.1728
     78  C         35.3990  -14.7090   11.9210 C.2   259  ALA259      0.2616
     79  O         34.7410  -15.7090   11.5720 O.2   259  ALA259     -0.2715
     80  CB        37.1580  -13.4850   10.5430 C.3   259  ALA259      0.0334
     81  N         35.8350  -14.5450   13.1580 N.am  260  GLY260     -0.1955
     82  CA        35.7300  -15.5920   14.1650 C.3   260  GLY260      0.1869
     83  C         34.3740  -15.8120   14.8150 C.2   260  GLY260      0.2309
     84  O         34.0610  -16.9530   15.2150 O.2   260  GLY260     -0.2863
     85  N         32.0100  -18.3980   12.5230 N.3   263  THR263     -0.1218
     86  CA        32.6790  -19.6430   12.0660 C.3   263  THR263      0.1862
     87  C         33.0840  -20.5500   13.2300 C.2   263  THR263      0.2287
     88  O         32.8750  -21.7730   13.1910 O.2   263  THR263     -0.2866
     89  CB        33.9150  -19.3430   11.2210 C.3   263  THR263      0.1770
     90  OG1       34.7210  -18.4010   11.9300 O.3   263  THR263     -0.2211
     91  CG2       33.5380  -18.7270    9.8870 C.3   263  THR263      0.0375
     92  N         32.4370  -22.0220    5.7520 N.3   324  LEU324     -0.1245
     93  CA        32.5630  -21.2150    4.5530 C.3   324  LEU324      0.1561
     94  C         32.5240  -22.1710    3.3770 C.2   324  LEU324      0.2260
     95  O         33.4300  -22.9820    3.1900 O.2   324  LEU324     -0.2867
     96  CB        33.8510  -20.3800    4.6020 C.3   324  LEU324      0.0270
     97  CG        33.8610  -19.3180    5.7100 C.3   324  LEU324      0.0019
     98  CD1       35.2180  -18.6480    5.8080 C.3   324  LEU324      0.0001
     99  CD2       32.6790  -18.3390    5.4020 C.3   324  LEU324      0.0001
    100  N         43.5710  -18.7410    6.1190 N.3   390  CYS390     -0.1235
    101  CA        43.1110  -18.1630    7.4040 C.3   390  CYS390      0.1677
    102  C         44.1780  -17.7320    8.4020 C.2   390  CYS390      0.2270
    103  O         44.9330  -18.5600    8.8310 O.2   390  CYS390     -0.2867
    104  CB        42.1790  -19.1520    8.1490 C.3   390  CYS390      0.0956
    105  SG        41.2770  -18.3110    9.5460 S.3   390  CYS390     -0.0801
    106  N         24.5450  -17.1500    4.7830 N.3   428  MET428     -0.1230
    107  CA        25.8730  -16.9090    4.2330 C.3   428  MET428      0.1702
    108  C         26.9540  -17.8380    4.8240 C.2   428  MET428      0.2592
    109  O         27.7150  -18.4600    4.0590 O.2   428  MET428     -0.2718
    110  CB        26.2840  -15.4660    4.4940 C.3   428  MET428      0.0401
    111  CG        27.5250  -15.0630    3.7510 C.3   428  MET428      0.0596
    112  SD        27.7740  -13.3020    3.8440 S.3   428  MET428     -0.1393
    113  CE        28.8670  -13.0880    2.4510 C.3   428  MET428      0.0692
    114  N         27.0840  -17.8310    6.1660 N.am  429  VAL429     -0.1980
    115  CA        28.0890  -18.6240    6.8590 C.3   429  VAL429      0.1595
    116  C         27.1850  -19.7300    7.3410 C.2   429  VAL429      0.2287
    117  O         26.0830  -19.4170    7.7630 O.2   429  VAL429     -0.2864
    118  CB        28.8290  -17.8470    7.9680 C.3   429  VAL429      0.0276
    119  CG1       30.0350  -18.6580    8.5460 C.3   429  VAL429      0.0022
    120  CG2       29.3130  -16.4680    7.4250 C.3   429  VAL429      0.0022
@<TRIPOS>BOND
     1     1     2    1
     2    35    34    2
     3     2     3    1
     4     2     5    1
     5     3     4    2
     6    34    33    1
     7     8    10   ar
     8     8     6   ar
     9     5     6    1
    10    36    33    1
    11    36    37    1
    12    10    11   ar
    13     6     7   ar
    14    33    32    1
    15    38    37   ar
    16    38    40   ar
    17    37    39   ar
    18    11    12    1
    19    11     9   ar
    20    40    42   ar
    21     7     9   ar
    22    13    14    1
    23    39    41   ar
    24    42    41   ar
    25    42    43    1
    26   113   112    1
    27    14    15    1
    28    14    17    1
    29    18    17    1
    30    18    19    1
    31    15    16    2
    32    95    94    2
    33    94    93    1
    34    19    20    1
    35   111   112    1
    36   111   110    1
    37    30    28   ar
    38    30    31   ar
    39   109   108    2
    40    28    26   ar
    41    50    49    1
    42   107   110    1
    43   107   106    1
    44   107   108    1
    45    93    96    1
    46    93    92    1
    47    96    97    1
    48   108   114   am
    49    31    29   ar
    50    26    25    1
    51    26    27   ar
    52    49    48    1
    53    49    51    1
    54    99    97    1
    55    25    22    1
    56    97    98    1
    57    48    45    1
    58   100   101    1
    59   114   115    1
    60    29    27   ar
    61    21    22    1
    62    22    23    1
    63    23    24    2
    64    44    45    1
    65   115   116    1
    66   115   118    1
    67    45    46    1
    68   116   117    2
    69   101   104    1
    70   101   102    1
    71   120   118    1
    72   118   119    1
    73   104   105    1
    74    46    47    2
    75    74    75   ar
    76    74    72   ar
    77   102   103    2
    78    75    73   ar
    79    72    70   ar
    80    64    61    1
    81    73    71   ar
    82    91    89    1
    83    70    71   ar
    84    70    69    1
    85    61    60    1
    86    61    62    1
    87    80    77    1
    88    77    76    1
    89    77    78    1
    90    63    62    2
    91    69    66    1
    92    59    57    1
    93    89    90    1
    94    89    86    1
    95    76    67   am
    96    56    57    1
    97    56    53    1
    98    79    78    2
    99    68    67    2
   100    67    66    1
   101    52    53    1
   102    78    81   am
   103    57    58    1
   104    86    85    1
   105    86    87    1
   106    66    65    1
   107    53    54    1
   108    54    55    2
   109    81    82    1
   110    88    87    2
   111    82    83    1
   112    83    84    2
