@<TRIPOS>MOLECULE
tmp/2wv8A02.pdb
 215 207 0 0 0
SMALL
GASTEIGER

@<TRIPOS>ATOM
      1  N         50.7920   54.6050   -7.5490 N.3     7  TYR7       -0.1241
      2  CA        50.6920   53.2120   -7.1370 C.3     7  TYR7        0.1605
      3  C         49.4570   52.5220   -7.7020 C.2     7  TYR7        0.2264
      4  O         49.5370   51.4040   -8.2120 O.2     7  TYR7       -0.2867
      5  CB        50.6930   53.1090   -5.6090 C.3     7  TYR7        0.0534
      6  CG        52.0810   53.0140   -5.0160 C.ar    7  TYR7       -0.0201
      7  CD1       52.9550   54.1000   -5.0470 C.ar    7  TYR7       -0.0009
      8  CD2       52.5370   51.8180   -4.4640 C.ar    7  TYR7       -0.0009
      9  CE1       54.2530   53.9950   -4.5460 C.ar    7  TYR7        0.0417
     10  CE2       53.8260   51.7020   -3.9620 C.ar    7  TYR7        0.0417
     11  CZ        54.6820   52.7910   -4.0080 C.ar    7  TYR7        0.1957
     12  OH        55.9670   52.6620   -3.5340 O.3     7  TYR7       -0.2866
     13  N         52.2830   51.4090  -10.7340 N.3    11  LEU11      -0.1231
     14  CA        53.0690   50.4230  -10.0050 C.3    11  LEU11       0.1693
     15  C         52.3350   49.1250   -9.6890 C.2    11  LEU11       0.2591
     16  O         52.7890   48.0470  -10.0710 O.2    11  LEU11      -0.2718
     17  CB        53.6230   51.0360   -8.7150 C.3    11  LEU11       0.0284
     18  CG        54.6110   50.1630   -7.9320 C.3    11  LEU11       0.0019
     19  CD1       55.6290   49.5460   -8.8780 C.3    11  LEU11       0.0001
     20  CD2       55.3120   51.0070   -6.8790 C.3    11  LEU11       0.0001
     21  N         51.2010   49.2190   -9.0010 N.am   12  MET12      -0.1979
     22  CA        50.4530   48.0170   -8.6430 C.3    12  MET12       0.1605
     23  C         49.9470   47.2360   -9.8560 C.2    12  MET12       0.2287
     24  O         50.1140   46.0190   -9.9270 O.2    12  MET12      -0.2864
     25  CB        49.2950   48.3730   -7.7060 C.3    12  MET12       0.0413
     26  CG        49.7540   48.9090   -6.3480 C.3    12  MET12       0.0598
     27  SD        50.8860   47.7900   -5.4620 S.3    12  MET12      -0.1393
     28  CE        49.7360   46.5310   -4.9030 C.3    12  MET12       0.0692
     29  N         52.8540   45.4280  -11.3270 N.3    15  LEU15      -0.1231
     30  CA        53.2880   44.3530  -10.4450 C.3    15  LEU15       0.1693
     31  C         52.3760   43.1360  -10.5640 C.2    15  LEU15       0.2591
     32  O         52.8500   42.0060  -10.6710 O.2    15  LEU15      -0.2718
     33  CB        53.3070   44.8370   -8.9930 C.3    15  LEU15       0.0284
     34  CG        53.6850   43.8040   -7.9290 C.3    15  LEU15       0.0019
     35  CD1       55.0910   43.2860   -8.1870 C.3    15  LEU15       0.0001
     36  CD2       53.6010   44.4410   -6.5490 C.3    15  LEU15       0.0001
     37  N         51.0660   43.3690  -10.5510 N.am   16  GLN16      -0.1979
     38  CA        50.1050   42.2760  -10.6480 C.3    16  GLN16       0.1601
     39  C         50.1360   41.6140  -12.0200 C.2    16  GLN16       0.2287
     40  O         49.6900   40.4810  -12.1800 O.2    16  GLN16      -0.2864
     41  CB        48.6930   42.7790  -10.3410 C.3    16  GLN16       0.0394
     42  CG        48.5620   43.4210   -8.9690 C.3    16  GLN16       0.0908
     43  CD        47.1190   43.5680   -8.5330 C.2    16  GLN16       0.2608
     44  OE1       46.2620   43.9650   -9.3210 O.2    16  GLN16      -0.2717
     45  NE2       46.8460   43.2580   -7.2710 N.am   16  GLN16      -0.0878
     46  N         49.2490   36.5010   -7.3460 N.3    21  PRO21      -0.2116
     47  CA        49.0180   37.0510   -6.0070 C.3    21  PRO21       0.1372
     48  C         49.8690   36.5300   -4.8450 C.2    21  PRO21       0.2244
     49  O         50.3170   37.3230   -4.0200 O.2    21  PRO21      -0.2868
     50  CB        47.5140   36.8400   -5.7940 C.3    21  PRO21       0.0268
     51  CG        47.1790   35.6940   -6.7000 C.3    21  PRO21       0.0207
     52  CD        47.9940   35.9960   -7.9290 C.3    21  PRO21       0.0892
     53  N         53.3870   37.9940   -5.2110 N.3    24  ALA24      -0.1231
     54  CA        53.3650   39.4220   -4.9270 C.3    24  ALA24       0.1694
     55  C         53.2770   39.6090   -3.4150 C.2    24  ALA24       0.2592
     56  O         53.8980   40.5060   -2.8490 O.2    24  ALA24      -0.2718
     57  CB        52.1690   40.0760   -5.6110 C.3    24  ALA24       0.0304
     58  N         52.4940   38.7530   -2.7660 N.am   25  HIS25      -0.1976
     59  CA        52.3270   38.8190   -1.3160 C.3    25  HIS25       0.1656
     60  C         53.6610   38.5720   -0.6040 C.2    25  HIS25       0.2291
     61  O         54.0690   39.3580    0.2610 O.2    25  HIS25      -0.2864
     62  CB        51.2900   37.7850   -0.8600 C.3    25  HIS25       0.0771
     63  CG        50.9850   37.8350    0.6050 C.ar   25  HIS25       0.0820
     64  ND1       50.0720   36.9940    1.2040 N.ar   25  HIS25      -0.2267
     65  CD2       51.4760   38.6230    1.5930 C.ar   25  HIS25       0.1154
     66  CE1       50.0140   37.2610    2.4980 C.ar   25  HIS25       0.1986
     67  NE2       50.8560   38.2450    2.7590 N.ar   25  HIS25      -0.2212
     68  N         56.6220   38.8530   -1.7620 N.3    27  LEU27      -0.1231
     69  CA        57.5360   39.9400   -2.0920 C.3    27  LEU27       0.1693
     70  C         57.2050   41.1660   -1.2340 C.2    27  LEU27       0.2591
     71  O         58.0980   41.8460   -0.7290 O.2    27  LEU27      -0.2718
     72  CB        57.4150   40.2760   -3.5830 C.3    27  LEU27       0.0284
     73  CG        58.5590   41.0290   -4.2650 C.3    27  LEU27       0.0019
     74  CD1       58.2830   41.1540   -5.7580 C.3    27  LEU27       0.0001
     75  CD2       58.7050   42.3910   -3.6500 C.3    27  LEU27       0.0001
     76  N         55.9140   41.4400   -1.0690 N.am   28  ALA28      -0.1980
     77  CA        55.4690   42.5770   -0.2690 C.3    28  ALA28       0.1597
     78  C         55.8900   42.4370    1.1900 C.2    28  ALA28       0.2287
     79  O         56.2960   43.4120    1.8220 O.2    28  ALA28      -0.2864
     80  CB        53.9590   42.7100   -0.3490 C.3    28  ALA28       0.0319
     81  N         59.7000   43.3280    1.3950 N.3    31  PHE31      -0.1227
     82  CA        59.9710   44.7630    1.3500 C.3    31  PHE31       0.1736
     83  C         59.4930   45.4720    2.6060 C.2    31  PHE31       0.2596
     84  O         60.1690   46.3620    3.1280 O.2    31  PHE31      -0.2718
     85  CB        59.3010   45.4070    0.1330 C.3    31  PHE31       0.0547
     86  CG        60.1510   45.3960   -1.1010 C.ar   31  PHE31      -0.0202
     87  CD1       60.5360   44.1970   -1.6880 C.ar   31  PHE31      -0.0042
     88  CD2       60.5780   46.5890   -1.6730 C.ar   31  PHE31      -0.0042
     89  CE1       61.3360   44.1860   -2.8290 C.ar   31  PHE31      -0.0003
     90  CE2       61.3790   46.5870   -2.8150 C.ar   31  PHE31      -0.0003
     91  CZ        61.7570   45.3820   -3.3920 C.ar   31  PHE31      -0.0000
     92  N         58.3210   45.0820    3.0900 N.am   32  THR32      -0.1953
     93  CA        57.7640   45.7030    4.2820 C.3    32  THR32       0.1897
     94  C         58.6290   45.4130    5.5060 C.2    32  THR32       0.2313
     95  O         58.8880   46.3050    6.3140 O.2    32  THR32      -0.2863
     96  CB        56.3230   45.2130    4.5360 C.3    32  THR32       0.1794
     97  OG1       55.5090   45.5180    3.3940 O.3    32  THR32      -0.2208
     98  CG2       55.7330   45.9010    5.7610 C.3    32  THR32       0.0378
     99  N         61.2860   49.1280    3.3610 N.3    36  LEU36      -0.1231
    100  CA        61.4180   49.7360    2.0400 C.3    36  LEU36       0.1693
    101  C         60.0260   50.1460    1.5800 C.2    36  LEU36       0.2592
    102  O         59.4040   49.4720    0.7590 O.2    36  LEU36      -0.2718
    103  CB        62.0300   48.7330    1.0620 C.3    36  LEU36       0.0284
    104  CG        63.4190   48.2310    1.4650 C.3    36  LEU36       0.0019
    105  CD1       63.8740   47.1340    0.5160 C.3    36  LEU36       0.0001
    106  CD2       64.3990   49.3980    1.4550 C.3    36  LEU36       0.0001
    107  N         59.5480   51.2610    2.1190 N.am   37  LEU37      -0.1966
    108  CA        58.2120   51.7540    1.8140 C.3    37  LEU37       0.1713
    109  C         58.2200   53.2100    1.3770 C.2    37  LEU37       0.2458
    110  O         59.1680   53.9480    1.6470 O.2    37  LEU37      -0.2730
    111  CB        57.3290   51.6310    3.0600 C.3    37  LEU37       0.0310
    112  CG        57.3160   50.2960    3.8110 C.3    37  LEU37       0.0022
    113  CD1       56.8100   50.5090    5.2290 C.3    37  LEU37       0.0001
    114  CD2       56.4450   49.2990    3.0720 C.3    37  LEU37       0.0001
    115  N         57.1550   53.6430    0.6890 N.am   38  PRO38      -0.2727
    116  CA        57.0680   55.0310    0.2380 C.3    38  PRO38       0.1402
    117  C         56.7380   55.9000    1.4500 C.2    38  PRO38       0.2269
    118  O         56.2050   55.4010    2.4410 O.2    38  PRO38      -0.2865
    119  CB        55.9330   54.9840   -0.7770 C.3    38  PRO38       0.0296
    120  CG        55.0270   53.9380   -0.2040 C.3    38  PRO38       0.0237
    121  CD        56.0110   52.8580    0.1900 C.3    38  PRO38       0.0939
    122  N         47.9370   38.9690    6.2750 N.3    67  PHE67      -0.1241
    123  CA        49.0020   39.5870    5.5020 C.3    67  PHE67       0.1605
    124  C         50.3430   39.1910    6.1120 C.2    67  PHE67       0.2264
    125  O         51.2610   38.7700    5.4050 O.2    67  PHE67      -0.2867
    126  CB        48.8750   41.1100    5.4880 C.3    67  PHE67       0.0534
    127  CG        49.9850   41.7820    4.7400 C.ar   67  PHE67      -0.0203
    128  CD1       50.0560   41.6950    3.3520 C.ar   67  PHE67      -0.0042
    129  CD2       51.0090   42.4260    5.4260 C.ar   67  PHE67      -0.0042
    130  CE1       51.1370   42.2360    2.6560 C.ar   67  PHE67      -0.0003
    131  CE2       52.0950   42.9700    4.7390 C.ar   67  PHE67      -0.0003
    132  CZ        52.1560   42.8720    3.3530 C.ar   67  PHE67      -0.0000
    133  N         54.2380   51.7700    7.7920 N.3    80  MET80      -0.1245
    134  CA        53.3180   51.9930    6.6810 C.3    80  MET80       0.1570
    135  C         52.1640   52.9030    7.1070 C.2    80  MET80       0.2261
    136  O         51.4580   53.4660    6.2640 O.2    80  MET80      -0.2867
    137  CB        52.7740   50.6550    6.1680 C.3    80  MET80       0.0387
    138  CG        52.2590   50.7040    4.7340 C.3    80  MET80       0.0595
    139  SD        51.6570   49.1030    4.1400 S.3    80  MET80      -0.1393
    140  CE        53.1870   48.2230    3.8870 C.3    80  MET80       0.0692
    141  N         45.2600   31.2640   -4.0440 N.3   103  VAL103     -0.1245
    142  CA        44.7550   32.6210   -3.8720 C.3   103  VAL103      0.1561
    143  C         44.5640   33.1760   -5.2790 C.2   103  VAL103      0.2260
    144  O         45.3750   32.9190   -6.1730 O.2   103  VAL103     -0.2867
    145  CB        45.7220   33.5120   -3.0420 C.3   103  VAL103      0.0252
    146  CG1       47.0520   33.6880   -3.7620 C.3   103  VAL103      0.0019
    147  CG2       45.0640   34.8600   -2.7700 C.3   103  VAL103      0.0019
    148  N         43.0120   36.6370   -7.7900 N.3   105  ARG105     -0.1245
    149  CA        42.5540   38.0160   -7.8870 C.3   105  ARG105      0.1563
    150  C         41.3080   38.1100   -8.7670 C.2   105  ARG105      0.2260
    151  O         41.1710   37.3760   -9.7480 O.2   105  ARG105     -0.2867
    152  CB        43.6300   38.9110   -8.5050 C.3   105  ARG105      0.0307
    153  CG        44.9950   38.9090   -7.8270 C.3   105  ARG105      0.0489
    154  CD        45.7900   40.0950   -8.3590 C.3   105  ARG105      0.2205
    155  NE        47.1660   40.1550   -7.8740 N.pl3 105  ARG105     -0.0865
    156  CZ        48.2210   39.7290   -8.5620 C.cat 105  ARG105      0.5346
    157  NH1       49.4370   39.8290   -8.0410 N.pl3 105  ARG105      0.1354
    158  NH2       48.0620   39.2050   -9.7720 N.pl3 105  ARG105      0.1354
    159  N         39.3160   39.4400   -3.8310 N.3   112  VAL112     -0.1245
    160  CA        40.2570   38.3320   -3.8400 C.3   112  VAL112      0.1561
    161  C         39.5570   37.1080   -3.2630 C.2   112  VAL112      0.2260
    162  O         38.6340   37.2390   -2.4620 O.2   112  VAL112     -0.2867
    163  CB        41.5070   38.6510   -2.9650 C.3   112  VAL112      0.0252
    164  CG1       42.3400   37.3860   -2.7440 C.3   112  VAL112      0.0019
    165  CG2       42.3570   39.7320   -3.6370 C.3   112  VAL112      0.0019
    166  N         44.1950   29.5250    1.4060 N.3   116  TYR116     -0.1241
    167  CA        45.5320   29.1450    1.8790 C.3   116  TYR116      0.1605
    168  C         45.4740   27.9200    2.7740 C.2   116  TYR116      0.2264
    169  O         46.2960   27.0030    2.6380 O.2   116  TYR116     -0.2867
    170  CB        46.2140   30.2770    2.6670 C.3   116  TYR116      0.0534
    171  CG        47.0470   31.2290    1.8340 C.ar  116  TYR116     -0.0201
    172  CD1       46.4760   32.3550    1.2470 C.ar  116  TYR116     -0.0009
    173  CD2       48.4100   30.9980    1.6280 C.ar  116  TYR116     -0.0009
    174  CE1       47.2410   33.2370    0.4690 C.ar  116  TYR116      0.0417
    175  CE2       49.1860   31.8690    0.8530 C.ar  116  TYR116      0.0417
    176  CZ        48.5920   32.9840    0.2780 C.ar  116  TYR116      0.1957
    177  OH        49.3520   33.8340   -0.4910 O.3   116  TYR116     -0.2866
    178  N         42.8720   44.6750    4.3190 N.3   325  TYR325     -0.1241
    179  CA        43.9090   43.8180    3.7650 C.3   325  TYR325      0.1605
    180  C         43.8130   43.8950    2.2440 C.2   325  TYR325      0.2264
    181  O         44.7120   44.4140    1.5860 O.2   325  TYR325     -0.2867
    182  CB        43.7420   42.3720    4.2570 C.3   325  TYR325      0.0534
    183  CG        44.7810   41.3750    3.7570 C.ar  325  TYR325     -0.0201
    184  CD1       44.7860   40.0600    4.2290 C.ar  325  TYR325     -0.0009
    185  CD2       45.7140   41.7190    2.7730 C.ar  325  TYR325     -0.0009
    186  CE1       45.6750   39.1180    3.7360 C.ar  325  TYR325      0.0417
    187  CE2       46.6140   40.7720    2.2660 C.ar  325  TYR325      0.0417
    188  CZ        46.5830   39.4740    2.7510 C.ar  325  TYR325      0.1957
    189  OH        47.4290   38.5160    2.2340 O.3   325  TYR325     -0.2866
    190  N         44.9330   46.8830    0.2850 N.3   328  LEU328     -0.1231
    191  CA        46.3860   47.0090    0.1860 C.3   328  LEU328      0.1693
    192  C         46.9080   46.2250   -1.0130 C.2   328  LEU328      0.2592
    193  O         47.8390   46.6600   -1.6930 O.2   328  LEU328     -0.2718
    194  CB        47.0520   46.4880    1.4650 C.3   328  LEU328      0.0284
    195  CG        48.5850   46.4300    1.4640 C.3   328  LEU328      0.0019
    196  CD1       49.1530   47.8340    1.3600 C.3   328  LEU328      0.0001
    197  CD2       49.0740   45.7480    2.7410 C.3   328  LEU328      0.0001
    198  N         46.2950   45.0750   -1.2810 N.am  329  THR329     -0.1953
    199  CA        46.7200   44.2350   -2.3960 C.3   329  THR329      0.1897
    200  C         46.4890   44.8810   -3.7620 C.2   329  THR329      0.2313
    201  O         47.1350   44.5090   -4.7420 O.2   329  THR329     -0.2863
    202  CB        46.0150   42.8560   -2.3730 C.3   329  THR329      0.1794
    203  OG1       44.6700   42.9840   -2.8500 O.3   329  THR329     -0.2208
    204  CG2       45.9970   42.2930   -0.9540 C.3   329  THR329      0.0378
    205  N         48.2460   49.3040   -2.8500 N.3   332  GLY332     -0.1210
    206  CA        49.5690   49.4620   -2.2710 C.3   332  GLY332      0.1940
    207  C         49.5820   50.2960   -1.0020 C.2   332  GLY332      0.2453
    208  O         48.5380   50.7790   -0.5680 O.2   332  GLY332     -0.2732
    209  N         50.7620   50.4910   -0.3910 N.am  333  PRO333     -0.2728
    210  CA        50.9770   51.2570    0.8420 C.3   333  PRO333      0.1401
    211  C         50.2700   52.6100    0.9640 C.2   333  PRO333      0.2269
    212  O         49.7840   52.9580    2.0410 O.2   333  PRO333     -0.2865
    213  CB        52.4970   51.3910    0.9010 C.3   333  PRO333      0.0296
    214  CG        52.9540   50.1030    0.2940 C.3   333  PRO333      0.0237
    215  CD        52.0460   49.9870   -0.9130 C.3   333  PRO333      0.0939
@<TRIPOS>BOND
     1    40    39    2
     2    39    38    1
     3    29    30    1
     4    13    14    1
     5    32    31    2
     6    38    37    1
     7    38    41    1
     8    31    37   am
     9    31    30    1
    10    30    33    1
    11    41    42    1
    12    16    15    2
    13    14    15    1
    14    14    17    1
    15    24    23    2
    16    23    22    1
    17   158   156    1
    18   151   150    2
    19    15    21   am
    20    44    43    2
    21    21    22    1
    22    33    34    1
    23    42    43    1
    24    19    18    1
    25   150   149    1
    26    17    18    1
    27    22    25    1
    28   156   157    1
    29   156   155    2
    30    43    45   am
    31   152   149    1
    32   152   153    1
    33   154   155    1
    34   154   153    1
    35     4     3    2
    36    35    34    1
    37    18    20    1
    38    34    36    1
    39    52    46    1
    40    52    51    1
    41   149   148    1
    42    25    26    1
    43     3     2    1
    44     1     2    1
    45    46    47    1
    46     2     5    1
    47    51    50    1
    48    26    27    1
    49   144   143    2
    50    47    50    1
    51    47    48    1
    52    74    73    1
    53    57    54    1
    54     5     6    1
    55    27    28    1
    56   143   142    1
    57    53    54    1
    58     7     6   ar
    59     7     9   ar
    60     6     8   ar
    61    54    55    1
    62    48    49    2
    63   201   200    2
    64     9    11   ar
    65     8    10   ar
    66    73    75    1
    67    73    72    1
    68   141   142    1
    69    11    10   ar
    70    11    12    1
    71   142   145    1
    72   160   159    1
    73   160   161    1
    74   160   163    1
    75   200   199    1
    76   146   145    1
    77   165   163    1
    78    72    69    1
    79    55    56    2
    80    55    58   am
    81    91    89   ar
    82    91    90   ar
    83   161   162    2
    84   145   147    1
    85   163   164    1
    86   205   206    1
    87   203   202    1
    88    89    87   ar
    89    90    88   ar
    90    58    59    1
    91   199   202    1
    92   199   198    1
    93   202   204    1
    94   206   207    1
    95    69    68    1
    96    69    70    1
    97   193   192    2
    98    87    86   ar
    99    88    86   ar
   100    59    62    1
   101    59    60    1
   102   198   192   am
   103    70    76   am
   104    70    71    2
   105    86    85    1
   106    76    77    1
   107   192   191    1
   108   207   208    2
   109   207   209   am
   110   215   209    1
   111   215   214    1
   112    62    63    1
   113   119   120    1
   114   119   116    1
   115    60    61    2
   116   177   176    1
   117   209   210    1
   118    80    77    1
   119    77    78    1
   120   120   121    1
   121    85    82    1
   122   191   190    1
   123   191   194    1
   124   121   115    1
   125   116   115    1
   126   116   117    1
   127   176   174   ar
   128   176   175   ar
   129   214   213    1
   130   174   172   ar
   131   105   104    1
   132    63    64   ar
   133    63    65   ar
   134   115   109   am
   135   102   101    2
   136   210   213    1
   137   210   211    1
   138   175   173   ar
   139   211   212    2
   140   103   104    1
   141   103   100    1
   142    78    79    2
   143    64    66   ar
   144   172   171   ar
   145    82    81    1
   146    82    83    1
   147   196   195    1
   148   109   110    2
   149   109   108    1
   150   166   167    1
   151   117   118    2
   152   106   104    1
   153   195   194    1
   154   195   197    1
   155   101   100    1
   156   101   107   am
   157   181   180    2
   158    65    67   ar
   159   173   171   ar
   160   108   107    1
   161   108   111    1
   162   171   170    1
   163   167   170    1
   164   167   168    1
   165   100    99    1
   166   189   188    1
   167   180   179    1
   168   187   188   ar
   169   187   185   ar
   170    66    67   ar
   171    83    92   am
   172    83    84    2
   173   169   168    2
   174   130   128   ar
   175   130   132   ar
   176   188   186   ar
   177   185   183   ar
   178   111   112    1
   179   114   112    1
   180    92    93    1
   181   128   127   ar
   182   132   131   ar
   183    97    96    1
   184   186   184   ar
   185   183   184   ar
   186   183   182    1
   187   179   182    1
   188   179   178    1
   189   112   113    1
   190   140   139    1
   191   139   138    1
   192    93    96    1
   193    93    94    1
   194    96    98    1
   195   138   137    1
   196   131   129   ar
   197   127   129   ar
   198   127   126    1
   199   125   124    2
   200   126   123    1
   201   123   124    1
   202   123   122    1
   203    94    95    2
   204   137   134    1
   205   136   135    2
   206   134   135    1
   207   134   133    1
