@<TRIPOS>MOLECULE
tmp/2wvgD01.pdb
 141 135 0 0 0
SMALL
GASTEIGER

@<TRIPOS>ATOM
      1  N          0.9480   10.1390  -13.9800 N.3    81  ASP81      -0.1239
      2  CA         2.3030   10.4710  -14.4220 C.3    81  ASP81       0.1674
      3  C          2.5050   11.9800  -14.2890 C.2    81  ASP81       0.2266
      4  O          3.5090   12.4490  -13.7460 O.2    81  ASP81      -0.2867
      5  CB         2.5250   10.0010  -15.8620 C.3    81  ASP81       0.1410
      6  CG         3.9930    9.7910  -16.1990 C.2    81  ASP81       0.3668
      7  OD1        4.8580   10.4340  -15.5700 O.co2  81  ASP81      -0.2456
      8  OD2        4.2850    8.9910  -17.1170 O.co2  81  ASP81      -0.2456
      9  N         13.2340   18.9940  -21.6240 N.3   387  THR387     -0.1203
     10  CA        14.3260   18.0570  -21.4080 C.3   387  THR387      0.1994
     11  C         14.9590   17.6890  -22.7450 C.2   387  THR387      0.2618
     12  O         14.2590   17.3010  -23.6880 O.2   387  THR387     -0.2717
     13  CB        13.8150   16.7680  -20.7550 C.3   387  THR387      0.1784
     14  OG1       13.3480   17.0710  -19.4390 O.3   387  THR387     -0.2211
     15  CG2       14.9260   15.7290  -20.6670 C.3   387  THR387      0.0376
     16  N         16.2810   17.7980  -22.8100 N.am  388  GLY388     -0.1942
     17  CA        17.0180   17.6040  -24.0460 C.3   388  GLY388      0.2014
     18  C         18.0790   18.6840  -24.1350 C.2   388  GLY388      0.2639
     19  O         18.3450   19.3780  -23.1580 O.2   388  GLY388     -0.2714
     20  N         18.6910   18.8610  -25.3000 N.am  389  ASP389     -0.1957
     21  CA        19.6820   19.9280  -25.4050 C.3   389  ASP389      0.1840
     22  C         19.0670   21.3090  -25.1500 C.2   389  ASP389      0.2622
     23  O         19.7830   22.2560  -24.8120 O.2   389  ASP389     -0.2715
     24  CB        20.4110   19.9060  -26.7480 C.3   389  ASP389      0.1450
     25  CG        21.7340   20.6540  -26.6990 C.2   389  ASP389      0.3671
     26  OD1       22.3660   20.6700  -25.6220 O.co2 389  ASP389     -0.2456
     27  OD2       22.1450   21.2210  -27.7320 O.co2 389  ASP389     -0.2456
     28  N         17.7500   21.4240  -25.3040 N.am  390  SER390     -0.1950
     29  CA        17.0660   22.6800  -24.9850 C.3   390  SER390      0.1924
     30  C         17.3120   23.1510  -23.5490 C.2   390  SER390      0.2314
     31  O         17.3180   24.3560  -23.2990 O.2   390  SER390     -0.2863
     32  CB        15.5610   22.5800  -25.2680 C.3   390  SER390      0.2116
     33  OG        15.3190   22.5100  -26.6660 O.3   390  SER390     -0.2180
     34  N         11.3920   15.5350  -15.2640 N.3   412  GLY412     -0.1210
     35  CA        12.0610   15.3390  -16.5480 C.3   412  GLY412      0.1956
     36  C         11.3760   14.3970  -17.5300 C.2   412  GLY412      0.2612
     37  O         12.0170   13.5580  -18.1680 O.2   412  GLY412     -0.2717
     38  N         10.0620   14.5400  -17.6510 N.am  413  HIS413     -0.1961
     39  CA         9.2510   13.7390  -18.5560 C.3   413  HIS413      0.1787
     40  C          9.2550   14.4000  -19.9430 C.2   413  HIS413      0.2620
     41  O          8.6490   15.4420  -20.1140 O.2   413  HIS413     -0.2715
     42  CB         7.8230   13.7030  -18.0170 C.3   413  HIS413      0.0785
     43  CG         6.9070   12.7790  -18.7580 C.ar  413  HIS413      0.0821
     44  ND1        6.5880   12.9520  -20.0870 N.ar  413  HIS413     -0.2267
     45  CD2        6.2090   11.6940  -18.3390 C.ar  413  HIS413      0.1154
     46  CE1        5.7520   11.9960  -20.4630 C.ar  413  HIS413      0.1986
     47  NE2        5.5080   11.2230  -19.4210 N.ar  413  HIS413     -0.2212
     48  N          9.9320   13.8130  -20.9280 N.am  414  ILE414     -0.1977
     49  CA         9.9350   14.4390  -22.2570 C.3   414  ILE414      0.1596
     50  C          8.5040   14.5310  -22.7710 C.2   414  ILE414      0.2287
     51  O          7.6790   13.6640  -22.4950 O.2   414  ILE414     -0.2864
     52  CB        10.8560   13.7320  -23.2940 C.3   414  ILE414      0.0276
     53  CG1       10.4300   12.2820  -23.5400 C.3   414  ILE414      0.0022
     54  CG2       12.3180   13.8400  -22.8680 C.3   414  ILE414      0.0022
     55  CD1       11.1450   11.6610  -24.7350 C.3   414  ILE414      0.0001
     56  N         12.4660   19.6970  -28.5050 N.3   438  GLY438     -0.1210
     57  CA        13.1320   18.8060  -29.4400 C.3   438  GLY438      0.1956
     58  C         12.1480   17.9430  -30.1960 C.2   438  GLY438      0.2612
     59  O         11.0140   17.7530  -29.7560 O.2   438  GLY438     -0.2717
     60  N         12.5780   17.4110  -31.3410 N.am  439  ASP439     -0.1959
     61  CA        11.6950   16.5800  -32.1610 C.3   439  ASP439      0.1840
     62  C         11.2540   15.2970  -31.4300 C.2   439  ASP439      0.2623
     63  O         10.1040   14.8650  -31.5480 O.2   439  ASP439     -0.2715
     64  CB        12.3550   16.2260  -33.5090 C.3   439  ASP439      0.1450
     65  CG        13.6990   15.5290  -33.3500 C.2   439  ASP439      0.3671
     66  OD1       14.4770   15.8970  -32.4470 O.co2 439  ASP439     -0.2456
     67  OD2       13.9980   14.6180  -34.1450 O.co2 439  ASP439     -0.2456
     68  N         12.1580   14.6980  -30.6690 N.am  440  GLY440     -0.1940
     69  CA        11.8040   13.4930  -29.9210 C.3   440  GLY440      0.2014
     70  C         10.7170   13.7310  -28.8830 C.2   440  GLY440      0.2639
     71  O          9.7510   12.9570  -28.7780 O.2   440  GLY440     -0.2714
     72  N         10.8760   14.8030  -28.1110 N.am  441  SER441     -0.1949
     73  CA         9.9140   15.1560  -27.0660 C.3   441  SER441      0.1924
     74  C          8.5720   15.5270  -27.6850 C.2   441  SER441      0.2314
     75  O          7.5170   15.1500  -27.1910 O.2   441  SER441     -0.2863
     76  CB        10.4330   16.3320  -26.2370 C.3   441  SER441      0.2116
     77  OG        11.6060   15.9770  -25.5290 O.3   441  SER441     -0.2180
     78  N          5.7450   12.9610  -28.2950 N.3   444  LEU444     -0.1245
     79  CA         4.9960   12.3080  -27.2140 C.3   444  LEU444      0.1561
     80  C          3.6510   12.9630  -26.9620 C.2   444  LEU444      0.2260
     81  O          2.7100   12.2960  -26.5320 O.2   444  LEU444     -0.2867
     82  CB         5.7840   12.2720  -25.9020 C.3   444  LEU444      0.0270
     83  CG         6.8120   11.1600  -25.7220 C.3   444  LEU444      0.0019
     84  CD1        8.1310   11.5940  -26.3270 C.3   444  LEU444      0.0001
     85  CD2        6.9780   10.8230  -24.2570 C.3   444  LEU444      0.0001
     86  N         13.2020   21.8960  -32.5840 N.3   464  ILE464     -0.1245
     87  CA        14.5700   21.6240  -32.9940 C.3   464  ILE464      0.1561
     88  C         14.6680   20.2260  -33.5950 C.2   464  ILE464      0.2260
     89  O         14.6770   19.2220  -32.8750 O.2   464  ILE464     -0.2867
     90  CB        15.5480   21.7480  -31.8150 C.3   464  ILE464      0.0252
     91  CG1       15.2530   23.0130  -31.0030 C.3   464  ILE464      0.0019
     92  CG2       16.9830   21.7230  -32.3220 C.3   464  ILE464      0.0019
     93  CD1       15.3510   24.2880  -31.8140 C.3   464  ILE464      0.0001
     94  N         16.7510   17.6230  -35.0220 N.3   466  ASN466     -0.1240
     95  CA        18.0530   17.0170  -35.2750 C.3   466  ASN466      0.1653
     96  C         17.9220   15.5150  -35.4850 C.2   466  ASN466      0.2266
     97  O         18.8900   14.7750  -35.3420 O.2   466  ASN466     -0.2867
     98  CB        19.0490   17.3390  -34.1520 C.3   466  ASN466      0.1155
     99  CG        18.5460   16.9070  -32.7940 C.2   466  ASN466      0.2627
    100  OD1       17.6000   16.1320  -32.7140 O.2   466  ASN466     -0.2716
    101  ND2       19.1600   17.4090  -31.7270 N.am  466  ASN466     -0.0877
    102  N         16.2690   12.7340  -33.9520 N.3   468  GLY468     -0.1210
    103  CA        16.5200   11.7300  -32.9240 C.3   468  GLY468      0.1956
    104  C         16.7750   12.2830  -31.5330 C.2   468  GLY468      0.2612
    105  O         16.6470   13.4850  -31.3160 O.2   468  GLY468     -0.2717
    106  N         17.1470   11.4030  -30.6050 N.am  469  TYR469     -0.1962
    107  CA        17.3160   11.7440  -29.1880 C.3   469  TYR469      0.1771
    108  C         18.7510   12.1440  -28.8220 C.2   469  TYR469      0.2620
    109  O         19.5170   11.3240  -28.3010 O.2   469  TYR469     -0.2715
    110  CB        16.9620   10.5340  -28.3290 C.3   469  TYR469      0.0574
    111  CG        15.5490   10.0020  -28.4280 C.ar  469  TYR469     -0.0198
    112  CD1       14.4880   10.8170  -28.7820 C.ar  469  TYR469     -0.0009
    113  CD2       15.2770    8.6830  -28.0840 C.ar  469  TYR469     -0.0009
    114  CE1       13.1860   10.3150  -28.8320 C.ar  469  TYR469      0.0417
    115  CE2       13.9880    8.1750  -28.1250 C.ar  469  TYR469      0.0417
    116  CZ        12.9510    8.9880  -28.4990 C.ar  469  TYR469      0.1957
    117  OH        11.6760    8.4750  -28.5400 O.3   469  TYR469     -0.2866
    118  N         19.1210   13.3970  -29.0530 N.am  470  THR470     -0.1937
    119  CA        20.5190   13.7860  -28.8660 C.3   470  THR470      0.2028
    120  C         21.0110   13.7010  -27.4190 C.2   470  THR470      0.2642
    121  O         22.1240   13.2450  -27.1760 O.2   470  THR470     -0.2714
    122  CB        20.8130   15.1630  -29.4910 C.3   470  THR470      0.1808
    123  OG1       20.7460   15.0360  -30.9130 O.3   470  THR470     -0.2208
    124  CG2       22.2100   15.6650  -29.1030 C.3   470  THR470      0.0379
    125  N         20.1960   14.1220  -26.4560 N.am  471  ILE471     -0.1963
    126  CA        20.6220   14.0180  -25.0640 C.3   471  ILE471      0.1727
    127  C         20.9650   12.5660  -24.6830 C.2   471  ILE471      0.2616
    128  O         21.9480   12.3340  -23.9820 O.2   471  ILE471     -0.2715
    129  CB        19.6220   14.6770  -24.0660 C.3   471  ILE471      0.0290
    130  CG1       20.1950   14.6570  -22.6410 C.3   471  ILE471      0.0022
    131  CG2       18.2570   14.0190  -24.1500 C.3   471  ILE471      0.0023
    132  CD1       19.3680   15.4450  -21.6150 C.3   471  ILE471      0.0001
    133  N         20.1800   11.5950  -25.1610 N.am  472  GLU472     -0.1977
    134  CA        20.4670   10.1800  -24.8980 C.3   472  GLU472      0.1602
    135  C         21.7100    9.7130  -25.6590 C.2   472  GLU472      0.2287
    136  O         22.4930    8.9090  -25.1620 O.2   472  GLU472     -0.2864
    137  CB        19.2750    9.2820  -25.2650 C.3   472  GLU472      0.0415
    138  CG        17.9870    9.6240  -24.5490 C.3   472  GLU472      0.1163
    139  CD        18.0500    9.3270  -23.0610 C.2   472  GLU472      0.3649
    140  OE1       17.2750    8.4660  -22.5980 O.co2 472  GLU472     -0.2457
    141  OE2       18.8740    9.9460  -22.3570 O.co2 472  GLU472     -0.2457
@<TRIPOS>BOND
     1    96    97    2
     2    96    95    1
     3    95    94    1
     4    95    98    1
     5    98    99    1
     6    67    65   ar
     7   102   103    1
     8    88    87    1
     9    88    89    2
    10    64    65    1
    11    64    61    1
    12    65    66   ar
    13    87    86    1
    14    87    90    1
    15   103   104    1
    16    99   100    2
    17    99   101   am
    18    92    90    1
    19    61    62    1
    20    61    60    1
    21    90    91    1
    22    93    91    1
    23    63    62    2
    24   104   105    2
    25   104   106   am
    26    62    68   am
    27    60    58   am
    28   123   122    1
    29    68    69    1
    30   106   107    1
    31    58    59    2
    32    58    57    1
    33    69    70    1
    34   122   124    1
    35   122   119    1
    36    57    56    1
    37   107   108    1
    38   107   110    1
    39   118   119    1
    40   118   108   am
    41    70    71    2
    42    70    72   am
    43   119   120    1
    44   114   112   ar
    45   114   116   ar
    46   108   109    2
    47   112   111   ar
    48   117   116    1
    49   116   115   ar
    50   111   110    1
    51   111   113   ar
    52    78    79    1
    53   115   113   ar
    54    72    73    1
    55    27    25   ar
    56    74    75    2
    57    74    73    1
    58   120   121    2
    59   120   125   am
    60    79    80    1
    61    79    82    1
    62    73    76    1
    63    80    81    2
    64    24    25    1
    65    24    21    1
    66    25    26   ar
    67    33    32    1
    68   125   126    1
    69    84    83    1
    70    76    77    1
    71    82    83    1
    72    83    85    1
    73   135   136    2
    74   135   134    1
    75    21    20    1
    76    21    22    1
    77    28    22   am
    78    28    29    1
    79    20    18   am
    80    32    29    1
    81   137   134    1
    82   137   138    1
    83   133   134    1
    84   133   127   am
    85    22    23    2
    86   126   127    1
    87   126   129    1
    88    29    30    1
    89    55    53    1
    90   127   128    2
    91   138   139    1
    92   131   129    1
    93    18    17    1
    94    18    19    2
    95   129   130    1
    96    17    16    1
    97    12    11    2
    98    30    31    2
    99    53    52    1
   100    52    54    1
   101    52    49    1
   102   139   140   ar
   103   139   141   ar
   104    16    11   am
   105    50    51    2
   106    50    49    1
   107    11    10    1
   108   130   132    1
   109    49    48    1
   110     9    10    1
   111    10    13    1
   112    48    40   am
   113    13    15    1
   114    13    14    1
   115    46    44   ar
   116    46    47   ar
   117    41    40    2
   118    44    43   ar
   119    40    39    1
   120    47    45   ar
   121    43    45   ar
   122    43    42    1
   123    39    42    1
   124    39    38    1
   125    37    36    2
   126    38    36   am
   127    36    35    1
   128     8     6   ar
   129    35    34    1
   130     6     5    1
   131     6     7   ar
   132     5     2    1
   133     2     3    1
   134     2     1    1
   135     3     4    2
