@<TRIPOS>MOLECULE
tmp/2wvmA00.pdb
 221 212 0 0 0
SMALL
GASTEIGER

@<TRIPOS>ATOM
      1  N        -22.0850   -2.0850  -32.7760 N.3    60  PRO60      -0.2102
      2  CA       -22.7920   -0.9400  -33.3810 C.3    60  PRO60       0.1504
      3  C        -21.8370    0.0820  -33.9960 C.2    60  PRO60       0.2576
      4  O        -20.8200    0.4400  -33.3760 O.2    60  PRO60      -0.2718
      5  CB       -23.5380   -0.3180  -32.2030 C.3    60  PRO60       0.0282
      6  CG       -22.9500   -0.8900  -30.9970 C.3    60  PRO60       0.0208
      7  CD       -22.2090   -2.1290  -31.3150 C.3    60  PRO60       0.0893
      8  N        -22.1560    0.5530  -35.2020 N.am   61  THR61      -0.1939
      9  CA       -21.2870    1.5390  -35.8860 C.3    61  THR61       0.2028
     10  C        -21.9910    2.6230  -36.7120 C.2    61  THR61       0.2642
     11  O        -22.9220    2.3410  -37.4590 O.2    61  THR61      -0.2714
     12  CB       -20.1870    0.8640  -36.7660 C.3    61  THR61       0.1808
     13  OG1      -19.3160    1.8830  -37.3020 O.3    61  THR61      -0.2208
     14  CG2      -20.8160    0.0430  -37.9140 C.3    61  THR61       0.0379
     15  N        -21.5170    3.8570  -36.5740 N.am   62  ARG62      -0.1977
     16  CA       -21.9660    4.9770  -37.4030 C.3    62  ARG62       0.1597
     17  C        -20.7330    5.8020  -37.7170 C.2    62  ARG62       0.2287
     18  O        -20.2030    6.4710  -36.8340 O.2    62  ARG62      -0.2864
     19  CB       -22.9920    5.8500  -36.6780 C.3    62  ARG62       0.0334
     20  CG       -23.3740    7.0870  -37.4730 C.3    62  ARG62       0.0492
     21  CD       -23.7550    8.2780  -36.5960 C.3    62  ARG62       0.2205
     22  NE       -25.2050    8.4800  -36.5210 N.pl3  62  ARG62      -0.0865
     23  CZ       -25.8910    9.4260  -37.1710 C.cat  62  ARG62       0.5346
     24  NH1      -27.2070    9.4920  -37.0230 N.pl3  62  ARG62       0.1354
     25  NH2      -25.2840   10.3120  -37.9560 N.pl3  62  ARG62       0.1354
     26  N        -17.4920    5.1470  -38.1400 N.3    64  GLU64      -0.1245
     27  CA       -16.2780    4.8650  -37.3450 C.3    64  GLU64       0.1567
     28  C        -15.1100    4.6090  -38.3000 C.2    64  GLU64       0.2260
     29  O        -15.3450    4.1160  -39.3930 O.2    64  GLU64      -0.2867
     30  CB       -16.5420    3.6230  -36.4860 C.3    64  GLU64       0.0388
     31  CG       -16.1650    3.7400  -34.9950 C.3    64  GLU64       0.1160
     32  CD       -16.5540    5.0900  -34.3550 C.2    64  GLU64       0.3649
     33  OE1      -17.6700    5.2430  -33.7980 O.co2  64  GLU64      -0.2457
     34  OE2      -15.7010    5.9990  -34.3970 O.co2  64  GLU64      -0.2457
     35  N        -24.0810   -3.8580  -36.6470 N.3    85  ALA85      -0.1231
     36  CA       -25.2520   -3.0080  -36.7920 C.3    85  ALA85       0.1694
     37  C        -24.7580   -1.6530  -37.2590 C.2    85  ALA85       0.2593
     38  O        -24.1330   -0.9170  -36.4760 O.2    85  ALA85      -0.2718
     39  CB       -25.9880   -2.8780  -35.4620 C.3    85  ALA85       0.0304
     40  N        -25.0180   -1.3290  -38.5210 N.am   86  SER86      -0.1938
     41  CA       -24.4610   -0.1160  -39.0970 C.3    86  SER86       0.2055
     42  C        -25.4750    0.9730  -39.3480 C.2    86  SER86       0.2643
     43  O        -26.6140    0.6990  -39.7100 O.2    86  SER86      -0.2714
     44  CB       -23.7680   -0.4020  -40.4230 C.3    86  SER86       0.2130
     45  OG       -23.4660    0.8230  -41.0890 O.3    86  SER86      -0.2179
     46  N        -25.0260    2.2160  -39.2120 N.am   87  ASN87      -0.1971
     47  CA       -25.8310    3.3680  -39.5530 C.3    87  ASN87       0.1688
     48  C        -24.9860    4.4590  -40.1800 C.2    87  ASN87       0.2292
     49  O        -25.1890    5.6410  -39.9180 O.2    87  ASN87      -0.2864
     50  CB       -26.5330    3.9060  -38.3120 C.3    87  ASN87       0.1181
     51  CG       -27.5860    4.9250  -38.6500 C.2    87  ASN87       0.2629
     52  OD1      -27.7410    5.9420  -37.9700 O.2    87  ASN87      -0.2716
     53  ND2      -28.3090    4.6760  -39.7300 N.am   87  ASN87      -0.0877
     54  N        -29.0500    0.0460  -40.4280 N.3   116  GLN116     -0.1245
     55  CA       -30.1730    0.6130  -39.6930 C.3   116  GLN116      0.1566
     56  C        -31.3200    1.1440  -40.5780 C.2   116  GLN116      0.2260
     57  O        -32.4840    0.9920  -40.2220 O.2   116  GLN116     -0.2867
     58  CB       -29.6460    1.7160  -38.7790 C.3   116  GLN116      0.0367
     59  CG       -30.5950    2.1570  -37.7060 C.3   116  GLN116      0.0905
     60  CD       -29.8840    2.7570  -36.4990 C.2   116  GLN116      0.2608
     61  OE1      -28.7440    2.3940  -36.1810 O.2   116  GLN116     -0.2717
     62  NE2      -30.5750    3.6650  -35.8000 N.am  116  GLN116     -0.0878
     63  N        -32.7610    7.0730  -36.3310 N.3   142  SER142     -0.1202
     64  CA       -31.3360    7.0010  -35.9710 C.3   142  SER142      0.2020
     65  C        -31.1680    7.0180  -34.4590 C.2   142  SER142      0.2619
     66  O        -31.8790    7.7210  -33.7460 O.2   142  SER142     -0.2717
     67  CB       -30.5300    8.1330  -36.5950 C.3   142  SER142      0.2103
     68  OG       -30.8870    8.3070  -37.9520 O.3   142  SER142     -0.2182
     69  N        -30.2170    6.2310  -33.9840 N.am  143  GLY143     -0.1942
     70  CA       -29.9580    6.0850  -32.5630 C.3   143  GLY143      0.2014
     71  C        -29.2190    4.7740  -32.4140 C.2   143  GLY143      0.2638
     72  O        -29.3150    3.9000  -33.2840 O.2   143  GLY143     -0.2714
     73  N        -28.4630    4.6370  -31.3340 N.am  144  LYS144     -0.1977
     74  CA       -27.7770    3.3850  -31.0720 C.3   144  LYS144      0.1596
     75  C        -28.8350    2.3590  -30.6670 C.2   144  LYS144      0.2287
     76  O        -28.8500    1.2260  -31.1730 O.2   144  LYS144     -0.2864
     77  CB       -26.7260    3.5650  -29.9650 C.3   144  LYS144      0.0298
     78  CG       -25.8180    2.3620  -29.7120 C.3   144  LYS144      0.0038
     79  CD       -25.2300    2.4070  -28.3120 C.3   144  LYS144      0.0206
     80  CE       -23.9490    1.5620  -28.1710 C.3   144  LYS144      0.1093
     81  NZ       -23.5740    1.3500  -26.7240 N.3   144  LYS144     -0.1314
     82  N        -30.5600    0.6080  -33.5210 N.3   147  GLY147     -0.1225
     83  CA       -29.7190   -0.4420  -34.0870 C.3   147  GLY147      0.1811
     84  C        -29.7020   -1.6970  -33.2170 C.2   147  GLY147      0.2280
     85  O        -29.6770   -2.8230  -33.7310 O.2   147  GLY147     -0.2866
     86  N        -18.6470   -1.5290  -28.2690 N.3   167  ASP167     -0.1225
     87  CA       -18.5500   -0.3100  -29.0820 C.3   167  ASP167      0.1805
     88  C        -17.4120   -0.4250  -30.0610 C.2   167  ASP167      0.2598
     89  O        -16.4030   -1.0740  -29.7680 O.2   167  ASP167     -0.2718
     90  CB       -18.3290    0.9030  -28.2090 C.3   167  ASP167      0.1424
     91  CG       -19.6130    1.4090  -27.6070 C.2   167  ASP167      0.3668
     92  OD1      -19.6220    2.5940  -27.1570 O.co2 167  ASP167     -0.2456
     93  OD2      -20.6170    0.6340  -27.5960 O.co2 167  ASP167     -0.2456
     94  N        -17.5560    0.2090  -31.2130 N.am  168  ALA168     -0.1966
     95  CA       -16.5830    0.0590  -32.2810 C.3   168  ALA168      0.1728
     96  C        -15.4430    1.0680  -32.1780 C.2   168  ALA168      0.2616
     97  O        -14.4630    0.9770  -32.9420 O.2   168  ALA168     -0.2715
     98  CB       -17.2690    0.1560  -33.6290 C.3   168  ALA168      0.0334
     99  N        -15.5700    2.0210  -31.2450 N.am  169  ASP169     -0.1971
    100  CA       -14.5120    2.9930  -31.0290 C.3   169  ASP169      0.1709
    101  C        -13.3230    2.5320  -30.1550 C.2   169  ASP169      0.2293
    102  O        -12.5650    3.3380  -29.6830 O.2   169  ASP169     -0.2864
    103  CB       -15.0330    4.4230  -30.6910 C.3   169  ASP169      0.1436
    104  CG       -16.0600    4.4970  -29.5360 C.2   169  ASP169      0.3671
    105  OD1      -16.1810    3.5750  -28.7140 O.co2 169  ASP169     -0.2456
    106  OD2      -16.7570    5.5460  -29.4380 O.co2 169  ASP169     -0.2456
    107  N        -15.6170   13.1580  -16.4660 N.3   208  TYR208     -0.1241
    108  CA       -16.4890   11.9850  -16.7350 C.3   208  TYR208      0.1605
    109  C        -16.7660   11.1540  -15.4620 C.2   208  TYR208      0.2264
    110  O        -17.8590   10.6210  -15.2780 O.2   208  TYR208     -0.2867
    111  CB       -15.8990   11.0930  -17.8580 C.3   208  TYR208      0.0534
    112  CG       -16.5930    9.7420  -18.0800 C.ar  208  TYR208     -0.0201
    113  CD1      -17.6640    9.6130  -18.9770 C.ar  208  TYR208     -0.0009
    114  CD2      -16.1590    8.5880  -17.4110 C.ar  208  TYR208     -0.0009
    115  CE1      -18.3070    8.3660  -19.1900 C.ar  208  TYR208      0.0417
    116  CE2      -16.7900    7.3280  -17.6200 C.ar  208  TYR208      0.0417
    117  CZ       -17.8660    7.2300  -18.5090 C.ar  208  TYR208      0.1957
    118  OH       -18.4820    6.0040  -18.7060 O.3   208  TYR208     -0.2866
    119  N        -24.0870    3.4190  -16.4810 N.3   238  ASN238     -0.1225
    120  CA       -23.7100    3.3810  -17.8710 C.3   238  ASN238      0.1785
    121  C        -22.8070    2.1970  -18.0520 C.2   238  ASN238      0.2597
    122  O        -21.9510    1.9210  -17.1880 O.2   238  ASN238     -0.2718
    123  CB       -22.9890    4.6570  -18.2390 C.3   238  ASN238      0.1169
    124  CG       -23.8100    5.8760  -17.9240 C.2   238  ASN238      0.2627
    125  OD1      -24.7840    6.1900  -18.6200 O.2   238  ASN238     -0.2716
    126  ND2      -23.4460    6.5580  -16.8460 N.am  238  ASN238     -0.0877
    127  N        -23.0190    1.4600  -19.1350 N.am  239  ALA239     -0.1966
    128  CA       -22.1880    0.3030  -19.4270 C.3   239  ALA239      0.1728
    129  C        -22.4070   -0.0220  -20.8900 C.2   239  ALA239      0.2617
    130  O        -23.2370   -0.8860  -21.2590 O.2   239  ALA239     -0.2715
    131  CB       -22.5330   -0.8620  -18.5280 C.3   239  ALA239      0.0334
    132  N        -21.6950    0.7240  -21.7350 N.am  240  GLY240     -0.1940
    133  CA       -21.7200    0.4780  -23.1710 C.3   240  GLY240      0.2014
    134  C        -21.4370   -0.9950  -23.4300 C.2   240  GLY240      0.2638
    135  O        -22.1110   -1.6400  -24.2220 O.2   240  GLY240     -0.2714
    136  N        -20.4360   -1.5260  -22.7460 N.am  241  GLU241     -0.1977
    137  CA       -20.0780   -2.9000  -22.8980 C.3   241  GLU241      0.1602
    138  C        -20.8840   -3.6560  -21.8360 C.2   241  GLU241      0.2287
    139  O        -20.5210   -3.7090  -20.6670 O.2   241  GLU241     -0.2864
    140  CB       -18.5710   -3.0520  -22.6730 C.3   241  GLU241      0.0415
    141  CG       -17.6040   -2.7090  -23.8400 C.3   241  GLU241      0.1163
    142  CD       -17.6510   -1.2730  -24.3980 C.2   241  GLU241      0.3649
    143  OE1      -17.6370   -0.2770  -23.6570 O.co2 241  GLU241     -0.2457
    144  OE2      -17.6680   -1.1420  -25.6380 O.co2 241  GLU241     -0.2457
    145  N        -31.6950    7.0460  -25.7250 N.3   257  GLY257     -0.1210
    146  CA       -30.4770    7.8420  -25.8840 C.3   257  GLY257      0.1956
    147  C        -29.2980    7.3080  -25.1130 C.2   257  GLY257      0.2611
    148  O        -28.8720    6.1890  -25.3100 O.2   257  GLY257     -0.2717
    149  N        -28.7580    8.1500  -24.2460 N.am  258  TYR258     -0.1976
    150  CA       -27.8930    7.7130  -23.1830 C.3   258  TYR258      0.1639
    151  C        -28.7890    7.2880  -22.0220 C.2   258  TYR258      0.2290
    152  O        -28.3370    7.2080  -20.8920 O.2   258  TYR258     -0.2864
    153  CB       -26.9930    8.8570  -22.7310 C.3   258  TYR258      0.0560
    154  CG       -25.8870    9.2480  -23.6930 C.ar  258  TYR258     -0.0198
    155  CD1      -24.6950    8.5330  -23.7300 C.ar  258  TYR258     -0.0009
    156  CD2      -26.0070   10.3680  -24.5340 C.ar  258  TYR258     -0.0009
    157  CE1      -23.6510    8.8930  -24.5990 C.ar  258  TYR258      0.0417
    158  CE2      -24.9600   10.7320  -25.4130 C.ar  258  TYR258      0.0417
    159  CZ       -23.7840    9.9820  -25.4350 C.ar  258  TYR258      0.1957
    160  OH       -22.7240   10.2980  -26.2640 O.3   258  TYR258     -0.2866
    161  N        -30.5780    4.4030  -22.4600 N.3   260  VAL260     -0.1231
    162  CA       -30.6320    2.9530  -22.6700 C.3   260  VAL260      0.1692
    163  C        -30.0260    2.1390  -21.5240 C.2   260  VAL260      0.2591
    164  O        -30.7520    1.4010  -20.8700 O.2   260  VAL260     -0.2718
    165  CB       -30.1010    2.5220  -24.0770 C.3   260  VAL260      0.0266
    166  CG1      -28.6760    2.9940  -24.3080 C.3   260  VAL260      0.0020
    167  CG2      -30.2080    1.0280  -24.2570 C.3   260  VAL260      0.0020
    168  N        -28.7350    2.2950  -21.2460 N.am  261  GLU261     -0.1979
    169  CA       -28.1200    1.4530  -20.2190 C.3   261  GLU261      0.1602
    170  C        -28.7320    1.5670  -18.8270 C.2   261  GLU261      0.2287
    171  O        -29.0000    0.5350  -18.2110 O.2   261  GLU261     -0.2864
    172  CB       -26.6230    1.6630  -20.1140 C.3   261  GLU261      0.0415
    173  CG       -25.8760    1.0330  -21.2120 C.3   261  GLU261      0.1163
    174  CD       -25.2420    2.0560  -22.1000 C.2   261  GLU261      0.3649
    175  OE1      -24.4720    2.8770  -21.5440 O.co2 261  GLU261     -0.2457
    176  OE2      -25.4920    2.0240  -23.3360 O.co2 261  GLU261     -0.2457
    177  N        -11.0370    4.6590  -25.8710 N.3   301  HIS301     -0.1226
    178  CA       -11.8770    4.8760  -26.9890 C.3   301  HIS301      0.1752
    179  C        -11.3570    6.0910  -27.7020 C.2   301  HIS301      0.2596
    180  O        -10.4680    6.7760  -27.2010 O.2   301  HIS301     -0.2718
    181  CB       -13.3440    4.9280  -26.5580 C.3   301  HIS301      0.0759
    182  CG       -13.7970    3.6530  -25.9080 C.ar  301  HIS301      0.0818
    183  ND1      -14.5920    2.7280  -26.5470 N.ar  301  HIS301     -0.2268
    184  CD2      -13.5210    3.1260  -24.6910 C.ar  301  HIS301      0.1154
    185  CE1      -14.8070    1.6970  -25.7470 C.ar  301  HIS301      0.1986
    186  NE2      -14.1600    1.9110  -24.6170 N.ar  301  HIS301     -0.2212
    187  N        -11.8310    6.2720  -28.9240 N.am  302  GLU302     -0.1965
    188  CA       -11.6010    7.4650  -29.6760 C.3   302  GLU302      0.1733
    189  C        -12.7820    8.3980  -29.4160 C.2   302  GLU302      0.2616
    190  O        -13.9660    8.0180  -29.6030 O.2   302  GLU302     -0.2715
    191  CB       -11.5410    7.1050  -31.1430 C.3   302  GLU302      0.0429
    192  CG       -10.8930    8.1620  -32.0080 C.3   302  GLU302      0.1163
    193  CD       -10.9560    7.8000  -33.4690 C.2   302  GLU302      0.3649
    194  OE1      -12.0600    7.4260  -33.9240 O.co2 302  GLU302     -0.2457
    195  OE2       -9.9100    7.8730  -34.1490 O.co2 302  GLU302     -0.2457
    196  N        -12.4670    9.6110  -28.9640 N.am  303  ASN303     -0.1972
    197  CA       -13.4980   10.6320  -28.8080 C.3   303  ASN303      0.1688
    198  C        -13.2210   11.8150  -29.7290 C.2   303  ASN303      0.2292
    199  O        -12.0640   12.0620  -30.0870 O.2   303  ASN303     -0.2864
    200  CB       -13.6180   11.0290  -27.3380 C.3   303  ASN303      0.1181
    201  CG       -13.5060    9.8100  -26.3880 C.2   303  ASN303      0.2629
    202  OD1      -14.2150    8.7720  -26.5360 O.2   303  ASN303     -0.2716
    203  ND2      -12.5980    9.9300  -25.4150 N.am  303  ASN303     -0.0877
    204  N        -21.1470   15.7240  -24.9060 N.3   308  HIS308     -0.1241
    205  CA       -22.0530   14.6190  -24.5660 C.3   308  HIS308      0.1621
    206  C        -22.0090   14.1830  -23.0980 C.2   308  HIS308      0.2264
    207  O        -22.7970   13.3220  -22.6600 O.2   308  HIS308     -0.2867
    208  CB       -21.7730   13.4290  -25.4910 C.3   308  HIS308      0.0745
    209  CG       -21.8390   13.7750  -26.9470 C.ar  308  HIS308      0.0817
    210  ND1      -20.8770   13.3770  -27.8530 N.ar  308  HIS308     -0.2268
    211  CD2      -22.7400   14.5100  -27.6480 C.ar  308  HIS308      0.1154
    212  CE1      -21.1920   13.8370  -29.0530 C.ar  308  HIS308      0.1986
    213  NE2      -22.3140   14.5320  -28.9540 N.ar  308  HIS308     -0.2212
    214  N        -25.3730   12.9610  -20.8630 N.3   312  MET312     -0.1245
    215  CA       -25.6120   11.6560  -20.2840 C.3   312  MET312      0.1570
    216  C        -25.8640   11.6820  -18.7920 C.2   312  MET312      0.2261
    217  O        -26.5450   10.8050  -18.2660 O.2   312  MET312     -0.2867
    218  CB       -24.5480   10.6360  -20.6810 C.3   312  MET312      0.0387
    219  CG       -23.1660   10.8480  -20.1450 C.3   312  MET312      0.0595
    220  SD       -22.2230    9.4040  -20.6780 S.3   312  MET312     -0.1393
    221  CE       -21.3650   10.0420  -22.1350 C.3   312  MET312      0.0692
@<TRIPOS>BOND
     1    45    44    1
     2    56    57    2
     3    56    55    1
     4    54    55    1
     5    44    41    1
     6    48    49    2
     7    48    47    1
     8    53    51   am
     9    43    42    2
    10    55    58    1
    11    47    46    1
    12    47    50    1
    13    29    28    2
    14    42    46   am
    15    42    41    1
    16    41    40    1
    17    58    59    1
    18    51    50    1
    19    51    52    2
    20    40    37   am
    21    28    27    1
    22    26    27    1
    23    25    23    1
    24    68    67    1
    25    14    12    1
    26    17    16    1
    27    17    18    2
    28    59    60    1
    29    20    19    1
    30    20    21    1
    31    11    10    2
    32    16    19    1
    33    16    15    1
    34    27    30    1
    35    13    12    1
    36    37    36    1
    37    37    38    2
    38    23    24    1
    39    23    22    2
    40    36    35    1
    41    36    39    1
    42    12     9    1
    43    10    15   am
    44    10     9    1
    45    21    22    1
    46    67    64    1
    47    60    61    2
    48    60    62   am
    49    30    31    1
    50    63    64    1
    51    64    65    1
    52     9     8    1
    53     8     3   am
    54    31    32    1
    55    65    69   am
    56    65    66    2
    57    34    32   ar
    58    32    33   ar
    59   195   193   ar
    60    83    82    1
    61    83    84    1
    62     3     2    1
    63     3     4    2
    64    69    70    1
    65   194   193   ar
    66    85    84    2
    67    98    95    1
    68   193   192    1
    69     2     1    1
    70     2     5    1
    71    72    71    2
    72    97    96    2
    73     1     7    1
    74    70    71    1
    75    71    73   am
    76    95    96    1
    77    95    94    1
    78     5     6    1
    79    96    99   am
    80   192   191    1
    81    73    74    1
    82     7     6    1
    83    99   100    1
    84    94    88   am
    85    76    75    2
    86   191   188    1
    87    74    75    1
    88    74    77    1
    89   100   103    1
    90   100   101    1
    91   103   104    1
    92   101   102    2
    93   199   198    2
    94    88    89    2
    95    88    87    1
    96    77    78    1
    97   198   197    1
    98    78    79    1
    99   188   189    1
   100   188   187    1
   101   190   189    2
   102   104   106   ar
   103   104   105   ar
   104   189   196   am
   105    87    86    1
   106    87    90    1
   107   212   213   ar
   108   212   210   ar
   109   196   197    1
   110   213   211   ar
   111   187   179   am
   112   197   200    1
   113    79    80    1
   114    90    91    1
   115    80    81    1
   116   210   209   ar
   117   179   180    2
   118   179   178    1
   119   211   209   ar
   120    91    93   ar
   121    91    92   ar
   122   200   201    1
   123   178   181    1
   124   178   177    1
   125   209   208    1
   126   181   182    1
   127   183   182   ar
   128   183   185   ar
   129   202   201    2
   130   201   203   am
   131   160   159    1
   132   182   184   ar
   133   146   145    1
   134   146   147    1
   135   185   186   ar
   136   144   142   ar
   137   208   205    1
   138   159   158   ar
   139   159   157   ar
   140   158   156   ar
   141   148   147    2
   142   147   149   am
   143   204   205    1
   144   184   186   ar
   145   157   155   ar
   146   205   206    1
   147   156   154   ar
   148   142   141    1
   149   142   143   ar
   150   166   165    1
   151   167   165    1
   152   149   150    1
   153   135   134    2
   154   165   162    1
   155   141   140    1
   156   155   154   ar
   157   154   153    1
   158   134   133    1
   159   134   136   am
   160   176   174   ar
   161   150   153    1
   162   150   151    1
   163   133   132    1
   164   206   207    2
   165   137   136    1
   166   137   140    1
   167   137   138    1
   168   162   161    1
   169   162   163    1
   170   221   220    1
   171   174   175   ar
   172   174   173    1
   173   151   152    2
   174   138   139    2
   175   132   129   am
   176   163   168   am
   177   163   164    2
   178   130   129    2
   179   168   169    1
   180   173   172    1
   181   129   128    1
   182   214   215    1
   183   218   215    1
   184   218   219    1
   185   220   219    1
   186   215   216    1
   187   169   172    1
   188   169   170    1
   189   128   127    1
   190   128   131    1
   191   115   113   ar
   192   115   117   ar
   193   127   121   am
   194   113   112   ar
   195   170   171    2
   196   216   217    2
   197   118   117    1
   198   125   124    2
   199   117   116   ar
   200   123   124    1
   201   123   120    1
   202   112   111    1
   203   112   114   ar
   204   121   120    1
   205   121   122    2
   206   124   126   am
   207   120   119    1
   208   111   108    1
   209   116   114   ar
   210   108   107    1
   211   108   109    1
   212   109   110    2
