@<TRIPOS>MOLECULE
tmp/2wvpA05.pdb
 86 86 0 0 0
SMALL
GASTEIGER

@<TRIPOS>ATOM
      1  N        -29.7070   -3.6480    6.4190 N.3    11  TYR11      -0.1241
      2  CA       -30.0780   -3.6690    7.8220 C.3    11  TYR11       0.1605
      3  C        -30.0380   -5.1140    8.3030 C.2    11  TYR11       0.2264
      4  O        -30.6930   -5.9770    7.7250 O.2    11  TYR11      -0.2867
      5  CB       -31.4670   -3.0790    8.0030 C.3    11  TYR11       0.0534
      6  CG       -31.8100   -2.7070    9.4180 C.ar   11  TYR11      -0.0201
      7  CD1      -32.7300   -3.4390   10.1530 C.ar   11  TYR11      -0.0009
      8  CD2      -31.2390   -1.5960   10.0090 C.ar   11  TYR11      -0.0009
      9  CE1      -33.0570   -3.0650   11.4500 C.ar   11  TYR11       0.0417
     10  CE2      -31.5530   -1.2170   11.2930 C.ar   11  TYR11       0.0417
     11  CZ       -32.4520   -1.9500   12.0120 C.ar   11  TYR11       0.1957
     12  OH       -32.7520   -1.5430   13.2950 O.3    11  TYR11      -0.2866
     13  N        -29.1170   -4.3340   16.4330 N.3    19  ALA19      -0.1245
     14  CA       -29.5600   -3.7420   15.1750 C.3    19  ALA19       0.1562
     15  C        -28.3470   -3.0780   14.5050 C.2    19  ALA19       0.2260
     16  O        -27.5920   -2.3480   15.1600 O.2    19  ALA19      -0.2867
     17  CB       -30.6460   -2.7190   15.4410 C.3    19  ALA19       0.0290
     18  N        -27.5340   -1.0840   11.0410 N.3    21  PRO21      -0.2116
     19  CA       -27.7190   -0.4420    9.7540 C.3    21  PRO21       0.1372
     20  C        -26.3640   -0.2040    9.0950 C.2    21  PRO21       0.2244
     21  O        -25.3710   -0.0310    9.7940 O.2    21  PRO21      -0.2868
     22  CB       -28.3960    0.8770   10.1300 C.3    21  PRO21       0.0268
     23  CG       -27.8220    1.2020   11.4430 C.3    21  PRO21       0.0207
     24  CD       -27.6700   -0.1190   12.1460 C.3    21  PRO21       0.0892
     25  N        -22.9520    0.5050   11.7350 N.3    40  GLN40      -0.1231
     26  CA       -23.2030    0.8180   13.1340 C.3    40  GLN40       0.1698
     27  C        -23.8180   -0.3950   13.7850 C.2    40  GLN40       0.2592
     28  O        -24.5680   -1.1100   13.1460 O.2    40  GLN40      -0.2718
     29  CB       -24.1700    1.9870   13.2400 C.3    40  GLN40       0.0381
     30  CG       -24.1010    2.7210   14.5480 C.3    40  GLN40       0.0905
     31  CD       -24.9920    3.9360   14.5560 C.2    40  GLN40       0.2608
     32  OE1      -26.2080    3.8250   14.6520 O.2    40  GLN40      -0.2717
     33  NE2      -24.3950    5.0980   14.4650 N.am   40  GLN40      -0.0878
     34  N        -23.5230   -0.6030   15.0610 N.am   41  GLU41      -0.1966
     35  CA       -24.0000   -1.7810   15.7850 C.3    41  GLU41       0.1733
     36  C        -24.3210   -1.4170   17.2370 C.2    41  GLU41       0.2617
     37  O        -23.5310   -0.7560   17.8900 O.2    41  GLU41      -0.2715
     38  CB       -22.9280   -2.8840   15.7230 C.3    41  GLU41       0.0429
     39  CG       -23.3130   -4.1790   16.4200 C.3    41  GLU41       0.1163
     40  CD       -22.2390   -5.2560   16.3240 C.2    41  GLU41       0.3649
     41  OE1      -21.7000   -5.4760   15.2170 O.co2  41  GLU41      -0.2457
     42  OE2      -21.9410   -5.8820   17.3720 O.co2  41  GLU41      -0.2457
     43  N        -25.4750   -1.8490   17.7340 N.am   42  GLY42      -0.1941
     44  CA       -25.8810   -1.5700   19.1160 C.3    42  GLY42       0.1998
     45  C        -27.2400   -2.1740   19.4180 C.2    42  GLY42       0.2481
     46  O        -27.8760   -2.6980   18.5130 O.2    42  GLY42      -0.2729
     47  N        -27.7000   -2.1020   20.6850 N.am   43  PRO43      -0.2715
     48  CA       -28.9090   -2.8240   21.0840 C.3    43  PRO43       0.1536
     49  C        -30.1500   -2.4320   20.2750 C.2    43  PRO43       0.2598
     50  O        -30.2880   -1.2560   19.9000 O.2    43  PRO43      -0.2715
     51  CB       -29.0830   -2.4480   22.5630 C.3    43  PRO43       0.0310
     52  CG       -27.7510   -2.0410   23.0150 C.3    43  PRO43       0.0237
     53  CD       -27.1230   -1.3690   21.8210 C.3    43  PRO43       0.0939
     54  N        -31.0140   -3.4220   19.9950 N.am   44  VAL44      -0.1978
     55  CA       -32.2830   -3.2020   19.2860 C.3    44  VAL44       0.1596
     56  C        -33.0970   -2.1970   20.0810 C.2    44  VAL44       0.2287
     57  O        -33.5360   -1.1880   19.5310 O.2    44  VAL44      -0.2864
     58  CB       -33.1250   -4.5080   19.0650 C.3    44  VAL44       0.0276
     59  CG1      -32.5820   -5.3310   17.8910 C.3    44  VAL44       0.0022
     60  CG2      -33.2150   -5.3540   20.3450 C.3    44  VAL44       0.0022
     61  N        -32.4390    0.3610   22.0010 N.3    46  TYR46      -0.1241
     62  CA       -31.4920    1.3950   22.4210 C.3    46  TYR46       0.1605
     63  C        -32.1620    2.4440   23.3150 C.2    46  TYR46       0.2264
     64  O        -33.3780    2.6410   23.2660 O.2    46  TYR46      -0.2867
     65  CB       -30.8360    2.0820   21.2150 C.3    46  TYR46       0.0534
     66  CG       -29.7170    3.0030   21.6390 C.ar   46  TYR46      -0.0201
     67  CD1      -29.9390    4.3660   21.8400 C.ar   46  TYR46      -0.0009
     68  CD2      -28.4410    2.5010   21.8860 C.ar   46  TYR46      -0.0009
     69  CE1      -28.9070    5.2090   22.2560 C.ar   46  TYR46       0.0417
     70  CE2      -27.4070    3.3300   22.3020 C.ar   46  TYR46       0.0417
     71  CZ       -27.6410    4.6820   22.4870 C.ar   46  TYR46       0.1957
     72  OH       -26.6050    5.4950   22.9000 O.3    46  TYR46      -0.2866
     73  N        -22.5600    0.7380   21.9390 N.3    51  TRP51      -0.1241
     74  CA       -22.6160    0.6470   20.4940 C.3    51  TRP51       0.1605
     75  C        -21.3150    1.1500   19.9070 C.2    51  TRP51       0.2264
     76  O        -20.4630    1.6840   20.6160 O.2    51  TRP51      -0.2867
     77  CB       -23.7940    1.4620   19.9380 C.3    51  TRP51       0.0550
     78  CG       -23.7210    2.9470   20.1880 C.ar   51  TRP51       0.0003
     79  CD1      -24.0660    3.5910   21.3260 C.ar   51  TRP51       0.0946
     80  CD2      -23.3060    3.9640   19.2580 C.ar   51  TRP51       0.0152
     81  NE1      -23.8770    4.9410   21.1830 N.ar   51  TRP51      -0.2442
     82  CE2      -23.4190    5.1990   19.9200 C.ar   51  TRP51       0.0810
     83  CE3      -22.8510    3.9480   17.9320 C.ar   51  TRP51       0.0012
     84  CZ2      -23.0860    6.4130   19.3060 C.ar   51  TRP51       0.0191
     85  CZ3      -22.5200    5.1480   17.3240 C.ar   51  TRP51       0.0001
     86  CH2      -22.6410    6.3630   18.0100 C.ar   51  TRP51       0.0015
@<TRIPOS>BOND
     1     1     2    1
     2     4     3    2
     3     2     5    1
     4     2     3    1
     5     5     6    1
     6    20    19    1
     7    20    21    2
     8     6     8   ar
     9     6     7   ar
    10    19    22    1
    11    19    18    1
    12     8    10   ar
    13    22    23    1
    14     7     9   ar
    15    18    24    1
    16    10    11   ar
    17    23    24    1
    18     9    11   ar
    19    25    26    1
    20    11    12    1
    21    26    29    1
    22    26    27    1
    23    28    27    2
    24    29    30    1
    25    27    34   am
    26    33    31   am
    27    15    16    2
    28    15    14    1
    29    30    31    1
    30    31    32    2
    31    34    35    1
    32    14    17    1
    33    14    13    1
    34    41    40   ar
    35    38    35    1
    36    38    39    1
    37    35    36    1
    38    40    39    1
    39    40    42   ar
    40    36    43   am
    41    36    37    2
    42    85    83   ar
    43    85    86   ar
    44    43    44    1
    45    59    58    1
    46    83    80   ar
    47    86    84   ar
    48    46    45    2
    49    58    55    1
    50    58    60    1
    51    44    45    1
    52    80    82   ar
    53    80    78   ar
    54    55    54    1
    55    55    56    1
    56    84    82   ar
    57    45    47   am
    58    57    56    2
    59    50    49    2
    60    75    74    1
    61    75    76    2
    62    82    81   ar
    63    77    78    1
    64    77    74    1
    65    54    49   am
    66    78    79   ar
    67    49    48    1
    68    74    73    1
    69    47    48    1
    70    47    53    1
    71    48    51    1
    72    81    79   ar
    73    65    66    1
    74    65    62    1
    75    66    67   ar
    76    66    68   ar
    77    53    52    1
    78    67    69   ar
    79    68    70   ar
    80    61    62    1
    81    69    71   ar
    82    70    71   ar
    83    62    63    1
    84    71    72    1
    85    51    52    1
    86    64    63    2
