@<TRIPOS>MOLECULE
tmp/2wvpA02.pdb
 91 90 0 0 0
SMALL
GASTEIGER

@<TRIPOS>ATOM
      1  N        -24.2750    1.9290   -5.2860 N.3     7  ILE7       -0.1231
      2  CA       -24.6520    2.4450   -3.9900 C.3     7  ILE7        0.1692
      3  C        -25.6140    1.4320   -3.3930 C.2     7  ILE7        0.2592
      4  O        -26.3100    0.7350   -4.1260 O.2     7  ILE7       -0.2718
      5  CB       -25.2860    3.8740   -4.0270 C.3     7  ILE7        0.0266
      6  CG1      -26.4090    3.9870   -5.0510 C.3     7  ILE7        0.0019
      7  CG2      -24.2480    4.9340   -4.3360 C.3     7  ILE7        0.0020
      8  CD1      -27.5620    3.1720   -4.7310 C.3     7  ILE7        0.0001
      9  N        -25.6420    1.3440   -2.0630 N.am    8  GLY8       -0.1957
     10  CA       -26.5370    0.4080   -1.4000 C.3     8  GLY8        0.1869
     11  C        -26.5760    0.5300    0.1070 C.2     8  GLY8        0.2309
     12  O        -25.8330    1.2880    0.7200 O.2     8  GLY8       -0.2863
     13  N        -24.3940    1.5350    5.2190 N.3    23  VAL23      -0.1231
     14  CA       -24.4400    2.0680    3.8550 C.3    23  VAL23       0.1692
     15  C        -23.1160    1.9040    3.1610 C.2    23  VAL23       0.2592
     16  O        -22.0870    1.9000    3.8050 O.2    23  VAL23      -0.2718
     17  CB       -24.8510    3.5750    3.7950 C.3    23  VAL23       0.0266
     18  CG1      -26.3660    3.7090    3.9200 C.3    23  VAL23       0.0020
     19  CG2      -24.1250    4.3720    4.8330 C.3    23  VAL23       0.0020
     20  N        -23.1500    1.7880    1.8370 N.am   24  TYR24      -0.1962
     21  CA       -21.9240    1.7040    1.0590 C.3    24  TYR24       0.1771
     22  C        -22.0060    2.3500   -0.3410 C.2    24  TYR24       0.2619
     23  O        -23.0900    2.5960   -0.8990 O.2    24  TYR24      -0.2715
     24  CB       -21.4850    0.2390    0.9270 C.3    24  TYR24       0.0574
     25  CG       -22.4300   -0.6020    0.1060 C.ar   24  TYR24      -0.0198
     26  CD1      -22.3350   -0.6300   -1.2920 C.ar   24  TYR24      -0.0009
     27  CD2      -23.4280   -1.3540    0.7170 C.ar   24  TYR24      -0.0009
     28  CE1      -23.2150   -1.3790   -2.0520 C.ar   24  TYR24       0.0417
     29  CE2      -24.3060   -2.1120   -0.0260 C.ar   24  TYR24       0.0417
     30  CZ       -24.1900   -2.1240   -1.4090 C.ar   24  TYR24       0.1957
     31  OH       -25.0430   -2.8870   -2.1410 O.3    24  TYR24      -0.2866
     32  N        -20.8180    2.5690   -0.8950 N.am   25  PHE25      -0.1974
     33  CA       -20.6370    3.0780   -2.2300 C.3    25  PHE25       0.1639
     34  C        -19.3080    2.5770   -2.7690 C.2    25  PHE25       0.2290
     35  O        -18.3030    2.6190   -2.0690 O.2    25  PHE25      -0.2864
     36  CB       -20.6550    4.6010   -2.2050 C.3    25  PHE25       0.0560
     37  CG       -20.2030    5.2430   -3.4850 C.ar   25  PHE25      -0.0200
     38  CD1      -21.1310    5.5670   -4.4800 C.ar   25  PHE25      -0.0042
     39  CD2      -18.8610    5.5420   -3.6930 C.ar   25  PHE25      -0.0042
     40  CE1      -20.7370    6.1810   -5.6850 C.ar   25  PHE25      -0.0003
     41  CE2      -18.4390    6.1470   -4.8880 C.ar   25  PHE25      -0.0003
     42  CZ       -19.3930    6.4710   -5.8930 C.ar   25  PHE25      -0.0000
     43  N        -16.2460    2.7770   -0.1400 N.3    36  LEU36      -0.1231
     44  CA       -16.4980    3.4540    1.1440 C.3    36  LEU36       0.1693
     45  C        -17.7140    2.8060    1.8170 C.2    36  LEU36       0.2592
     46  O        -18.7000    2.4850    1.1510 O.2    36  LEU36      -0.2718
     47  CB       -16.7580    4.9540    0.9470 C.3    36  LEU36       0.0284
     48  CG       -15.5460    5.8590    0.6500 C.3    36  LEU36       0.0019
     49  CD1      -14.5120    5.8910    1.7970 C.3    36  LEU36       0.0001
     50  CD2      -14.8650    5.4200   -0.6520 C.3    36  LEU36       0.0001
     51  N        -17.6440    2.6400    3.1370 N.am   37  ALA37      -0.1966
     52  CA       -18.7450    2.0640    3.8970 C.3    37  ALA37       0.1728
     53  C        -18.8990    2.6680    5.3070 C.2    37  ALA37       0.2616
     54  O        -17.9260    3.1380    5.9240 O.2    37  ALA37      -0.2715
     55  CB       -18.5940    0.5420    3.9740 C.3    37  ALA37       0.0334
     56  N        -20.1410    2.6410    5.7990 N.am   38  TYR38      -0.1974
     57  CA       -20.4540    3.0210    7.1830 C.3    38  TYR38       0.1639
     58  C        -21.4110    2.0080    7.7660 C.2    38  TYR38       0.2290
     59  O        -22.4320    1.6910    7.1720 O.2    38  TYR38      -0.2864
     60  CB       -21.0530    4.4190    7.2960 C.3    38  TYR38       0.0560
     61  CG       -21.0930    4.9710    8.7170 C.ar   38  TYR38      -0.0198
     62  CD1      -22.3020    5.1660    9.3810 C.ar   38  TYR38      -0.0009
     63  CD2      -19.9170    5.3370    9.3800 C.ar   38  TYR38      -0.0009
     64  CE1      -22.3390    5.7060   10.6800 C.ar   38  TYR38       0.0417
     65  CE2      -19.9350    5.8560   10.6890 C.ar   38  TYR38       0.0417
     66  CZ       -21.1520    6.0430   11.3270 C.ar   38  TYR38       0.1957
     67  OH       -21.1830    6.5700   12.6080 O.3    38  TYR38      -0.2866
     68  N        -19.5520    2.6090   15.8160 N.3    53  ASP53      -0.1239
     69  CA       -19.5920    2.7810   14.3850 C.3    53  ASP53       0.1674
     70  C        -18.3140    2.2860   13.7230 C.2    53  ASP53       0.2266
     71  O        -17.3050    2.0290   14.3750 O.2    53  ASP53      -0.2867
     72  CB       -19.9300    4.2290   14.0130 C.3    53  ASP53       0.1410
     73  CG       -18.8240    5.1910   14.3000 C.2    53  ASP53       0.3668
     74  OD1      -17.7540    4.7800   14.7620 O.co2  53  ASP53      -0.2456
     75  OD2      -19.0170    6.3880   14.0430 O.co2  53  ASP53      -0.2456
     76  N        -16.6270    3.2820   10.1800 N.3    55  PRO55      -0.2102
     77  CA       -16.3410    3.8180    8.8670 C.3    55  PRO55       0.1504
     78  C        -15.2080    3.0200    8.2580 C.2    55  PRO55       0.2575
     79  O        -14.3110    2.5830    8.9850 O.2    55  PRO55      -0.2718
     80  CB       -15.8930    5.2530    9.1570 C.3    55  PRO55       0.0282
     81  CG       -15.3660    5.2130   10.5610 C.3    55  PRO55       0.0208
     82  CD       -16.2320    4.2150   11.2560 C.3    55  PRO55       0.0893
     83  N        -15.2480    2.8400    6.9420 N.am   56  GLU56      -0.1980
     84  CA       -14.2730    2.0220    6.2580 C.3    56  GLU56       0.1602
     85  C        -13.9420    2.5210    4.8380 C.2    56  GLU56       0.2287
     86  O        -14.8280    2.9530    4.0810 O.2    56  GLU56      -0.2864
     87  CB       -14.8170    0.6030    6.1740 C.3    56  GLU56       0.0415
     88  CG       -13.8960   -0.3630    5.4810 C.3    56  GLU56       0.1163
     89  CD       -14.4280   -1.7600    5.4920 C.2    56  GLU56       0.3649
     90  OE1      -15.6700   -1.9230    5.5370 O.co2  56  GLU56      -0.2457
     91  OE2      -13.6010   -2.7030    5.4790 O.co2  56  GLU56      -0.2457
@<TRIPOS>BOND
     1    42    40   ar
     2    42    41   ar
     3    40    38   ar
     4     1     2    1
     5     6     8    1
     6     6     5    1
     7    41    39   ar
     8    38    37   ar
     9     7     5    1
    10     4     3    2
    11     5     2    1
    12     2     3    1
    13    39    37   ar
    14    37    36    1
    15     3     9   am
    16    34    33    1
    17    34    35    2
    18    33    36    1
    19    33    32    1
    20    31    30    1
    21     9    10    1
    22    28    30   ar
    23    28    26   ar
    24    30    29   ar
    25    10    11    1
    26    26    25   ar
    27    23    22    2
    28    32    22   am
    29    50    48    1
    30    22    21    1
    31    43    44    1
    32    29    27   ar
    33    25    27   ar
    34    25    24    1
    35    11    12    2
    36    48    47    1
    37    48    49    1
    38    24    21    1
    39    47    44    1
    40    21    20    1
    41    44    45    1
    42    46    45    2
    43    45    51   am
    44    20    15   am
    45    51    52    1
    46    15    16    2
    47    15    14    1
    48    17    14    1
    49    17    18    1
    50    17    19    1
    51    14    13    1
    52    52    55    1
    53    52    53    1
    54    86    85    2
    55    85    84    1
    56    53    56   am
    57    53    54    2
    58    91    89   ar
    59    88    89    1
    60    88    87    1
    61    89    90   ar
    62    56    57    1
    63    87    84    1
    64    84    83    1
    65    83    78   am
    66    59    58    2
    67    57    60    1
    68    57    58    1
    69    60    61    1
    70    78    77    1
    71    78    79    2
    72    61    63   ar
    73    61    62   ar
    74    77    80    1
    75    77    76    1
    76    80    81    1
    77    63    65   ar
    78    62    64   ar
    79    76    82    1
    80    81    82    1
    81    64    66   ar
    82    65    66   ar
    83    66    67    1
    84    70    71    2
    85    70    69    1
    86    72    73    1
    87    72    69    1
    88    75    73   ar
    89    73    74   ar
    90    69    68    1
