@<TRIPOS>MOLECULE
tmp/2wvpA00.pdb
 95 87 0 0 0
SMALL
GASTEIGER

@<TRIPOS>ATOM
      1  N        -28.0490   -1.7250    3.9050 N.3    10  MET10      -0.1245
      2  CA       -28.3970   -3.0070    4.5080 C.3    10  MET10       0.1570
      3  C        -28.8280   -2.7800    5.9400 C.2    10  MET10       0.2261
      4  O        -28.3630   -1.8500    6.5980 O.2    10  MET10      -0.2867
      5  CB       -27.1980   -3.9750    4.5140 C.3    10  MET10       0.0387
      6  CG       -26.9030   -4.6930    3.2110 C.3    10  MET10       0.0595
      7  SD       -25.5700   -5.9480    3.3750 S.3    10  MET10      -0.1393
      8  CE       -24.1150   -4.9350    3.1530 C.3    10  MET10       0.0692
      9  N        -29.2620   -5.3500    9.3570 N.3    12  GLU12      -0.1245
     10  CA       -29.0360   -6.6770    9.9140 C.3    12  GLU12       0.1567
     11  C        -29.4870   -6.6650   11.3790 C.2    12  GLU12       0.2260
     12  O        -29.3950   -5.6430   12.0540 O.2    12  GLU12      -0.2867
     13  CB       -27.5500   -7.0640    9.7700 C.3    12  GLU12       0.0388
     14  CG       -27.0630   -7.0850    8.3050 C.3    12  GLU12       0.1160
     15  CD       -25.5430   -7.2620    8.1180 C.2    12  GLU12       0.3649
     16  OE1      -25.1400   -8.3430    7.6270 O.co2  12  GLU12      -0.2457
     17  OE2      -24.7460   -6.3280    8.4040 O.co2  12  GLU12      -0.2457
     18  N        -21.1230  -23.8440    0.2380 N.3   182  TYR182     -0.1241
     19  CA       -22.1750  -23.0650   -0.4110 C.3   182  TYR182      0.1605
     20  C        -22.6790  -23.7430   -1.6650 C.2   182  TYR182      0.2264
     21  O        -21.9700  -24.4970   -2.2930 O.2   182  TYR182     -0.2867
     22  CB       -21.6870  -21.6890   -0.8230 C.3   182  TYR182      0.0534
     23  CG       -20.8410  -20.9660    0.1820 C.ar  182  TYR182     -0.0201
     24  CD1      -21.3480  -19.8800    0.8680 C.ar  182  TYR182     -0.0009
     25  CD2      -19.5070  -21.3360    0.4080 C.ar  182  TYR182     -0.0009
     26  CE1      -20.5900  -19.1950    1.7740 C.ar  182  TYR182      0.0417
     27  CE2      -18.7400  -20.6590    1.3220 C.ar  182  TYR182      0.0417
     28  CZ       -19.2960  -19.5790    1.9990 C.ar  182  TYR182      0.1957
     29  OH       -18.5670  -18.8590    2.9070 O.3   182  TYR182     -0.2866
     30  N        -28.5960  -18.9340   -2.3960 N.3   193  THR193     -0.1218
     31  CA       -27.4270  -19.6560   -1.9130 C.3   193  THR193      0.1862
     32  C        -27.7030  -20.2290   -0.5280 C.2   193  THR193      0.2287
     33  O        -27.7530  -19.4930    0.4470 O.2   193  THR193     -0.2866
     34  CB       -26.1920  -18.7550   -1.8310 C.3   193  THR193      0.1770
     35  OG1      -26.0730  -18.0070   -3.0430 O.3   193  THR193     -0.2211
     36  CG2      -24.9400  -19.5800   -1.6350 C.3   193  THR193      0.0375
     37  N        -26.0690  -22.0880    2.5610 N.3   195  CYS195     -0.1235
     38  CA       -24.6960  -22.2010    3.0740 C.3   195  CYS195      0.1677
     39  C        -24.6430  -22.9270    4.4200 C.2   195  CYS195      0.2270
     40  O        -25.6270  -22.9880    5.1490 O.2   195  CYS195     -0.2867
     41  CB       -24.0260  -20.8250    3.1770 C.3   195  CYS195      0.0956
     42  SG       -25.0050  -19.4910    3.9310 S.3   195  CYS195     -0.0801
     43  N        -21.6880  -23.7020    7.7910 N.3   197  ARG197     -0.1245
     44  CA       -20.3750  -23.6210    8.4280 C.3   197  ARG197      0.1563
     45  C        -20.2930  -24.6900    9.5060 C.2   197  ARG197      0.2260
     46  O        -21.1620  -24.7630   10.3650 O.2   197  ARG197     -0.2867
     47  CB       -20.1490  -22.2830    9.1080 C.3   197  ARG197      0.0307
     48  CG       -20.3530  -21.0760    8.2660 C.3   197  ARG197      0.0489
     49  CD       -19.9720  -19.8600    9.0910 C.3   197  ARG197      0.2205
     50  NE       -20.1240  -18.6220    8.3370 N.pl3 197  ARG197     -0.0865
     51  CZ       -19.9580  -17.3940    8.8360 C.cat 197  ARG197      0.5346
     52  NH1      -19.6540  -17.1980   10.1110 N.pl3 197  ARG197      0.1354
     53  NH2      -20.1090  -16.3450    8.0470 N.pl3 197  ARG197      0.1354
     54  N        -27.6250  -21.3190    6.8330 N.3   216  GLY216     -0.1225
     55  CA       -28.1250  -20.0420    6.3600 C.3   216  GLY216      0.1811
     56  C        -28.6500  -20.0920    4.9460 C.2   216  GLY216      0.2280
     57  O        -28.4570  -21.0690    4.2310 O.2   216  GLY216     -0.2866
     58  N        -29.2480  -17.3270    1.6060 N.3   218  PHE218     -0.1241
     59  CA       -29.2990  -16.0450    0.9210 C.3   218  PHE218      0.1605
     60  C        -30.3120  -16.0860   -0.2270 C.2   218  PHE218      0.2264
     61  O        -30.3340  -17.0200   -1.0060 O.2   218  PHE218     -0.2867
     62  CB       -27.9090  -15.6710    0.4110 C.3   218  PHE218      0.0534
     63  CG       -27.9100  -14.5550   -0.5910 C.ar  218  PHE218     -0.0203
     64  CD1      -27.7910  -13.2340   -0.1780 C.ar  218  PHE218     -0.0042
     65  CD2      -28.0100  -14.8320   -1.9540 C.ar  218  PHE218     -0.0042
     66  CE1      -27.7920  -12.1990   -1.1100 C.ar  218  PHE218     -0.0003
     67  CE2      -28.0120  -13.8120   -2.8890 C.ar  218  PHE218     -0.0003
     68  CZ       -27.9070  -12.4910   -2.4730 C.ar  218  PHE218     -0.0000
     69  N        -31.7490   -8.0430   -1.4980 N.3   230  SER230     -0.1217
     70  CA       -31.2650   -9.2560   -0.8560 C.3   230  SER230      0.1889
     71  C        -31.9920   -9.4800    0.4750 C.2   230  SER230      0.2288
     72  O        -32.4660   -8.5310    1.1210 O.2   230  SER230     -0.2866
     73  CB       -29.7400   -9.2220   -0.6740 C.3   230  SER230      0.2089
     74  OG       -29.2960   -8.0240   -0.0410 O.3   230  SER230     -0.2183
     75  N        -31.3690  -12.4110    3.7540 N.3   232  GLU232     -0.1245
     76  CA       -30.6350  -13.5740    4.2910 C.3   232  GLU232      0.1567
     77  C        -31.0720  -13.9460    5.7050 C.2   232  GLU232      0.2260
     78  O        -31.3720  -13.0720    6.5190 O.2   232  GLU232     -0.2867
     79  CB       -29.1190  -13.3370    4.2770 C.3   232  GLU232      0.0388
     80  CG       -28.3500  -14.4490    4.9910 C.3   232  GLU232      0.1160
     81  CD       -26.8840  -14.5710    4.6000 C.2   232  GLU232      0.3649
     82  OE1      -26.3360  -13.5970    4.0330 O.co2 232  GLU232     -0.2457
     83  OE2      -26.2870  -15.6580    4.8690 O.co2 232  GLU232     -0.2457
     84  N        -29.9200  -14.6960   13.0230 N.3   250  TYR250     -0.1241
     85  CA       -29.4750  -13.5870   12.1690 C.3   250  TYR250      0.1605
     86  C        -30.4490  -13.4110   11.0100 C.2   250  TYR250      0.2264
     87  O        -30.8420  -14.3820   10.3770 O.2   250  TYR250     -0.2867
     88  CB       -28.0510  -13.8180   11.6420 C.3   250  TYR250      0.0534
     89  CG       -27.6480  -12.8750   10.5120 C.ar  250  TYR250     -0.0201
     90  CD1      -27.9180  -13.1960    9.1810 C.ar  250  TYR250     -0.0009
     91  CD2      -27.0110  -11.6500   10.7750 C.ar  250  TYR250     -0.0009
     92  CE1      -27.5780  -12.3350    8.1490 C.ar  250  TYR250      0.0417
     93  CE2      -26.6500  -10.7800    9.7310 C.ar  250  TYR250      0.0417
     94  CZ       -26.9390  -11.1360    8.4240 C.ar  250  TYR250      0.1957
     95  OH       -26.5990  -10.3030    7.3720 O.3   250  TYR250     -0.2866
@<TRIPOS>BOND
     1    35    34    1
     2    67    68   ar
     3    67    65   ar
     4    68    66   ar
     5    30    31    1
     6    21    20    2
     7    65    63   ar
     8    31    34    1
     9    31    32    1
    10    34    36    1
    11    20    19    1
    12    69    70    1
    13    66    64   ar
    14    61    60    2
    15    70    73    1
    16    70    71    1
    17    22    19    1
    18    22    23    1
    19    73    74    1
    20    63    64   ar
    21    63    62    1
    22    32    33    2
    23    19    18    1
    24    60    59    1
    25    23    25   ar
    26    23    24   ar
    27    25    27   ar
    28    62    59    1
    29    71    72    2
    30    24    26   ar
    31    59    58    1
    32    27    28   ar
    33    26    28   ar
    34    28    29    1
    35    37    38    1
    36    38    41    1
    37    38    39    1
    38     8     7    1
    39    41    42    1
    40     6     7    1
    41     6     5    1
    42    75    76    1
    43     1     2    1
    44    82    81   ar
    45    57    56    2
    46    79    76    1
    47    79    80    1
    48    76    77    1
    49    39    40    2
    50     2     5    1
    51     2     3    1
    52    81    83   ar
    53    81    80    1
    54    56    55    1
    55    77    78    2
    56     3     4    2
    57    55    54    1
    58    95    94    1
    59    16    15   ar
    60    43    44    1
    61    53    51    1
    62    15    14    1
    63    15    17   ar
    64    92    94   ar
    65    92    90   ar
    66    48    49    1
    67    48    47    1
    68    14    13    1
    69    50    51    2
    70    50    49    1
    71    94    93   ar
    72    44    47    1
    73    44    45    1
    74    51    52    1
    75    90    89   ar
    76     9    10    1
    77    45    46    2
    78    93    91   ar
    79    13    10    1
    80    10    11    1
    81    87    86    2
    82    89    91   ar
    83    89    88    1
    84    86    85    1
    85    11    12    2
    86    88    85    1
    87    85    84    1
