@<TRIPOS>MOLECULE
tmp/2wvsD00.pdb
 146 148 0 0 0
SMALL
GASTEIGER

@<TRIPOS>ATOM
      1  N          3.8630   41.1720   -3.4290 N.3    30  PHE30      -0.1241
      2  CA         2.8130   42.0000   -2.8450 C.3    30  PHE30       0.1605
      3  C          1.8970   41.0480   -2.0900 C.2    30  PHE30       0.2264
      4  O          1.6790   39.9060   -2.5320 O.2    30  PHE30      -0.2867
      5  CB         2.0050   42.6850   -3.9310 C.3    30  PHE30       0.0534
      6  CG         1.7180   44.1280   -3.6650 C.ar   30  PHE30      -0.0203
      7  CD1        2.0900   45.0930   -4.5910 C.ar   30  PHE30      -0.0042
      8  CD2        1.0610   44.5280   -2.5020 C.ar   30  PHE30      -0.0042
      9  CE1        1.8210   46.4500   -4.3650 C.ar   30  PHE30      -0.0003
     10  CE2        0.7830   45.8900   -2.2530 C.ar   30  PHE30      -0.0003
     11  CZ         1.1570   46.8520   -3.1940 C.ar   30  PHE30      -0.0000
     12  N         -1.9710   41.2140   -0.7280 N.3    32  HIS32      -0.1241
     13  CA        -3.2880   41.8180   -0.5750 C.3    32  HIS32       0.1621
     14  C         -4.0590   40.9700    0.3990 C.2    32  HIS32       0.2264
     15  O         -4.4140   39.8020    0.1110 O.2    32  HIS32      -0.2867
     16  CB        -4.0260   41.9890   -1.9110 C.3    32  HIS32       0.0745
     17  CG        -3.6430   43.2420   -2.6300 C.ar   32  HIS32       0.0817
     18  ND1       -2.4730   43.3570   -3.3500 N.ar   32  HIS32      -0.2268
     19  CD2       -4.2210   44.4670   -2.6590 C.ar   32  HIS32       0.1154
     20  CE1       -2.3740   44.5870   -3.8320 C.ar   32  HIS32       0.1986
     21  NE2       -3.4200   45.2800   -3.4200 N.ar   32  HIS32      -0.2212
     22  N        -10.9430   42.4440   -4.1890 N.3    53  GLU53      -0.1231
     23  CA       -10.8070   43.5040   -3.1780 C.3    53  GLU53       0.1699
     24  C        -11.7640   44.6820   -3.4170 C.2    53  GLU53       0.2592
     25  O        -11.9370   45.5390   -2.5530 O.2    53  GLU53      -0.2718
     26  CB        -9.3390   43.9630   -2.9900 C.3    53  GLU53       0.0402
     27  CG        -8.7450   44.8460   -4.1080 C.3    53  GLU53       0.1161
     28  CD        -8.5520   44.1060   -5.4270 C.2    53  GLU53       0.3649
     29  OE1       -8.6680   42.8530   -5.4750 O.co2  53  GLU53      -0.2457
     30  OE2       -8.2660   44.7970   -6.4290 O.co2  53  GLU53      -0.2457
     31  N        -12.3990   44.7010   -4.5850 N.am   54  TRP54      -0.1976
     32  CA       -13.3120   45.7660   -4.9190 C.3    54  TRP54       0.1640
     33  C        -14.7780   45.3470   -4.7520 C.2    54  TRP54       0.2290
     34  O        -15.6720   46.1350   -5.0150 O.2    54  TRP54      -0.2864
     35  CB       -13.0350   46.2730   -6.3310 C.3    54  TRP54       0.0576
     36  CG       -11.9910   47.3280   -6.3760 C.ar   54  TRP54       0.0006
     37  CD1      -10.6420   47.1540   -6.2520 C.ar   54  TRP54       0.0946
     38  CD2      -12.2030   48.7310   -6.5470 C.ar   54  TRP54       0.0152
     39  NE1      -10.0010   48.3640   -6.3390 N.ar   54  TRP54      -0.2442
     40  CE2      -10.9340   49.3500   -6.5190 C.ar   54  TRP54       0.0810
     41  CE3      -13.3440   49.5260   -6.7390 C.ar   54  TRP54       0.0012
     42  CZ2      -10.7680   50.7400   -6.6560 C.ar   54  TRP54       0.0191
     43  CZ3      -13.1810   50.9160   -6.8810 C.ar   54  TRP54       0.0001
     44  CH2      -11.9050   51.5020   -6.8250 C.ar   54  TRP54       0.0015
     45  N         -6.7030   48.6130    3.1290 N.3   101  HIS101     -0.1226
     46  CA        -7.1730   48.7990    1.7690 C.3   101  HIS101      0.1752
     47  C         -8.3170   49.8150    1.7030 C.2   101  HIS101      0.2596
     48  O         -8.5090   50.5860    2.6320 O.2   101  HIS101     -0.2718
     49  CB        -7.5170   47.4800    1.0840 C.3   101  HIS101      0.0759
     50  CG        -7.2780   47.5250   -0.3930 C.ar  101  HIS101      0.0818
     51  ND1       -8.2440   47.9260   -1.2950 N.ar  101  HIS101     -0.2268
     52  CD2       -6.1560   47.3000   -1.1180 C.ar  101  HIS101      0.1154
     53  CE1       -7.7370   47.9110   -2.5150 C.ar  101  HIS101      0.1986
     54  NE2       -6.4700   47.5350   -2.4350 N.ar  101  HIS101     -0.2212
     55  N         -9.0780   49.8040    0.6140 N.am  102  HIS102     -0.1975
     56  CA       -10.1300   50.7900    0.4280 C.3   102  HIS102      0.1656
     57  C        -11.1960   50.6310    1.5180 C.2   102  HIS102      0.2291
     58  O        -11.6480   51.6130    2.1080 O.2   102  HIS102     -0.2864
     59  CB       -10.7140   50.6860   -0.9890 C.3   102  HIS102      0.0771
     60  CG        -9.7180   50.9830   -2.0840 C.ar  102  HIS102      0.0820
     61  ND1       -8.5760   51.7350   -1.8800 N.ar  102  HIS102     -0.2267
     62  CD2       -9.7130   50.6480   -3.3970 C.ar  102  HIS102      0.1154
     63  CE1       -7.9050   51.8300   -3.0110 C.ar  102  HIS102      0.1986
     64  NE2       -8.5700   51.1770   -3.9450 N.ar  102  HIS102     -0.2212
     65  N          1.8190   49.1110    1.6850 N.3   144  TYR144     -0.1241
     66  CA         0.7140   49.6040    0.8810 C.3   144  TYR144      0.1605
     67  C         -0.2160   50.3770    1.8160 C.2   144  TYR144      0.2264
     68  O         -0.5130   49.9000    2.9030 O.2   144  TYR144     -0.2867
     69  CB        -0.0310   48.4390    0.2450 C.3   144  TYR144      0.0534
     70  CG        -1.3620   48.8370   -0.3650 C.ar  144  TYR144     -0.0201
     71  CD1       -1.5460   48.8350   -1.7620 C.ar  144  TYR144     -0.0009
     72  CD2       -2.4340   49.2180    0.4510 C.ar  144  TYR144     -0.0009
     73  CE1       -2.7810   49.2100   -2.3300 C.ar  144  TYR144      0.0417
     74  CE2       -3.6680   49.6110   -0.1020 C.ar  144  TYR144      0.0417
     75  CZ        -3.8380   49.6030   -1.4910 C.ar  144  TYR144      0.1957
     76  OH        -5.0640   49.9670   -2.0280 O.3   144  TYR144     -0.2866
     77  N          3.6560   52.8380   -0.1640 N.3   193  TRP193     -0.1241
     78  CA         3.1520   52.7800   -1.5020 C.3   193  TRP193      0.1605
     79  C          1.6660   53.1130   -1.4250 C.2   193  TRP193      0.2264
     80  O          0.8450   52.2720   -1.0670 O.2   193  TRP193     -0.2867
     81  CB         3.3920   51.3750   -2.0670 C.3   193  TRP193      0.0550
     82  CG         3.2020   51.2090   -3.5220 C.ar  193  TRP193      0.0003
     83  CD1        4.1770   51.2610   -4.4940 C.ar  193  TRP193      0.0946
     84  CD2        1.9720   50.9040   -4.2060 C.ar  193  TRP193      0.0152
     85  NE1        3.6220   51.0240   -5.7360 N.ar  193  TRP193     -0.2442
     86  CE2        2.2770   50.7990   -5.5880 C.ar  193  TRP193      0.0810
     87  CE3        0.6400   50.7060   -3.7850 C.ar  193  TRP193      0.0012
     88  CZ2        1.3070   50.5100   -6.5440 C.ar  193  TRP193      0.0191
     89  CZ3       -0.3290   50.4280   -4.7400 C.ar  193  TRP193      0.0001
     90  CH2        0.0090   50.3280   -6.1080 C.ar  193  TRP193      0.0015
     91  N         -2.1010   54.0930   -2.6220 N.3   195  ASP195     -0.1239
     92  CA        -3.1230   53.8710   -3.6100 C.3   195  ASP195      0.1674
     93  C         -4.3190   54.7830   -3.2620 C.2   195  ASP195      0.2266
     94  O         -4.3090   55.4740   -2.2290 O.2   195  ASP195     -0.2867
     95  CB        -3.5170   52.3900   -3.5940 C.3   195  ASP195      0.1410
     96  CG        -4.1840   51.9300   -4.8890 C.2   195  ASP195      0.3668
     97  OD1       -4.2720   52.7110   -5.8710 O.co2 195  ASP195     -0.2456
     98  OD2       -4.6050   50.7480   -4.9430 O.co2 195  ASP195     -0.2456
     99  N         -6.3030   59.0710   -6.4940 N.3   198  TRP198     -0.1241
    100  CA        -6.7000   59.6430   -7.7850 C.3   198  TRP198      0.1605
    101  C         -7.8600   60.6450   -7.7440 C.2   198  TRP198      0.2264
    102  O         -8.1050   61.3300   -8.7470 O.2   198  TRP198     -0.2867
    103  CB        -7.0720   58.5440   -8.7590 C.3   198  TRP198      0.0550
    104  CG        -8.1030   57.6110   -8.2060 C.ar  198  TRP198      0.0003
    105  CD1       -9.4440   57.8470   -8.0690 C.ar  198  TRP198      0.0946
    106  CD2       -7.8730   56.2920   -7.7010 C.ar  198  TRP198      0.0152
    107  NE1      -10.0680   56.7440   -7.5170 N.ar  198  TRP198     -0.2442
    108  CE2       -9.1250   55.7760   -7.2850 C.ar  198  TRP198      0.0810
    109  CE3       -6.7330   55.4850   -7.5730 C.ar  198  TRP198      0.0012
    110  CZ2       -9.2620   54.4960   -6.7520 C.ar  198  TRP198      0.0191
    111  CZ3       -6.8750   54.2040   -7.0450 C.ar  198  TRP198      0.0001
    112  CH2       -8.1210   53.7270   -6.6400 C.ar  198  TRP198      0.0015
    113  N          2.6050   57.4570   -7.0890 N.3   228  ARG228     -0.1245
    114  CA         1.1400   57.4500   -7.0730 C.3   228  ARG228      0.1563
    115  C          0.5240   58.3580   -6.0000 C.2   228  ARG228      0.2260
    116  O         -0.6330   58.7900   -6.1080 O.2   228  ARG228     -0.2867
    117  CB         0.6000   56.0330   -6.9420 C.3   228  ARG228      0.0307
    118  CG        -0.9000   55.9530   -7.2120 C.3   228  ARG228      0.0489
    119  CD        -1.4260   54.5430   -7.3090 C.3   228  ARG228      0.2205
    120  NE        -0.5680   53.7150   -8.1380 N.pl3 228  ARG228     -0.0865
    121  CZ        -0.9740   52.6300   -8.7930 C.cat 228  ARG228      0.5346
    122  NH1       -2.2570   52.2530   -8.7320 N.pl3 228  ARG228      0.1354
    123  NH2       -0.0890   51.9400   -9.5220 N.pl3 228  ARG228      0.1354
    124  N          1.2670   48.6700  -14.0250 N.3   254  GLN254     -0.1245
    125  CA         0.5220   47.7750  -13.1890 C.3   254  GLN254      0.1566
    126  C         -0.2930   46.9730  -14.1660 C.2   254  GLN254      0.2260
    127  O         -1.2310   47.5020  -14.7740 O.2   254  GLN254     -0.2867
    128  CB        -0.3790   48.5960  -12.2900 C.3   254  GLN254      0.0367
    129  CG        -1.0600   47.8120  -11.2090 C.3   254  GLN254      0.0905
    130  CD        -1.9810   48.6930  -10.4010 C.2   254  GLN254      0.2608
    131  OE1       -3.2080   48.6720  -10.5790 O.2   254  GLN254     -0.2717
    132  NE2       -1.3930   49.4970   -9.5170 N.am  254  GLN254     -0.0878
    133  N         -6.2480   41.1450   -7.2220 N.3   282  TRP282     -0.1241
    134  CA        -5.2570   41.4130   -6.1760 C.3   282  TRP282      0.1605
    135  C         -5.6020   40.6830   -4.8700 C.2   282  TRP282      0.2264
    136  O         -4.8130   39.8490   -4.3950 O.2   282  TRP282     -0.2867
    137  CB        -5.0980   42.9130   -5.9440 C.3   282  TRP282      0.0550
    138  CG        -4.7560   43.6200   -7.1870 C.ar  282  TRP282      0.0003
    139  CD1       -5.6300   44.0650   -8.1380 C.ar  282  TRP282      0.0946
    140  CD2       -3.4460   43.9690   -7.6460 C.ar  282  TRP282      0.0152
    141  NE1       -4.9460   44.6950   -9.1580 N.ar  282  TRP282     -0.2442
    142  CE2       -3.6030   44.6330   -8.8910 C.ar  282  TRP282      0.0810
    143  CE3       -2.1560   43.7660   -7.1410 C.ar  282  TRP282      0.0012
    144  CZ2       -2.5190   45.0970   -9.6380 C.ar  282  TRP282      0.0191
    145  CZ3       -1.0750   44.2360   -7.8660 C.ar  282  TRP282      0.0001
    146  CH2       -1.2600   44.9020   -9.1080 C.ar  282  TRP282      0.0015
@<TRIPOS>BOND
     1   127   126    2
     2   126   125    1
     3   124   125    1
     4   125   128    1
     5   128   129    1
     6   129   130    1
     7   131   130    2
     8   130   132   am
     9   144   146   ar
    10   144   142   ar
    11   123   121    1
    12   141   142   ar
    13   141   139   ar
    14   146   145   ar
    15   142   140   ar
    16   121   122    1
    17   121   120    2
    18   103   104    1
    19   103   100    1
    20   102   101    2
    21   104   105   ar
    22   104   106   ar
    23   120   119    1
    24   139   138   ar
    25   105   107   ar
    26   145   143   ar
    27   100   101    1
    28   100    99    1
    29   106   109   ar
    30   106   108   ar
    31   140   138   ar
    32   140   143   ar
    33   109   111   ar
    34   107   108   ar
    35   119   118    1
    36   108   110   ar
    37   133   134    1
    38   118   117    1
    39   138   137    1
    40   113   114    1
    41   114   117    1
    42   114   115    1
    43   111   112   ar
    44    43    44   ar
    45    43    41   ar
    46    44    42   ar
    47   110   112   ar
    48    41    38   ar
    49    42    40   ar
    50    38    40   ar
    51    38    36   ar
    52    88    90   ar
    53    88    86   ar
    54    40    39   ar
    55    30    28   ar
    56    36    35    1
    57    36    37   ar
    58    39    37   ar
    59    35    32    1
    60   134   137    1
    61   134   135    1
    62    90    89   ar
    63   116   115    2
    64    97    96   ar
    65    85    86   ar
    66    85    83   ar
    67    86    84   ar
    68    29    28   ar
    69    28    27    1
    70    34    33    2
    71    98    96   ar
    72    32    33    1
    73    32    31    1
    74    96    95    1
    75   135   136    2
    76    89    87   ar
    77     7     9   ar
    78     7     6   ar
    79    31    24   am
    80    83    82   ar
    81     9    11   ar
    82    84    87   ar
    83    84    82   ar
    84    22    23    1
    85    27    26    1
    86    64    62   ar
    87    64    63   ar
    88     5     6    1
    89     5     2    1
    90    20    21   ar
    91    20    18   ar
    92     6     8   ar
    93    92    95    1
    94    92    93    1
    95    92    91    1
    96    82    81    1
    97     1     2    1
    98    21    19   ar
    99    24    23    1
   100    24    25    2
   101    62    60   ar
   102    18    17   ar
   103    93    94    2
   104    11    10   ar
   105    23    26    1
   106    63    61   ar
   107     2     3    1
   108    19    17   ar
   109    17    16    1
   110     4     3    2
   111    53    54   ar
   112    53    51   ar
   113     8    10   ar
   114    54    52   ar
   115    73    71   ar
   116    73    75   ar
   117    60    61   ar
   118    60    59    1
   119    81    78    1
   120    76    75    1
   121    16    13    1
   122    71    70   ar
   123    78    79    1
   124    78    77    1
   125    75    74   ar
   126    79    80    2
   127    51    50   ar
   128    52    50   ar
   129    59    56    1
   130    12    13    1
   131    13    14    1
   132    50    49    1
   133    70    69    1
   134    70    72   ar
   135    74    72   ar
   136    15    14    2
   137    69    66    1
   138    56    55    1
   139    56    57    1
   140    55    47   am
   141    66    65    1
   142    66    67    1
   143    49    46    1
   144    57    58    2
   145    47    46    1
   146    47    48    2
   147    46    45    1
   148    67    68    2
