@<TRIPOS>MOLECULE
tmp/2wvtB00.pdb
 152 153 0 0 0
SMALL
GASTEIGER

@<TRIPOS>ATOM
      1  N        -23.5480    0.7400  -30.4120 N.3    30  PHE30      -0.1241
      2  CA       -24.5460    1.3500  -31.2570 C.3    30  PHE30       0.1605
      3  C        -23.7590    2.0630  -32.3710 C.2    30  PHE30       0.2264
      4  O        -22.7340    2.6670  -32.1020 O.2    30  PHE30      -0.2867
      5  CB       -25.3260    2.3960  -30.4810 C.3    30  PHE30       0.0534
      6  CG       -26.7940    2.3580  -30.6820 C.ar   30  PHE30      -0.0203
      7  CD1      -27.6410    2.4450  -29.5850 C.ar   30  PHE30      -0.0042
      8  CD2      -27.3490    2.2620  -31.9630 C.ar   30  PHE30      -0.0042
      9  CE1      -29.0250    2.4140  -29.7480 C.ar   30  PHE30      -0.0003
     10  CE2      -28.7120    2.2330  -32.1440 C.ar   30  PHE30      -0.0003
     11  CZ       -29.5670    2.3050  -31.0310 C.ar   30  PHE30      -0.0000
     12  N        -24.5310    4.8900  -35.2050 N.3    32  HIS32      -0.1241
     13  CA       -25.3390    5.8420  -35.9360 C.3    32  HIS32       0.1621
     14  C        -24.5310    6.3580  -37.1250 C.2    32  HIS32       0.2264
     15  O        -23.6380    7.2080  -36.9660 O.2    32  HIS32      -0.2867
     16  CB       -25.7900    7.0300  -35.0700 C.3    32  HIS32       0.0745
     17  CG       -26.9820    6.7430  -34.2080 C.ar   32  HIS32       0.0817
     18  ND1      -26.9180    5.9360  -33.0980 N.ar   32  HIS32      -0.2268
     19  CD2      -28.2370    7.2360  -34.2400 C.ar   32  HIS32       0.1154
     20  CE1      -28.1120    5.8670  -32.5360 C.ar   32  HIS32       0.1986
     21  NE2      -28.9220    6.6730  -33.1920 N.ar   32  HIS32      -0.2212
     22  N        -27.4540   14.2920  -35.8300 N.3    53  GLU53      -0.1231
     23  CA       -28.3450   13.4920  -36.6790 C.3    53  GLU53       0.1699
     24  C        -29.7050   14.1690  -36.8790 C.2    53  GLU53       0.2592
     25  O        -30.4860   13.7390  -37.7550 O.2    53  GLU53      -0.2718
     26  CB       -28.4120   12.0470  -36.1710 C.3    53  GLU53       0.0402
     27  CG       -29.2730   11.8410  -34.9140 C.3    53  GLU53       0.1161
     28  CD       -28.6200   12.2550  -33.6050 C.2    53  GLU53       0.3649
     29  OE1      -27.4120   12.5810  -33.6000 O.co2  53  GLU53      -0.2457
     30  OE2      -29.3400   12.2450  -32.5700 O.co2  53  GLU53      -0.2457
     31  N        -29.9270   15.2820  -36.1530 N.am   54  TRP54      -0.1976
     32  CA       -31.1100   16.1030  -36.2650 C.3    54  TRP54       0.1640
     33  C        -30.8380   17.4130  -36.9900 C.2    54  TRP54       0.2290
     34  O        -31.6910   18.2930  -36.9830 O.2    54  TRP54      -0.2864
     35  CB       -31.6760   16.3980  -34.8740 C.3    54  TRP54       0.0576
     36  CG       -32.5450   15.2820  -34.3030 C.ar   54  TRP54       0.0006
     37  CD1      -32.1340   14.1150  -33.7910 C.ar   54  TRP54       0.0946
     38  CD2      -33.9630   15.2850  -34.2300 C.ar   54  TRP54       0.0152
     39  NE1      -33.2050   13.3780  -33.3660 N.ar   54  TRP54      -0.2442
     40  CE2      -34.3480   14.0920  -33.6210 C.ar   54  TRP54       0.0810
     41  CE3      -34.9510   16.2260  -34.5690 C.ar   54  TRP54       0.0012
     42  CZ2      -35.6910   13.7730  -33.3780 C.ar   54  TRP54       0.0191
     43  CZ3      -36.3010   15.9020  -34.3410 C.ar   54  TRP54       0.0001
     44  CH2      -36.6510   14.6820  -33.7580 C.ar   54  TRP54       0.0015
     45  N        -32.2400    6.0250  -40.3490 N.3   101  HIS101     -0.1226
     46  CA       -32.5700    6.9820  -39.2980 C.3   101  HIS101      0.1752
     47  C        -33.7150    7.8720  -39.7670 C.2   101  HIS101      0.2596
     48  O        -34.2980    7.6260  -40.8260 O.2   101  HIS101     -0.2718
     49  CB       -31.3260    7.7880  -38.8490 C.3   101  HIS101      0.0759
     50  CG       -31.4300    8.3360  -37.4530 C.ar  101  HIS101      0.0818
     51  ND1      -31.9290    9.5950  -37.1760 N.ar  101  HIS101     -0.2268
     52  CD2      -31.1150    7.7820  -36.2580 C.ar  101  HIS101      0.1154
     53  CE1      -31.9360    9.7740  -35.8640 C.ar  101  HIS101      0.1986
     54  NE2      -31.4430    8.6900  -35.2870 N.ar  101  HIS101     -0.2212
     55  N        -34.0790    8.8850  -38.9810 N.am  102  HIS102     -0.1975
     56  CA       -35.1820    9.7740  -39.3260 C.3   102  HIS102      0.1656
     57  C        -35.0530   10.3530  -40.7320 C.2   102  HIS102      0.2291
     58  O        -36.0720   10.5640  -41.4220 O.2   102  HIS102     -0.2864
     59  CB       -35.3130   10.9370  -38.3430 C.3   102  HIS102      0.0771
     60  CG       -35.3370   10.5270  -36.9010 C.ar  102  HIS102      0.0820
     61  ND1      -35.7860    9.2940  -36.4890 N.ar  102  HIS102     -0.2267
     62  CD2      -34.9730   11.1910  -35.7740 C.ar  102  HIS102      0.1154
     63  CE1      -35.6850    9.2020  -35.1770 C.ar  102  HIS102      0.1986
     64  NE2      -35.2150   10.3470  -34.7130 N.ar  102  HIS102     -0.2212
     65  N        -31.3540   -1.2090  -35.8940 N.3   144  TYR144     -0.1241
     66  CA       -32.1190   -0.0270  -35.5470 C.3   144  TYR144      0.1605
     67  C        -32.9640    0.3230  -36.7780 C.2   144  TYR144      0.2264
     68  O        -32.5030    0.1720  -37.9030 O.2   144  TYR144     -0.2867
     69  CB       -31.1610    1.1390  -35.1690 C.3   144  TYR144      0.0534
     70  CG       -31.7720    2.5210  -35.0810 C.ar  144  TYR144     -0.0201
     71  CD1      -31.8940    3.1750  -33.8570 C.ar  144  TYR144     -0.0009
     72  CD2      -32.2210    3.1770  -36.2090 C.ar  144  TYR144     -0.0009
     73  CE1      -32.4500    4.4210  -33.7800 C.ar  144  TYR144      0.0417
     74  CE2      -32.8010    4.4040  -36.1300 C.ar  144  TYR144      0.0417
     75  CZ       -32.9110    5.0290  -34.9020 C.ar  144  TYR144      0.1957
     76  OH       -33.4750    6.2870  -34.8200 O.3   144  TYR144     -0.2866
     77  N        -34.7010   -2.8750  -33.2560 N.3   193  TRP193     -0.1241
     78  CA       -34.8400   -1.8220  -32.2970 C.3   193  TRP193      0.1605
     79  C        -35.4770   -0.6050  -32.9820 C.2   193  TRP193      0.2264
     80  O        -34.7960    0.1780  -33.7070 O.2   193  TRP193     -0.2867
     81  CB       -33.4680   -1.4740  -31.6970 C.3   193  TRP193      0.0550
     82  CG       -33.5240   -0.6740  -30.3760 C.ar  193  TRP193      0.0003
     83  CD1      -33.5400   -1.1980  -29.1030 C.ar  193  TRP193      0.0946
     84  CD2      -33.5680    0.7510  -30.2150 C.ar  193  TRP193      0.0152
     85  NE1      -33.5930   -0.1890  -28.1690 N.ar  193  TRP193     -0.2442
     86  CE2      -33.5830    1.0170  -28.8150 C.ar  193  TRP193      0.0810
     87  CE3      -33.5520    1.8300  -31.1030 C.ar  193  TRP193      0.0012
     88  CZ2      -33.6120    2.3190  -28.2890 C.ar  193  TRP193      0.0191
     89  CZ3      -33.5820    3.1350  -30.5790 C.ar  193  TRP193      0.0001
     90  CH2      -33.6020    3.3620  -29.1790 C.ar  193  TRP193      0.0015
     91  N        -37.3990    3.0110  -33.3750 N.3   195  ASP195     -0.1239
     92  CA       -37.3000    4.3500  -32.8310 C.3   195  ASP195      0.1674
     93  C        -38.1890    5.2490  -33.6540 C.2   195  ASP195      0.2266
     94  O        -38.7180    4.8210  -34.6990 O.2   195  ASP195     -0.2867
     95  CB       -35.8380    4.7900  -32.9080 C.3   195  ASP195      0.1410
     96  CG       -35.5170    5.9630  -32.0050 C.2   195  ASP195      0.3668
     97  OD1      -36.3220    6.2640  -31.0900 O.co2 195  ASP195     -0.2456
     98  OD2      -34.4440    6.6000  -32.2430 O.co2 195  ASP195     -0.2456
     99  N        -42.9910    7.6950  -31.5020 N.3   198  TRP198     -0.1241
    100  CA       -43.6200    8.4820  -30.4130 C.3   198  TRP198      0.1605
    101  C        -44.7350    9.4090  -30.8980 C.2   198  TRP198      0.2264
    102  O        -45.4740    9.9680  -30.0890 O.2   198  TRP198     -0.2867
    103  CB       -42.5780    9.3680  -29.6900 C.3   198  TRP198      0.0550
    104  CG       -41.7200   10.2350  -30.6140 C.ar  198  TRP198      0.0003
    105  CD1      -42.0890   11.3720  -31.2770 C.ar  198  TRP198      0.0946
    106  CD2      -40.3510   10.0110  -30.9400 C.ar  198  TRP198      0.0152
    107  NE1      -41.0280   11.8640  -32.0180 N.ar  198  TRP198     -0.2442
    108  CE2      -39.9440   11.0480  -31.8090 C.ar  198  TRP198      0.0810
    109  CE3      -39.4220    9.0330  -30.5730 C.ar  198  TRP198      0.0012
    110  CZ2      -38.6530   11.1070  -32.3390 C.ar  198  TRP198      0.0191
    111  CZ3      -38.1450    9.1050  -31.0770 C.ar  198  TRP198      0.0001
    112  CH2      -37.7720   10.1160  -31.9650 C.ar  198  TRP198      0.0015
    113  N        -40.0820    0.0420  -27.3930 N.3   228  ARG228     -0.1245
    114  CA       -40.3190    1.3700  -27.9560 C.3   228  ARG228      0.1563
    115  C        -41.2140    1.3360  -29.2240 C.2   228  ARG228      0.2260
    116  O        -41.8570    2.3270  -29.5770 O.2   228  ARG228     -0.2867
    117  CB       -38.9650    1.9960  -28.3090 C.3   228  ARG228      0.0307
    118  CG       -38.9510    3.4600  -28.5620 C.3   228  ARG228      0.0489
    119  CD       -37.5050    3.9250  -28.8750 C.3   228  ARG228      0.2205
    120  NE       -36.6990    4.0200  -27.6680 N.pl3 228  ARG228     -0.0865
    121  CZ       -35.9700    5.0900  -27.3050 C.cat 228  ARG228      0.5346
    122  NH1      -35.8810    6.1690  -28.0690 N.pl3 228  ARG228      0.1354
    123  NH2      -35.2830    5.0530  -26.1700 N.pl3 228  ARG228      0.1354
    124  N        -32.3400    5.9530  -21.8700 N.3   254  GLU254     -0.1245
    125  CA       -31.5630    6.4970  -22.9790 C.3   254  GLU254      0.1567
    126  C        -30.7880    7.6860  -22.4190 C.2   254  GLU254      0.2260
    127  O        -31.3730    8.6850  -22.0850 O.2   254  GLU254     -0.2867
    128  CB       -32.5370    6.9170  -24.0750 C.3   254  GLU254      0.0388
    129  CG       -31.9220    7.5940  -25.3060 C.3   254  GLU254      0.1160
    130  CD       -32.9870    8.1760  -26.2160 C.2   254  GLU254      0.3649
    131  OE1      -34.0920    7.6150  -26.2480 O.co2 254  GLU254     -0.2457
    132  OE2      -32.7360    9.1920  -26.8820 O.co2 254  GLU254     -0.2457
    133  N        -29.2540    2.5400  -23.5640 N.3   274  CYS274     -0.1235
    134  CA       -28.3020    3.0430  -24.5550 C.3   274  CYS274      0.1677
    135  C        -27.7240    4.3450  -24.0580 C.2   274  CYS274      0.2270
    136  O        -28.3680    5.0400  -23.2720 O.2   274  CYS274     -0.2867
    137  CB       -28.9660    3.1540  -25.9360 C.3   274  CYS274      0.0956
    138  SG       -30.3580    4.2900  -26.0590 S.3   274  CYS274     -0.0801
    139  N        -25.4790   11.5060  -31.3120 N.3   282  TRP282     -0.1241
    140  CA       -25.4820   10.1060  -31.7440 C.3   282  TRP282      0.1605
    141  C        -24.7320    9.9950  -33.0760 C.2   282  TRP282      0.2264
    142  O        -23.7680    9.2200  -33.2250 O.2   282  TRP282     -0.2867
    143  CB       -26.9270    9.5680  -31.8250 C.3   282  TRP282      0.0550
    144  CG       -27.6800    9.6250  -30.5000 C.ar  282  TRP282      0.0003
    145  CD1      -28.3870   10.6550  -30.0110 C.ar  282  TRP282      0.0946
    146  CD2      -27.7710    8.5820  -29.5310 C.ar  282  TRP282      0.0152
    147  NE1      -28.9450   10.3210  -28.8000 N.ar  282  TRP282     -0.2442
    148  CE2      -28.5650    9.0540  -28.4780 C.ar  282  TRP282      0.0810
    149  CE3      -27.2550    7.2960  -29.4530 C.ar  282  TRP282      0.0012
    150  CZ2      -28.8670    8.2850  -27.3550 C.ar  282  TRP282      0.0191
    151  CZ3      -27.5420    6.5340  -28.3330 C.ar  282  TRP282      0.0001
    152  CH2      -28.3380    7.0300  -27.2980 C.ar  282  TRP282      0.0015
@<TRIPOS>BOND
     1    58    57    2
     2    48    47    2
     3    57    56    1
     4    45    46    1
     5    47    46    1
     6    47    55   am
     7    56    55    1
     8    56    59    1
     9    46    49    1
    10    49    50    1
    11    59    60    1
    12    68    67    2
    13    25    24    2
    14    50    51   ar
    15    50    52   ar
    16    51    53   ar
    17    14    15    2
    18    14    13    1
    19    33    34    2
    20    33    32    1
    21    60    61   ar
    22    60    62   ar
    23    24    23    1
    24    24    31   am
    25    67    66    1
    26    23    26    1
    27    23    22    1
    28    61    63   ar
    29    32    31    1
    30    32    35    1
    31    52    54   ar
    32    72    74   ar
    33    72    70   ar
    34    26    27    1
    35    74    75   ar
    36    13    12    1
    37    13    16    1
    38    65    66    1
    39    53    54   ar
    40    62    64   ar
    41    66    69    1
    42    63    64   ar
    43    69    70    1
    44    70    71   ar
    45    16    17    1
    46    27    28    1
    47    75    76    1
    48    75    73   ar
    49    35    36    1
    50    94    93    2
    51    41    43   ar
    52    41    38   ar
    53    43    44   ar
    54    36    38   ar
    55    36    37   ar
    56    19    17   ar
    57    19    21   ar
    58    38    40   ar
    59    17    18   ar
    60    71    73   ar
    61    37    39   ar
    62    44    42   ar
    63    80    79    2
    64    93    92    1
    65    40    42   ar
    66    40    39   ar
    67    28    29   ar
    68    28    30   ar
    69    91    92    1
    70    77    78    1
    71   142   141    2
    72    21    20   ar
    73    18    20   ar
    74   141   140    1
    75    79    78    1
    76    95    92    1
    77    95    96    1
    78     3     4    2
    79     3     2    1
    80   110   112   ar
    81   110   108   ar
    82    78    81    1
    83    98    96   ar
    84    10     8   ar
    85    10    11   ar
    86   107   108   ar
    87   107   105   ar
    88    96    97   ar
    89   112   111   ar
    90     8     6   ar
    91   143   140    1
    92   143   144    1
    93   108   106   ar
    94   140   139    1
    95    81    82    1
    96    99   100    1
    97   105   104   ar
    98     2     5    1
    99     2     1    1
   100    87    89   ar
   101    87    84   ar
   102   111   109   ar
   103    11     9   ar
   104   106   104   ar
   105   106   109   ar
   106   101   100    1
   107   101   102    2
   108     6     5    1
   109     6     7   ar
   110   104   103    1
   111    89    90   ar
   112   144   145   ar
   113   144   146   ar
   114   100   103    1
   115    82    84   ar
   116    82    83   ar
   117    84    86   ar
   118   145   147   ar
   119     9     7   ar
   120   116   115    2
   121   146   149   ar
   122   146   148   ar
   123   149   151   ar
   124   115   114    1
   125    90    88   ar
   126    83    85   ar
   127   119   118    1
   128   119   120    1
   129    86    88   ar
   130    86    85   ar
   131   147   148   ar
   132   118   117    1
   133   148   150   ar
   134   151   152   ar
   135   117   114    1
   136   122   121    1
   137   114   113    1
   138   120   121    2
   139   150   152   ar
   140   121   123    1
   141   132   130   ar
   142   131   130   ar
   143   130   129    1
   144   138   137    1
   145   137   134    1
   146   129   128    1
   147   134   135    1
   148   134   133    1
   149   128   125    1
   150   135   136    2
   151   125   126    1
   152   125   124    1
   153   126   127    2
