@<TRIPOS>MOLECULE
tmp/2wvuD00.pdb
 180 180 0 0 0
SMALL
GASTEIGER

@<TRIPOS>ATOM
      1  N         17.9170  -41.0250  -38.3990 N.3    30  PHE30      -0.1241
      2  CA        17.9840  -42.2290  -37.5960 C.3    30  PHE30       0.1605
      3  C         19.2910  -42.0830  -36.8080 C.2    30  PHE30       0.2264
      4  O         20.2690  -41.5240  -37.3210 O.2    30  PHE30      -0.2867
      5  CB        18.0550  -43.5020  -38.4460 C.3    30  PHE30       0.0534
      6  CG        17.1190  -44.6170  -37.9850 C.ar   30  PHE30      -0.0203
      7  CD1       16.1210  -45.1020  -38.8350 C.ar   30  PHE30      -0.0042
      8  CD2       17.2540  -45.1850  -36.7210 C.ar   30  PHE30      -0.0042
      9  CE1       15.2420  -46.1370  -38.4160 C.ar   30  PHE30      -0.0003
     10  CE2       16.3990  -46.2190  -36.2760 C.ar   30  PHE30      -0.0003
     11  CZ        15.3950  -46.7040  -37.1240 C.ar   30  PHE30      -0.0000
     12  N         21.6930  -44.8490  -34.9110 N.3    32  HIS32      -0.1241
     13  CA        22.1150  -46.1820  -34.4730 C.3    32  HIS32       0.1621
     14  C         23.3160  -46.0180  -33.5610 C.2    32  HIS32       0.2264
     15  O         24.4410  -45.8040  -34.0330 O.2    32  HIS32      -0.2867
     16  CB        22.5210  -47.0780  -35.6460 C.3    32  HIS32       0.0745
     17  CG        21.3750  -47.8170  -36.2690 C.ar   32  HIS32       0.0817
     18  ND1       20.3870  -47.1800  -36.9860 N.ar   32  HIS32      -0.2268
     19  CD2       21.0660  -49.1410  -36.2930 C.ar   32  HIS32       0.1154
     20  CE1       19.5160  -48.0790  -37.4280 C.ar   32  HIS32       0.1986
     21  NE2       19.9010  -49.2730  -37.0130 N.ar   32  HIS32      -0.2212
     22  N         27.0920  -52.9110  -36.7350 N.3    53  GLU53      -0.1231
     23  CA        26.1970  -53.1970  -35.6030 C.3    53  GLU53       0.1699
     24  C         25.9560  -54.6840  -35.4990 C.2    53  GLU53       0.2592
     25  O         25.4340  -55.1680  -34.4780 O.2    53  GLU53      -0.2718
     26  CB        24.8960  -52.3780  -35.6610 C.3    53  GLU53       0.0402
     27  CG        23.8910  -52.7790  -36.7440 C.3    53  GLU53       0.1161
     28  CD        24.2670  -52.3110  -38.1580 C.2    53  GLU53       0.3649
     29  OE1       25.1750  -51.4650  -38.3240 O.co2  53  GLU53      -0.2457
     30  OE2       23.6190  -52.7870  -39.1030 O.co2  53  GLU53      -0.2457
     31  N         26.3710  -55.4110  -36.5430 N.am   54  TRP54      -0.1976
     32  CA        26.2730  -56.8760  -36.5440 C.3    54  TRP54       0.1640
     33  C         27.6110  -57.5860  -36.2620 C.2    54  TRP54       0.2290
     34  O         27.6850  -58.8100  -36.3990 O.2    54  TRP54      -0.2864
     35  CB        25.7090  -57.3840  -37.8790 C.3    54  TRP54       0.0576
     36  CG        24.2000  -57.2880  -38.0660 C.ar   54  TRP54       0.0006
     37  CD1       23.4560  -56.1440  -38.2770 C.ar   54  TRP54       0.0946
     38  CD2       23.2710  -58.3820  -38.0820 C.ar   54  TRP54       0.0152
     39  NE1       22.1230  -56.4720  -38.4370 N.ar   54  TRP54      -0.2442
     40  CE2       21.9790  -57.8340  -38.3180 C.ar   54  TRP54       0.0810
     41  CE3       23.4120  -59.7790  -37.9530 C.ar   54  TRP54       0.0012
     42  CZ2       20.8260  -58.6350  -38.4170 C.ar   54  TRP54       0.0191
     43  CZ3       22.2680  -60.5820  -38.0430 C.ar   54  TRP54       0.0001
     44  CH2       20.9840  -60.0020  -38.2740 C.ar   54  TRP54       0.0015
     45  N         19.3420  -52.3370  -29.7060 N.3   101  HIS101     -0.1226
     46  CA        19.5720  -53.0520  -30.9670 C.3   101  HIS101      0.1752
     47  C         19.6510  -54.5810  -30.7320 C.2   101  HIS101      0.2596
     48  O         19.3740  -55.0560  -29.6170 O.2   101  HIS101     -0.2718
     49  CB        20.8190  -52.5070  -31.6780 C.3   101  HIS101      0.0759
     50  CG        20.8020  -52.7510  -33.1560 C.ar  101  HIS101      0.0818
     51  ND1       21.2680  -53.9200  -33.7210 N.ar  101  HIS101     -0.2268
     52  CD2       20.2920  -52.0150  -34.1730 C.ar  101  HIS101      0.1154
     53  CE1       21.0670  -53.8810  -35.0280 C.ar  101  HIS101      0.1986
     54  NE2       20.4770  -52.7340  -35.3240 N.ar  101  HIS101     -0.2212
     55  N         19.9930  -55.3630  -31.7590 N.am  102  HIS102     -0.1975
     56  CA        20.0340  -56.8390  -31.5920 C.3   102  HIS102      0.1656
     57  C         20.9060  -57.2880  -30.4080 C.2   102  HIS102      0.2291
     58  O         20.6280  -58.3100  -29.7940 O.2   102  HIS102     -0.2864
     59  CB        20.5160  -57.5600  -32.8720 C.3   102  HIS102      0.0771
     60  CG        19.8000  -57.1490  -34.1350 C.ar  102  HIS102      0.0820
     61  ND1       18.4850  -56.7390  -34.1570 N.ar  102  HIS102     -0.2267
     62  CD2       20.2290  -57.1090  -35.4240 C.ar  102  HIS102      0.1154
     63  CE1       18.1400  -56.4410  -35.4010 C.ar  102  HIS102      0.1986
     64  NE2       19.1800  -56.6700  -36.1900 N.ar  102  HIS102     -0.2212
     65  N         13.2810  -46.8780  -32.1590 N.3   144  TYR144     -0.1241
     66  CA        13.6330  -48.1820  -32.7350 C.3   144  TYR144      0.1605
     67  C         13.7260  -49.1720  -31.5690 C.2   144  TYR144      0.2264
     68  O         14.2970  -48.8520  -30.5270 O.2   144  TYR144     -0.2867
     69  CB        14.9790  -48.0950  -33.4760 C.3   144  TYR144      0.0534
     70  CG        15.6430  -49.4220  -33.7760 C.ar  144  TYR144     -0.0201
     71  CD1       15.8410  -49.8410  -35.0980 C.ar  144  TYR144     -0.0009
     72  CD2       16.1370  -50.2370  -32.7480 C.ar  144  TYR144     -0.0009
     73  CE1       16.4910  -51.0600  -35.3940 C.ar  144  TYR144      0.0417
     74  CE2       16.7530  -51.4750  -33.0310 C.ar  144  TYR144      0.0417
     75  CZ        16.9260  -51.8680  -34.3660 C.ar  144  TYR144      0.1957
     76  OH        17.5320  -53.0830  -34.6390 O.3   144  TYR144     -0.2866
     77  N          9.2850  -48.3990  -33.8400 N.3   193  TRP193     -0.1241
     78  CA         9.7090  -48.9220  -35.1190 C.3   193  TRP193      0.1605
     79  C         10.4340  -50.1870  -34.7610 C.2   193  TRP193      0.2264
     80  O         11.5430  -50.1330  -34.2690 O.2   193  TRP193     -0.2867
     81  CB        10.6840  -47.9320  -35.7660 C.3   193  TRP193      0.0550
     82  CG        10.9840  -48.2040  -37.2310 C.ar  193  TRP193      0.0003
     83  CD1       10.2850  -47.7470  -38.3080 C.ar  193  TRP193      0.0946
     84  CD2       12.0920  -48.9300  -37.7500 C.ar  193  TRP193      0.0152
     85  NE1       10.8800  -48.1740  -39.4800 N.ar  193  TRP193     -0.2442
     86  CE2       11.9880  -48.9120  -39.1590 C.ar  193  TRP193      0.0810
     87  CE3       13.1630  -49.6210  -37.1600 C.ar  193  TRP193      0.0012
     88  CZ2       12.9260  -49.5230  -39.9870 C.ar  193  TRP193      0.0191
     89  CZ3       14.0930  -50.2590  -37.9940 C.ar  193  TRP193      0.0001
     90  CH2       13.9670  -50.2060  -39.3830 C.ar  193  TRP193      0.0015
     91  N         12.2070  -53.9530  -35.2780 N.3   195  ASP195     -0.1239
     92  CA        13.1480  -54.6340  -36.1310 C.3   195  ASP195      0.1674
     93  C         13.4350  -55.9820  -35.4800 C.2   195  ASP195      0.2266
     94  O         12.9830  -56.2230  -34.3440 O.2   195  ASP195     -0.2867
     95  CB        14.4260  -53.7920  -36.1670 C.3   195  ASP195      0.1410
     96  CG        15.2580  -54.0820  -37.3490 C.2   195  ASP195      0.3668
     97  OD1       14.7580  -54.7530  -38.2760 O.co2 195  ASP195     -0.2456
     98  OD2       16.4190  -53.6490  -37.3510 O.co2 195  ASP195     -0.2456
     99  N         11.8050  -60.9910  -37.9520 N.3   198  TRP198     -0.1241
    100  CA        11.7530  -61.9220  -39.1020 C.3   198  TRP198      0.1605
    101  C         11.7730  -63.4020  -38.7700 C.2   198  TRP198      0.2264
    102  O         11.4300  -64.2110  -39.6280 O.2   198  TRP198     -0.2867
    103  CB        12.9030  -61.6400  -40.0870 C.3   198  TRP198      0.0550
    104  CG        14.1150  -61.1550  -39.4240 C.ar  198  TRP198      0.0003
    105  CD1       14.8780  -61.8370  -38.5140 C.ar  198  TRP198      0.0946
    106  CD2       14.7110  -59.8610  -39.5550 C.ar  198  TRP198      0.0152
    107  NE1       15.9170  -61.0430  -38.0710 N.ar  198  TRP198     -0.2442
    108  CE2       15.8410  -59.8280  -38.6940 C.ar  198  TRP198      0.0810
    109  CE3       14.4140  -58.7330  -40.3220 C.ar  198  TRP198      0.0012
    110  CZ2       16.6690  -58.7100  -38.5780 C.ar  198  TRP198      0.0191
    111  CZ3       15.2370  -57.6240  -40.1990 C.ar  198  TRP198      0.0001
    112  CH2       16.3530  -57.6250  -39.3360 C.ar  198  TRP198      0.0015
    113  N          6.7030  -53.6310  -40.0550 N.3   228  ARG228     -0.1245
    114  CA         7.7330  -54.6520  -39.8660 C.3   228  ARG228      0.1563
    115  C          7.5560  -55.4490  -38.5590 C.2   228  ARG228      0.2260
    116  O          8.0360  -56.5850  -38.4370 O.2   228  ARG228     -0.2867
    117  CB         9.1070  -53.9940  -39.8970 C.3   228  ARG228      0.0307
    118  CG        10.2680  -54.9270  -39.5810 C.3   228  ARG228      0.0489
    119  CD        11.5770  -54.3110  -40.0810 C.3   228  ARG228      0.2205
    120  NE        11.6950  -54.3770  -41.5240 N.pl3 228  ARG228     -0.0865
    121  CZ        12.2530  -53.4370  -42.2880 C.cat 228  ARG228      0.5346
    122  NH1       12.7270  -52.3230  -41.7500 N.pl3 228  ARG228      0.1354
    123  NH2       12.3300  -53.6180  -43.6030 N.pl3 228  ARG228      0.1354
    124  N         10.2030  -50.1650  -44.7680 N.3   252  GLY252     -0.1225
    125  CA        11.0600  -51.1260  -45.4070 C.3   252  GLY252      0.1811
    126  C         11.5290  -50.8730  -46.8040 C.2   252  GLY252      0.2280
    127  O         11.5570  -51.7760  -47.6270 O.2   252  GLY252     -0.2866
    128  N         14.7530  -50.3200  -47.5610 N.3   254  GLU254     -0.1231
    129  CA        16.1680  -50.1100  -47.2530 C.3   254  GLU254      0.1699
    130  C         17.0760  -50.2860  -48.4620 C.2   254  GLU254      0.2592
    131  O         17.9920  -49.4820  -48.6340 O.2   254  GLU254     -0.2718
    132  CB        16.6410  -50.9950  -46.0990 C.3   254  GLU254      0.0402
    133  CG        16.2470  -50.4770  -44.7310 C.3   254  GLU254      0.1161
    134  CD        14.8370  -50.8570  -44.3210 C.2   254  GLU254      0.3649
    135  OE1       14.4530  -50.4980  -43.1910 O.co2 254  GLU254     -0.2457
    136  OE2       14.1150  -51.5180  -45.1020 O.co2 254  GLU254     -0.2457
    137  N         16.8300  -51.3070  -49.2940 N.am  255  ARG255     -0.1966
    138  CA        17.6680  -51.4550  -50.4980 C.3   255  ARG255      0.1729
    139  C         17.5790  -50.3300  -51.6070 C.2   255  ARG255      0.2616
    140  O         18.6470  -49.9130  -52.0370 O.2   255  ARG255     -0.2715
    141  CB        17.9640  -52.9070  -50.9810 C.3   255  ARG255      0.0348
    142  CG        16.8210  -53.9230  -51.1110 C.3   255  ARG255      0.0492
    143  CD        17.0300  -54.7740  -52.3980 C.3   255  ARG255      0.2205
    144  NE        16.4520  -54.1210  -53.5880 N.pl3 255  ARG255     -0.0865
    145  CZ        16.8930  -54.2610  -54.8440 C.cat 255  ARG255      0.5346
    146  NH1       17.9510  -55.0230  -55.1220 N.pl3 255  ARG255      0.1354
    147  NH2       16.2770  -53.6190  -55.8340 N.pl3 255  ARG255      0.1354
    148  N         16.4380  -49.8380  -52.1340 N.am  256  ARG256     -0.1977
    149  CA        15.1700  -50.4790  -52.4730 C.3   256  ARG256      0.1597
    150  C         14.0170  -49.4430  -52.5130 C.2   256  ARG256      0.2287
    151  O         12.9980  -49.7380  -51.9240 O.2   256  ARG256     -0.2864
    152  CB        14.7880  -51.6180  -51.4870 C.3   256  ARG256      0.0334
    153  CG        13.6230  -52.5640  -51.9380 C.3   256  ARG256      0.0492
    154  CD        13.0420  -53.3590  -50.7480 C.3   256  ARG256      0.2205
    155  NE        11.5900  -53.5750  -50.8780 N.pl3 256  ARG256     -0.0865
    156  CZ        10.7490  -53.7240  -49.8490 C.cat 256  ARG256      0.5346
    157  NH1       11.1990  -53.6730  -48.6010 N.pl3 256  ARG256      0.1354
    158  NH2        9.4490  -53.9170  -50.0600 N.pl3 256  ARG256      0.1354
    159  N         25.9650  -50.1840  -46.6230 N.3   280  ASN280     -0.1240
    160  CA        25.3000  -50.9050  -45.5720 C.3   280  ASN280      0.1653
    161  C         25.9500  -50.7910  -44.1920 C.2   280  ASN280      0.2266
    162  O         26.2310  -51.8000  -43.5630 O.2   280  ASN280     -0.2867
    163  CB        25.1220  -52.3880  -45.9290 C.3   280  ASN280      0.1155
    164  CG        24.1140  -53.0760  -45.0030 C.2   280  ASN280      0.2627
    165  OD1       23.2940  -52.4060  -44.3650 O.2   280  ASN280     -0.2716
    166  ND2       24.1630  -54.4090  -44.9320 N.am  280  ASN280     -0.0877
    167  N         24.9830  -49.1150  -40.5210 N.3   282  TRP282     -0.1241
    168  CA        24.0640  -48.3660  -39.6570 C.3   282  TRP282      0.1605
    169  C         24.7550  -47.8750  -38.3900 C.2   282  TRP282      0.2264
    170  O         24.7080  -46.6950  -38.0900 O.2   282  TRP282     -0.2867
    171  CB        22.8160  -49.1540  -39.3020 C.3   282  TRP282      0.0550
    172  CG        22.0170  -49.6360  -40.5090 C.ar  282  TRP282      0.0003
    173  CD1       22.2330  -50.7720  -41.2310 C.ar  282  TRP282      0.0946
    174  CD2       20.8780  -48.9950  -41.0950 C.ar  282  TRP282      0.0152
    175  NE1       21.2930  -50.8810  -42.2330 N.ar  282  TRP282     -0.2442
    176  CE2       20.4540  -49.7990  -42.1730 C.ar  282  TRP282      0.0810
    177  CE3       20.1810  -47.8150  -40.8150 C.ar  282  TRP282      0.0012
    178  CZ2       19.3540  -49.4570  -42.9780 C.ar  282  TRP282      0.0191
    179  CZ3       19.1020  -47.4740  -41.6040 C.ar  282  TRP282      0.0001
    180  CH2       18.6930  -48.2920  -42.6780 C.ar  282  TRP282      0.0015
@<TRIPOS>BOND
     1   147   145    1
     2   146   145    1
     3   145   144    2
     4   144   143    1
     5   150   149    1
     6   150   151    2
     7   149   148    1
     8   149   152    1
     9   143   142    1
    10   148   139   am
    11   140   139    2
    12   153   152    1
    13   153   154    1
    14   139   138    1
    15   142   141    1
    16   141   138    1
    17   155   154    1
    18   155   156    2
    19   138   137    1
    20   158   156    1
    21   156   157    1
    22   137   130   am
    23   131   130    2
    24   130   129    1
    25   127   126    2
    26   128   129    1
    27   129   132    1
    28   126   125    1
    29   159   160    1
    30   132   133    1
    31   163   160    1
    32   163   164    1
    33   160   161    1
    34   125   124    1
    35   136   134   ar
    36   164   166   am
    37   164   165    2
    38   133   134    1
    39   134   135   ar
    40   161   162    2
    41   123   121    1
    42   178   180   ar
    43   178   176   ar
    44   180   179   ar
    45   121   122    1
    46   121   120    2
    47   175   176   ar
    48   175   173   ar
    49   176   174   ar
    50   179   177   ar
    51   120   119    1
    52   173   172   ar
    53   174   177   ar
    54   174   172   ar
    55   167   168    1
    56   172   171    1
    57   109   111   ar
    58   109   106   ar
    59   111   112   ar
    60   103   104    1
    61   103   100    1
    62   119   118    1
    63   113   114    1
    64    88    90   ar
    65    88    86   ar
    66   117   114    1
    67   117   118    1
    68   114   115    1
    69   168   171    1
    70   168   169    1
    71   102   101    2
    72   106   104   ar
    73   106   108   ar
    74    85    86   ar
    75    85    83   ar
    76   104   105   ar
    77    90    89   ar
    78   112   110   ar
    79    86    84   ar
    80    30    28   ar
    81   100   101    1
    82   100    99    1
    83     7     9   ar
    84     7     6   ar
    85   108   110   ar
    86   108   107   ar
    87   115   116    2
    88   105   107   ar
    89     5     6    1
    90     5     2    1
    91    39    40   ar
    92    39    37   ar
    93    42    40   ar
    94    42    44   ar
    95     9    11   ar
    96     1     2    1
    97   169   170    2
    98    29    28   ar
    99    40    38   ar
   100    83    82   ar
   101    37    36   ar
   102    97    96   ar
   103    44    43   ar
   104    28    27    1
   105    38    36   ar
   106    38    41   ar
   107    36    35    1
   108    43    41   ar
   109    89    87   ar
   110     6     8   ar
   111    35    32    1
   112    84    82   ar
   113    84    87   ar
   114     2     3    1
   115    20    21   ar
   116    20    18   ar
   117    98    96   ar
   118    96    95    1
   119     4     3    2
   120    82    81    1
   121    11    10   ar
   122    21    19   ar
   123    18    17   ar
   124    27    26    1
   125    22    23    1
   126     8    10   ar
   127    32    31    1
   128    32    33    1
   129    31    24   am
   130    34    33    2
   131    19    17   ar
   132    17    16    1
   133    64    62   ar
   134    64    63   ar
   135    95    92    1
   136    92    93    1
   137    92    91    1
   138    81    78    1
   139    26    23    1
   140    16    13    1
   141    23    24    1
   142    24    25    2
   143    93    94    2
   144    62    60   ar
   145    63    61   ar
   146    73    71   ar
   147    73    75   ar
   148    54    53   ar
   149    54    52   ar
   150    78    79    1
   151    78    77    1
   152    71    70   ar
   153    53    51   ar
   154    12    13    1
   155    79    80    2
   156    76    75    1
   157    13    14    1
   158    75    74   ar
   159    52    50   ar
   160    61    60   ar
   161    60    59    1
   162    15    14    2
   163    70    69    1
   164    70    72   ar
   165    51    50   ar
   166    69    66    1
   167    50    49    1
   168    74    72   ar
   169    59    56    1
   170    66    65    1
   171    66    67    1
   172    55    56    1
   173    55    47   am
   174    49    46    1
   175    56    57    1
   176    67    68    2
   177    46    47    1
   178    46    45    1
   179    47    48    2
   180    57    58    2
