@<TRIPOS>MOLECULE
tmp/2wvvC00.pdb
 156 155 0 0 0
SMALL
GASTEIGER

@<TRIPOS>ATOM
      1  N         -0.5280  -36.2560   -0.2390 N.3    32  HIS32      -0.1241
      2  CA        -1.9160  -36.0840   -0.6520 C.3    32  HIS32       0.1621
      3  C         -1.9780  -34.9480   -1.6560 C.2    32  HIS32       0.2264
      4  O         -1.8330  -33.7780   -1.2890 O.2    32  HIS32      -0.2867
      5  CB        -2.8180  -35.7380    0.5350 C.3    32  HIS32       0.0745
      6  CG        -3.2870  -36.9400    1.2890 C.ar   32  HIS32       0.0817
      7  ND1       -2.4700  -37.6390    2.1540 N.ar   32  HIS32      -0.2268
      8  CD2       -4.4800  -37.5740    1.2930 C.ar   32  HIS32       0.1154
      9  CE1       -3.1510  -38.6510    2.6680 C.ar   32  HIS32       0.1986
     10  NE2       -4.3640  -38.6510    2.1410 N.ar   32  HIS32      -0.2212
     11  N        -11.3260  -31.3750    7.0700 N.3    51  ALA51      -0.1245
     12  CA       -10.1750  -31.7590    6.2380 C.3    51  ALA51       0.1562
     13  C        -10.3970  -31.3500    4.7740 C.2    51  ALA51       0.2260
     14  O        -11.4510  -31.6210    4.2080 O.2    51  ALA51      -0.2867
     15  CB        -9.9390  -33.2710    6.3400 C.3    51  ALA51       0.0290
     16  N         -9.3270  -32.3180    1.8440 N.3    53  GLU53      -0.1231
     17  CA        -9.6010  -33.3300    0.8280 C.3    53  GLU53       0.1699
     18  C        -11.0580  -33.8140    0.8530 C.2    53  GLU53       0.2592
     19  O        -11.5400  -34.4650   -0.0940 O.2    53  GLU53      -0.2718
     20  CB        -8.5750  -34.4780    0.9220 C.3    53  GLU53       0.0402
     21  CG        -8.7120  -35.3920    2.1550 C.3    53  GLU53       0.1161
     22  CD        -8.2160  -34.8170    3.4700 C.2    53  GLU53       0.3649
     23  OE1       -7.6420  -33.6970    3.5400 O.co2  53  GLU53      -0.2457
     24  OE2       -8.4220  -35.5210    4.4970 O.co2  53  GLU53      -0.2457
     25  N        -11.7650  -33.4500    1.9200 N.am   54  TRP54      -0.1976
     26  CA       -13.1850  -33.7480    2.0440 C.3    54  TRP54       0.1640
     27  C        -14.0960  -32.5610    1.6640 C.2    54  TRP54       0.2290
     28  O        -15.3100  -32.6410    1.8700 O.2    54  TRP54      -0.2864
     29  CB       -13.5240  -34.1780    3.4800 C.3    54  TRP54       0.0576
     30  CG       -13.2480  -35.6380    3.7960 C.ar   54  TRP54       0.0006
     31  CD1      -12.0390  -36.1770    4.1560 C.ar   54  TRP54       0.0946
     32  CD2      -14.1890  -36.7240    3.7890 C.ar   54  TRP54       0.0152
     33  NE1      -12.1720  -37.5360    4.3510 N.ar   54  TRP54      -0.2442
     34  CE2      -13.4760  -37.8980    4.1450 C.ar   54  TRP54       0.0810
     35  CE3      -15.5630  -36.8180    3.5380 C.ar   54  TRP54       0.0012
     36  CZ2      -14.0970  -39.1650    4.2540 C.ar   54  TRP54       0.0191
     37  CZ3      -16.1870  -38.0790    3.6450 C.ar   54  TRP54       0.0001
     38  CH2      -15.4510  -39.2310    3.9910 C.ar   54  TRP54       0.0015
     39  N         -7.8210  -40.1860   -4.8680 N.3   101  HIS101     -0.1226
     40  CA        -8.4790  -39.9910   -3.5630 C.3   101  HIS101      0.1752
     41  C         -9.9970  -40.1820   -3.7140 C.2   101  HIS101      0.2596
     42  O        -10.4740  -40.6040   -4.7570 O.2   101  HIS101     -0.2718
     43  CB        -8.1030  -38.6160   -2.9340 C.3   101  HIS101      0.0759
     44  CG        -8.1590  -38.6120   -1.4350 C.ar  101  HIS101      0.0818
     45  ND1       -9.3150  -38.3420   -0.7330 N.ar  101  HIS101     -0.2268
     46  CD2       -7.2160  -38.9000   -0.5050 C.ar  101  HIS101      0.1154
     47  CE1       -9.0880  -38.4810    0.5580 C.ar  101  HIS101      0.1986
     48  NE2       -7.8130  -38.7930    0.7240 N.ar  101  HIS101     -0.2212
     49  N        -10.7640  -39.9030   -2.6600 N.am  102  HIS102     -0.1975
     50  CA       -12.2140  -40.0760   -2.7290 C.3   102  HIS102      0.1656
     51  C        -12.8570  -39.3670   -3.9200 C.2   102  HIS102      0.2291
     52  O        -13.7760  -39.9050   -4.5170 O.2   102  HIS102     -0.2864
     53  CB       -12.8880  -39.6100   -1.4270 C.3   102  HIS102      0.0771
     54  CG       -12.3570  -40.2900   -0.2080 C.ar  102  HIS102      0.0820
     55  ND1      -12.4210  -39.7320    1.0510 N.ar  102  HIS102     -0.2267
     56  CD2      -11.7410  -41.4870   -0.0590 C.ar  102  HIS102      0.1154
     57  CE1      -11.8650  -40.5570    1.9230 C.ar  102  HIS102      0.1986
     58  NE2      -11.4430  -41.6260    1.2730 N.ar  102  HIS102     -0.2212
     59  N         -1.2320  -45.0830   -2.2810 N.3   144  TYR144     -0.1241
     60  CA        -2.5440  -44.8910   -1.6600 C.3   144  TYR144      0.1605
     61  C         -3.5850  -45.0880   -2.7650 C.2   144  TYR144      0.2264
     62  O         -3.3990  -44.6140   -3.8770 O.2   144  TYR144     -0.2867
     63  CB        -2.6130  -43.4480   -1.1020 C.3   144  TYR144      0.0534
     64  CG        -4.0170  -43.0140   -0.6850 C.ar  144  TYR144     -0.0201
     65  CD1       -4.3330  -42.8400    0.6580 C.ar  144  TYR144     -0.0009
     66  CD2       -5.0100  -42.7720   -1.6360 C.ar  144  TYR144     -0.0009
     67  CE1       -5.6500  -42.4410    1.0570 C.ar  144  TYR144      0.0417
     68  CE2       -6.3060  -42.3980   -1.2640 C.ar  144  TYR144      0.0417
     69  CZ        -6.6100  -42.2380    0.0860 C.ar  144  TYR144      0.1957
     70  OH        -7.8890  -41.8730    0.4540 O.3   144  TYR144     -0.2866
     71  N         -1.8660  -49.0670   -0.2450 N.3   193  TRP193     -0.1241
     72  CA        -2.4840  -48.6440    0.9940 C.3   193  TRP193      0.1605
     73  C         -3.8920  -48.1930    0.6610 C.2   193  TRP193      0.2264
     74  O         -4.0970  -47.0980    0.1280 O.2   193  TRP193     -0.2867
     75  CB        -1.6750  -47.5060    1.6110 C.3   193  TRP193      0.0550
     76  CG        -1.9580  -47.2020    3.0560 C.ar  193  TRP193      0.0003
     77  CD1       -1.3140  -47.7230    4.1570 C.ar  193  TRP193      0.0946
     78  CD2       -2.9210  -46.2770    3.5560 C.ar  193  TRP193      0.0152
     79  NE1       -1.8290  -47.1700    5.3120 N.ar  193  TRP193     -0.2442
     80  CE2       -2.8030  -46.2650    4.9680 C.ar  193  TRP193      0.0810
     81  CE3       -3.8690  -45.4380    2.9460 C.ar  193  TRP193      0.0012
     82  CZ2       -3.6140  -45.4630    5.7830 C.ar  193  TRP193      0.0191
     83  CZ3       -4.6750  -44.6320    3.7620 C.ar  193  TRP193      0.0001
     84  CH2       -4.5430  -44.6560    5.1620 C.ar  193  TRP193      0.0015
     85  N         -7.8810  -47.0880    1.1020 N.3   195  ASP195     -0.1239
     86  CA        -8.6610  -46.1980    1.9570 C.3   195  ASP195      0.1674
     87  C        -10.0830  -46.2040    1.4160 C.2   195  ASP195      0.2266
     88  O        -10.3500  -46.7390    0.3280 O.2   195  ASP195     -0.2867
     89  CB        -8.0470  -44.7840    1.9330 C.3   195  ASP195      0.1410
     90  CG        -8.5100  -43.8950    3.0760 C.2   195  ASP195      0.3668
     91  OD1       -9.0070  -44.4160    4.1010 O.co2 195  ASP195     -0.2456
     92  OD2       -8.3370  -42.6530    2.9570 O.co2 195  ASP195     -0.2456
     93  N        -14.8020  -48.4820    4.2240 N.3   198  TRP198     -0.1241
     94  CA       -15.6220  -48.6400    5.4290 C.3   198  TRP198      0.1605
     95  C        -17.1220  -48.6730    5.1630 C.2   198  TRP198      0.2264
     96  O        -17.8960  -48.9940    6.0660 O.2   198  TRP198     -0.2867
     97  CB       -15.3310  -47.5150    6.4280 C.3   198  TRP198      0.0550
     98  CG       -15.2960  -46.1430    5.7850 C.ar  198  TRP198      0.0003
     99  CD1      -16.3630  -45.4080    5.3440 C.ar  198  TRP198      0.0946
    100  CD2      -14.1230  -45.3760    5.4860 C.ar  198  TRP198      0.0152
    101  NE1      -15.9170  -44.2250    4.7840 N.ar  198  TRP198     -0.2442
    102  CE2      -14.5490  -44.1810    4.8660 C.ar  198  TRP198      0.0810
    103  CE3      -12.7490  -45.5830    5.6880 C.ar  198  TRP198      0.0012
    104  CZ2      -13.6520  -43.1880    4.4570 C.ar  198  TRP198      0.0191
    105  CZ3      -11.8570  -44.6000    5.2670 C.ar  198  TRP198      0.0001
    106  CH2      -12.3170  -43.4190    4.6580 C.ar  198  TRP198      0.0015
    107  N         -6.4210  -52.0020    6.1930 N.3   228  ARG228     -0.1245
    108  CA        -7.6130  -51.1840    5.9300 C.3   228  ARG228      0.1563
    109  C         -8.4310  -51.6540    4.7200 C.2   228  ARG228      0.2260
    110  O         -9.6620  -51.4580    4.6600 O.2   228  ARG228     -0.2867
    111  CB        -7.2070  -49.7180    5.7660 C.3   228  ARG228      0.0307
    112  CG        -8.3630  -48.7840    5.9920 C.3   228  ARG228      0.0489
    113  CD        -7.9370  -47.3350    5.9820 C.3   228  ARG228      0.2205
    114  NE        -7.0070  -46.9650    7.0500 N.pl3 228  ARG228     -0.0865
    115  CZ        -6.8930  -45.7260    7.5120 C.cat 228  ARG228      0.5346
    116  NH1       -7.6630  -44.7560    6.9910 N.pl3 228  ARG228      0.1354
    117  NH2       -6.0260  -45.4420    8.4820 N.pl3 228  ARG228      0.1354
    118  N         -4.0530  -43.6430   13.1200 N.3   254  GLU254     -0.1245
    119  CA        -4.1100  -42.4840   12.2650 C.3   254  GLU254      0.1567
    120  C         -4.3230  -41.3290   13.2040 C.2   254  GLU254      0.2260
    121  O         -5.3260  -41.2680   13.9460 O.2   254  GLU254     -0.2867
    122  CB        -5.2630  -42.6420   11.2660 C.3   254  GLU254      0.0388
    123  CG        -5.6190  -41.4040   10.4750 C.3   254  GLU254      0.1160
    124  CD        -6.5280  -41.7160    9.3050 C.2   254  GLU254      0.3649
    125  OE1       -6.2130  -42.6630    8.5450 O.co2 254  GLU254     -0.2457
    126  OE2       -7.5470  -41.0060    9.1280 O.co2 254  GLU254     -0.2457
    127  N         -5.8770  -32.0880   11.7080 N.3   280  ASN280     -0.1240
    128  CA        -6.5770  -32.9660   10.7580 C.3   280  ASN280      0.1653
    129  C         -6.7230  -32.3220    9.3790 C.2   280  ASN280      0.2266
    130  O         -7.8180  -31.9170    8.9900 O.2   280  ASN280     -0.2867
    131  CB        -7.9700  -33.3440   11.3060 C.3   280  ASN280      0.1155
    132  CG        -8.6130  -34.4950   10.5620 C.2   280  ASN280      0.2627
    133  OD1       -8.0220  -35.1010    9.6520 O.2   280  ASN280     -0.2716
    134  ND2       -9.8520  -34.8140   10.9530 N.am  280  ASN280     -0.0877
    135  N         -5.1570  -33.3630    5.5240 N.3   282  TRP282     -0.1241
    136  CA        -4.3060  -34.2140    4.6960 C.3   282  TRP282      0.1605
    137  C         -3.9660  -33.5630    3.3560 C.2   282  TRP282      0.2264
    138  O         -2.7960  -33.3620    3.0400 O.2   282  TRP282     -0.2867
    139  CB        -4.9250  -35.6120    4.5190 C.3   282  TRP282      0.0550
    140  CG        -5.1710  -36.3110    5.8160 C.ar  282  TRP282      0.0003
    141  CD1       -6.2420  -36.1500    6.6470 C.ar  282  TRP282      0.0946
    142  CD2       -4.3300  -37.2940    6.4280 C.ar  282  TRP282      0.0152
    143  NE1       -6.1250  -36.9810    7.7400 N.ar  282  TRP282     -0.2442
    144  CE2       -4.9610  -37.6950    7.6240 C.ar  282  TRP282      0.0810
    145  CE3       -3.1050  -37.8820    6.0700 C.ar  282  TRP282      0.0012
    146  CZ2       -4.4010  -38.6530    8.4810 C.ar  282  TRP282      0.0191
    147  CZ3       -2.5440  -38.8360    6.9320 C.ar  282  TRP282      0.0001
    148  CH2       -3.1950  -39.2080    8.1100 C.ar  282  TRP282      0.0015
    149  N        -11.9010  -41.6840   10.7740 N.3   442  LEU442     -0.1245
    150  CA       -12.7340  -42.7290   10.1810 C.3   442  LEU442      0.1561
    151  C        -11.8170  -43.6330    9.3590 C.2   442  LEU442      0.2260
    152  O        -11.3180  -43.2310    8.3040 O.2   442  LEU442     -0.2867
    153  CB       -13.8390  -42.1010    9.3170 C.3   442  LEU442      0.0270
    154  CG       -14.8420  -42.9510    8.5310 C.3   442  LEU442      0.0019
    155  CD1      -15.8030  -43.7100    9.4370 C.3   442  LEU442      0.0001
    156  CD2      -15.6170  -42.0330    7.6010 C.3   442  LEU442      0.0001
@<TRIPOS>BOND
     1    39    40    1
     2    42    41    2
     3    52    51    2
     4    51    50    1
     5    62    61    2
     6    41    40    1
     7    41    49   am
     8    40    43    1
     9    43    44    1
    10    61    60    1
    11    50    49    1
    12    50    53    1
    13    59    60    1
    14    60    63    1
    15     3     4    2
    16     3     2    1
    17    66    68   ar
    18    66    64   ar
    19    44    45   ar
    20    44    46   ar
    21    53    54    1
    22    68    69   ar
    23    63    64    1
    24    45    47   ar
    25    64    65   ar
    26     2     1    1
    27     2     5    1
    28    46    48   ar
    29    71    72    1
    30    54    56   ar
    31    54    55   ar
    32    19    18    2
    33    56    58   ar
    34    69    70    1
    35    69    67   ar
    36    74    73    2
    37    88    87    2
    38     5     6    1
    39    47    48   ar
    40    65    67   ar
    41    73    72    1
    42    17    18    1
    43    17    20    1
    44    17    16    1
    45    18    25   am
    46    20    21    1
    47    72    75    1
    48    55    57   ar
    49    85    86    1
    50    58    57   ar
    51     6     8   ar
    52     6     7   ar
    53     8    10   ar
    54    87    86    1
    55    75    76    1
    56    27    28    2
    57    27    26    1
    58    25    26    1
    59    89    86    1
    60    89    90    1
    61    26    29    1
    62    10     9   ar
    63     7     9   ar
    64    21    22    1
    65    81    78   ar
    66    81    83   ar
    67    92    90   ar
    68   138   137    2
    69    76    78   ar
    70    76    77   ar
    71    90    91   ar
    72   137   136    1
    73    22    23   ar
    74    22    24   ar
    75    29    30    1
    76    35    37   ar
    77    35    32   ar
    78    78    80   ar
    79    37    38   ar
    80    83    84   ar
    81    32    30   ar
    82    32    34   ar
    83    30    31   ar
    84    38    36   ar
    85    34    36   ar
    86    34    33   ar
    87    31    33   ar
    88    77    79   ar
    89    14    13    2
    90    93    94    1
    91   104   106   ar
    92   104   102   ar
    93   139   136    1
    94   139   140    1
    95   106   105   ar
    96   110   109    2
    97   136   135    1
    98   109   108    1
    99    13    12    1
   100   101   102   ar
   101   101    99   ar
   102   102   100   ar
   103    80    79   ar
   104    80    82   ar
   105    84    82   ar
   106    95    94    1
   107    95    96    2
   108   105   103   ar
   109    99    98   ar
   110    94    97    1
   111   100   103   ar
   112   100    98   ar
   113   111   108    1
   114   111   112    1
   115    98    97    1
   116   140   142   ar
   117   140   141   ar
   118   108   107    1
   119   113   112    1
   120   113   114    1
   121   145   142   ar
   122   145   147   ar
   123    12    15    1
   124    12    11    1
   125   142   144   ar
   126   141   143   ar
   127   147   148   ar
   128   116   115    1
   129   114   115    2
   130   115   117    1
   131   156   154    1
   132   144   143   ar
   133   144   146   ar
   134   148   146   ar
   135   152   151    2
   136   154   153    1
   137   154   155    1
   138   125   124   ar
   139   130   129    2
   140   126   124   ar
   141   124   123    1
   142   153   150    1
   143   151   150    1
   144   129   128    1
   145   133   132    2
   146   150   149    1
   147   123   122    1
   148   132   134   am
   149   132   131    1
   150   128   131    1
   151   128   127    1
   152   122   119    1
   153   119   118    1
   154   119   120    1
   155   120   121    2
