@<TRIPOS>MOLECULE
tmp/2wvzB00.pdb
 147 144 0 0 0
SMALL
GASTEIGER

@<TRIPOS>ATOM
      1  N         -1.8620  -28.8860  109.1440 N.3    67  SER67      -0.1217
      2  CA        -1.8780  -27.4740  109.4860 C.3    67  SER67       0.1889
      3  C         -2.6700  -27.3100  110.7860 C.2    67  SER67       0.2288
      4  O         -3.4190  -28.2120  111.1630 O.2    67  SER67      -0.2866
      5  CB        -2.5720  -26.7070  108.3810 C.3    67  SER67       0.2089
      6  OG        -3.9790  -26.8880  108.5020 O.3    67  SER67      -0.2183
      7  N         -5.1370  -25.4100  111.0840 N.3    69  TRP69      -0.1227
      8  CA        -6.5470  -25.2490  110.6960 C.3    69  TRP69       0.1737
      9  C         -7.1780  -26.5890  110.3870 C.2    69  TRP69       0.2595
     10  O         -8.3250  -26.8380  110.7410 O.2    69  TRP69      -0.2718
     11  CB        -6.6770  -24.3460  109.4770 C.3    69  TRP69       0.0564
     12  CG        -5.7480  -23.2170  109.5450 C.ar   69  TRP69       0.0003
     13  CD1       -4.5450  -23.0680  108.8760 C.ar   69  TRP69       0.0946
     14  CD2       -5.8930  -22.0770  110.3720 C.ar   69  TRP69       0.0152
     15  NE1       -3.9640  -21.8750  109.2230 N.ar   69  TRP69      -0.2442
     16  CE2       -4.7650  -21.2530  110.1530 C.ar   69  TRP69       0.0810
     17  CE3       -6.8740  -21.6600  111.2700 C.ar   69  TRP69       0.0012
     18  CZ2       -4.6000  -20.0320  110.8100 C.ar   69  TRP69       0.0191
     19  CZ3       -6.7060  -20.4520  111.9240 C.ar   69  TRP69       0.0001
     20  CH2       -5.5790  -19.6530  111.6900 C.ar   69  TRP69       0.0015
     21  N         -6.4310  -27.4460  109.7040 N.am   70  ILE70      -0.1980
     22  CA        -6.9200  -28.7830  109.4200 C.3    70  ILE70       0.1595
     23  C         -6.9500  -29.6130  110.6950 C.2    70  ILE70       0.2287
     24  O         -7.9270  -30.3390  110.9360 O.2    70  ILE70      -0.2864
     25  CB        -6.0900  -29.5000  108.3360 C.3    70  ILE70       0.0276
     26  CG1       -6.3830  -28.8840  106.9640 C.3    70  ILE70       0.0022
     27  CG2       -6.4350  -30.9870  108.2980 C.3    70  ILE70       0.0022
     28  CD1       -7.8240  -28.9890  106.5680 C.3    70  ILE70       0.0001
     29  N         -5.1360  -27.2740   96.4570 N.3   328  TRP328     -0.1227
     30  CA        -5.2670  -25.8280   96.3680 C.3   328  TRP328      0.1737
     31  C         -3.9600  -25.0980   96.6650 C.2   328  TRP328      0.2595
     32  O         -3.6750  -24.0930   96.0260 O.2   328  TRP328     -0.2718
     33  CB        -6.3860  -25.3130   97.2730 C.3   328  TRP328      0.0564
     34  CG        -6.6530  -23.8190   97.1000 C.ar  328  TRP328      0.0003
     35  CD1       -7.5250  -23.2470   96.2190 C.ar  328  TRP328      0.0946
     36  CD2       -6.0570  -22.7240   97.8390 C.ar  328  TRP328      0.0152
     37  NE1       -7.5050  -21.8710   96.3510 N.ar  328  TRP328     -0.2442
     38  CE2       -6.6160  -21.5240   97.3330 C.ar  328  TRP328      0.0810
     39  CE3       -5.1030  -22.6430   98.8710 C.ar  328  TRP328      0.0012
     40  CZ2       -6.2580  -20.2550   97.8230 C.ar  328  TRP328      0.0191
     41  CZ3       -4.7490  -21.3700   99.3700 C.ar  328  TRP328      0.0001
     42  CH2       -5.3300  -20.2000   98.8450 C.ar  328  TRP328      0.0015
     43  N         -3.1870  -25.5760   97.6410 N.am  329  ASP329     -0.1974
     44  CA        -1.8410  -25.0380   97.8720 C.3   329  ASP329      0.1709
     45  C         -0.8330  -25.6540   96.9230 C.2   329  ASP329      0.2293
     46  O         -0.0180  -24.9520   96.3450 O.2   329  ASP329     -0.2864
     47  CB        -1.2940  -25.3560   99.2900 C.3   329  ASP329      0.1436
     48  CG        -2.1850  -24.8470  100.4350 C.2   329  ASP329      0.3671
     49  OD1       -2.6190  -25.7290  101.2230 O.co2 329  ASP329     -0.2456
     50  OD2       -2.4130  -23.6050  100.5610 O.co2 329  ASP329     -0.2456
     51  N         -8.7710  -31.5010   99.2480 N.3   366  TRP366     -0.1241
     52  CA        -8.0870  -31.4670  100.5560 C.3   366  TRP366      0.1605
     53  C         -8.3250  -32.8220  101.2070 C.2   366  TRP366      0.2264
     54  O         -9.4720  -33.2630  101.2990 O.2   366  TRP366     -0.2867
     55  CB        -8.6400  -30.3630  101.4780 C.3   366  TRP366      0.0550
     56  CG        -7.5740  -29.4230  101.9920 C.ar  366  TRP366      0.0003
     57  CD1       -7.5150  -28.0720  101.7800 C.ar  366  TRP366      0.0946
     58  CD2       -6.3940  -29.7540  102.7480 C.ar  366  TRP366      0.0152
     59  NE1       -6.3830  -27.5410  102.3610 N.ar  366  TRP366     -0.2442
     60  CE2       -5.6770  -28.5500  102.9590 C.ar  366  TRP366      0.0810
     61  CE3       -5.8820  -30.9400  103.2810 C.ar  366  TRP366      0.0012
     62  CZ2       -4.4750  -28.5030  103.6740 C.ar  366  TRP366      0.0191
     63  CZ3       -4.6800  -30.8890  103.9940 C.ar  366  TRP366      0.0001
     64  CH2       -3.9920  -29.6770  104.1780 C.ar  366  TRP366      0.0015
     65  N        -12.3160  -27.8860  102.6120 N.3   374  CYS374     -0.1221
     66  CA       -11.3650  -26.8230  102.8740 C.3   374  CYS374      0.1808
     67  C        -10.9430  -26.2310  101.5460 C.2   374  CYS374      0.2601
     68  O        -10.6130  -26.9680  100.6460 O.2   374  CYS374     -0.2717
     69  CB       -10.1490  -27.4000  103.6180 C.3   374  CYS374      0.0970
     70  SG        -9.0060  -26.1740  104.2480 S.3   374  CYS374     -0.0800
     71  N        -10.9960  -24.9100  101.4090 N.am  375  MET375     -0.1979
     72  CA       -10.5460  -24.2510  100.1830 C.3   375  MET375      0.1605
     73  C        -11.4290  -24.5830   98.9960 C.2   375  MET375      0.2287
     74  O        -12.5670  -25.0440   99.1600 O.2   375  MET375     -0.2864
     75  CB        -9.0850  -24.5860   99.8710 C.3   375  MET375      0.0413
     76  CG        -8.1840  -24.4040  101.0580 C.3   375  MET375      0.0598
     77  SD        -8.5460  -22.8320  101.8930 S.3   375  MET375     -0.1393
     78  CE        -8.0250  -21.6270  100.6940 C.3   375  MET375      0.0692
     79  N         -9.4270  -16.0150  100.4220 N.3   514  GLU514     -0.1245
     80  CA        -8.2930  -15.4760  101.2070 C.3   514  GLU514      0.1567
     81  C         -7.4550  -14.5450  100.3710 C.2   514  GLU514      0.2260
     82  O         -6.2330  -14.6960  100.2760 O.2   514  GLU514     -0.2867
     83  CB        -7.4140  -16.5930  101.7740 C.3   514  GLU514      0.0388
     84  CG        -8.1290  -17.5370  102.7420 C.3   514  GLU514      0.1160
     85  CD        -7.2480  -18.6960  103.2040 C.2   514  GLU514      0.3649
     86  OE1       -7.7670  -19.5520  103.9490 O.co2 514  GLU514     -0.2457
     87  OE2       -6.0410  -18.7500  102.8390 O.co2 514  GLU514     -0.2457
     88  N         -5.2300  -13.6210  109.7990 N.3   565  HIS565     -0.1226
     89  CA        -3.7800  -13.4790  109.7270 C.3   565  HIS565      0.1752
     90  C         -3.2440  -13.1610  108.3240 C.2   565  HIS565      0.2595
     91  O         -2.3290  -12.3570  108.1700 O.2   565  HIS565     -0.2718
     92  CB        -3.0730  -14.7020  110.2930 C.3   565  HIS565      0.0759
     93  CG        -3.3670  -15.9750  109.5630 C.ar  565  HIS565      0.0818
     94  ND1       -2.4100  -16.6460  108.8270 N.ar  565  HIS565     -0.2268
     95  CD2       -4.4960  -16.7200  109.4880 C.ar  565  HIS565      0.1154
     96  CE1       -2.9420  -17.7470  108.3260 C.ar  565  HIS565      0.1986
     97  NE2       -4.2090  -17.8060  108.7010 N.ar  565  HIS565     -0.2212
     98  N         -3.8030  -13.8040  107.3060 N.am  566  GLU566     -0.1979
     99  CA        -3.3940  -13.5580  105.9330 C.3   566  GLU566      0.1602
    100  C         -3.3830  -12.0580  105.6080 C.2   566  GLU566      0.2287
    101  O         -2.4780  -11.5700  104.9510 O.2   566  GLU566     -0.2864
    102  CB        -4.3300  -14.2830  104.9710 C.3   566  GLU566      0.0415
    103  CG        -4.0780  -15.7790  104.8450 C.3   566  GLU566      0.1163
    104  CD        -4.8700  -16.5980  105.8430 C.2   566  GLU566      0.3649
    105  OE1       -5.7260  -15.9980  106.5580 O.co2 566  GLU566     -0.2457
    106  OE2       -4.6130  -17.8330  105.9010 O.co2 566  GLU566     -0.2457
    107  N          0.4270  -15.8830  101.0740 N.3   582  ASN582     -0.1225
    108  CA        -0.6580  -16.7640  100.7550 C.3   582  ASN582      0.1785
    109  C         -0.5690  -17.1500   99.2760 C.2   582  ASN582      0.2597
    110  O          0.0450  -16.4420   98.4820 O.2   582  ASN582     -0.2718
    111  CB        -1.9940  -16.1320  101.1380 C.3   582  ASN582      0.1169
    112  CG        -3.0060  -17.1550  101.5590 C.2   582  ASN582      0.2627
    113  OD1       -2.6450  -18.2380  102.0090 O.2   582  ASN582     -0.2716
    114  ND2       -4.2810  -16.8370  101.3950 N.am  582  ASN582     -0.0877
    115  N         -1.1620  -18.2770   98.9040 N.am  583  GLN583     -0.1979
    116  CA        -0.8040  -18.9270   97.6390 C.3   583  GLN583      0.1601
    117  C         -1.2480  -18.2480   96.3380 C.2   583  GLN583      0.2287
    118  O         -0.5100  -18.2910   95.3350 O.2   583  GLN583     -0.2864
    119  CB        -1.2760  -20.3850   97.6410 C.3   583  GLN583      0.0394
    120  CG        -0.3810  -21.3200   98.4210 C.3   583  GLN583      0.0908
    121  CD        -0.4850  -21.0960   99.9090 C.2   583  GLN583      0.2608
    122  OE1       -1.4540  -20.4970  100.4040 O.2   583  GLN583     -0.2717
    123  NE2        0.5170  -21.5620  100.6390 N.am  583  GLN583     -0.0878
    124  N          1.7300  -18.8080  106.3110 N.3   623  ASP623     -0.1239
    125  CA         1.6390  -20.2640  106.4440 C.3   623  ASP623      0.1674
    126  C          2.4770  -21.0350  105.4220 C.2   623  ASP623      0.2266
    127  O          2.3460  -20.8340  104.2040 O.2   623  ASP623     -0.2867
    128  CB         0.1700  -20.7320  106.3820 C.3   623  ASP623      0.1410
    129  CG        -0.5700  -20.4960  107.6890 C.2   623  ASP623      0.3668
    130  OD1        0.0700  -19.9660  108.6140 O.co2 623  ASP623     -0.2456
    131  OD2       -1.7730  -20.8420  107.8080 O.co2 623  ASP623     -0.2456
    132  N          2.3200  -24.2580  104.6810 N.3   625  ASP625     -0.1225
    133  CA         1.3980  -25.0520  103.8960 C.3   625  ASP625      0.1805
    134  C          2.0000  -26.2710  103.1960 C.2   625  ASP625      0.2597
    135  O          1.9940  -26.3640  101.9720 O.2   625  ASP625     -0.2718
    136  CB         0.6710  -24.1560  102.9030 C.3   625  ASP625      0.1424
    137  CG        -0.3390  -23.2870  103.5780 C.2   625  ASP625      0.3668
    138  OD1       -1.0130  -23.8070  104.5080 O.co2 625  ASP625     -0.2456
    139  OD2       -0.4630  -22.1010  103.1890 O.co2 625  ASP625     -0.2456
    140  N          2.5300  -27.2030  103.9760 N.am  626  ASN626     -0.1974
    141  CA         2.7620  -28.5340  103.4620 C.3   626  ASN626      0.1688
    142  C          3.7060  -28.5260  102.2840 C.2   626  ASN626      0.2292
    143  O          3.6140  -29.3710  101.4100 O.2   626  ASN626     -0.2864
    144  CB         1.4300  -29.1300  103.0670 C.3   626  ASN626      0.1181
    145  CG         0.4250  -29.0220  104.1830 C.2   626  ASN626      0.2629
    146  OD1       -0.6380  -28.4120  104.0410 O.2   626  ASN626     -0.2716
    147  ND2        0.7820  -29.5760  105.3330 N.am  626  ASN626     -0.0877
@<TRIPOS>BOND
     1   118   117    2
     2    32    31    2
     3    35    37   ar
     4    35    34   ar
     5   117   116    1
     6    46    45    2
     7    37    38   ar
     8    30    29    1
     9    30    31    1
    10    30    33    1
    11    31    43   am
    12    45    44    1
    13    34    33    1
    14    34    36   ar
    15    38    40   ar
    16    38    36   ar
    17   116   119    1
    18   116   115    1
    19    43    44    1
    20   119   120    1
    21    40    42   ar
    22    36    39   ar
    23    44    47    1
    24   120   121    1
    25   110   109    2
    26    42    41   ar
    27    39    41   ar
    28   115   109   am
    29    73    74    2
    30    73    72    1
    31    51    52    1
    32   109   108    1
    33    47    48    1
    34    75    72    1
    35    75    76    1
    36   121   122    2
    37   121   123   am
    38    72    71    1
    39    82    81    2
    40    81    80    1
    41    79    80    1
    42    48    50   ar
    43    48    49   ar
    44    52    53    1
    45    52    55    1
    46    68    67    2
    47    78    77    1
    48   108   107    1
    49   108   111    1
    50    76    77    1
    51   111   112    1
    52    53    54    2
    53    80    83    1
    54   114   112   am
    55    71    67   am
    56   143   142    2
    57    55    56    1
    58    67    66    1
    59   112   113    2
    60    83    84    1
    61    57    56   ar
    62    57    59   ar
    63   135   134    2
    64    56    58   ar
    65   142   141    1
    66    59    60   ar
    67    65    66    1
    68    84    85    1
    69    58    60   ar
    70    58    61   ar
    71    87    85   ar
    72    66    69    1
    73   136   137    1
    74   136   133    1
    75    60    62   ar
    76   144   141    1
    77   144   145    1
    78   139   137   ar
    79   134   133    1
    80   134   140   am
    81    85    86   ar
    82    61    63   ar
    83   141   140    1
    84   137   138   ar
    85    69    70    1
    86    62    64   ar
    87   133   132    1
    88    63    64   ar
    89   146   145    2
    90   145   147   am
    91   127   126    2
    92   103   102    1
    93   103   104    1
    94   101   100    2
    95   102    99    1
    96   126   125    1
    97   100    99    1
    98   104   106   ar
    99   104   105   ar
   100    99    98    1
   101   124   125    1
   102   128   125    1
   103   128   129    1
   104    28    26    1
   105    26    25    1
   106    98    90   am
   107   129   131   ar
   108   129   130   ar
   109    91    90    2
   110    27    25    1
   111    90    89    1
   112    96    97   ar
   113    96    94   ar
   114    25    22    1
   115     5     6    1
   116     5     2    1
   117    97    95   ar
   118    94    93   ar
   119    13    15   ar
   120    13    12   ar
   121     1     2    1
   122    15    16   ar
   123    22    21    1
   124    22    23    1
   125    11    12    1
   126    11     8    1
   127     2     3    1
   128    95    93   ar
   129    12    14   ar
   130    93    92    1
   131    21     9   am
   132    89    88    1
   133    89    92    1
   134    16    14   ar
   135    16    18   ar
   136    14    17   ar
   137     9     8    1
   138     9    10    2
   139    23    24    2
   140     8     7    1
   141     3     4    2
   142    18    20   ar
   143    17    19   ar
   144    20    19   ar
