@<TRIPOS>MOLECULE
tmp/2ww0D00.pdb
 147 144 0 0 0
SMALL
GASTEIGER

@<TRIPOS>ATOM
      1  N        -15.0670  -25.3070   46.5150 N.3    67  SER67      -0.1217
      2  CA       -15.0990  -23.8660   46.3390 C.3    67  SER67       0.1889
      3  C        -15.7250  -23.5680   44.9980 C.2    67  SER67       0.2288
      4  O        -15.4930  -24.2950   44.0200 O.2    67  SER67      -0.2866
      5  CB       -13.6770  -23.2990   46.3630 C.3    67  SER67       0.2089
      6  OG       -13.6900  -21.8830   46.2810 O.3    67  SER67      -0.2183
      7  N        -14.7510  -21.5110   43.1020 N.3    69  TRP69      -0.1227
      8  CA       -13.6460  -21.2220   42.2130 C.3    69  TRP69       0.1737
      9  C        -13.0340  -22.4770   41.6680 C.2    69  TRP69       0.2595
     10  O        -12.6390  -22.5050   40.5240 O.2    69  TRP69      -0.2718
     11  CB       -12.6100  -20.4100   42.9430 C.3    69  TRP69       0.0564
     12  CG       -13.2220  -19.2510   43.6040 C.ar   69  TRP69       0.0003
     13  CD1      -13.4840  -19.1040   44.9400 C.ar   69  TRP69       0.0946
     14  CD2      -13.6830  -18.0590   42.9730 C.ar   69  TRP69       0.0152
     15  NE1      -14.0750  -17.8810   45.1810 N.ar   69  TRP69      -0.2442
     16  CE2      -14.2110  -17.2230   43.9900 C.ar   69  TRP69       0.0810
     17  CE3      -13.7010  -17.6140   41.6540 C.ar   69  TRP69       0.0012
     18  CZ2      -14.7360  -15.9720   43.7250 C.ar   69  TRP69       0.0191
     19  CZ3      -14.2340  -16.3750   41.4000 C.ar   69  TRP69       0.0001
     20  CH2      -14.7390  -15.5630   42.4330 C.ar   69  TRP69       0.0015
     21  N        -12.9660  -23.5110   42.5020 N.am   70  ILE70      -0.1980
     22  CA       -12.4000  -24.8010   42.1050 C.3    70  ILE70       0.1595
     23  C        -13.4140  -25.6590   41.3650 C.2    70  ILE70       0.2287
     24  O        -13.0520  -26.4590   40.5170 O.2    70  ILE70      -0.2864
     25  CB       -11.9450  -25.6180   43.3240 C.3    70  ILE70       0.0276
     26  CG1      -10.8770  -24.8630   44.1160 C.3    70  ILE70       0.0022
     27  CG2      -11.4600  -26.9770   42.8730 C.3    70  ILE70       0.0022
     28  CD1       -9.5600  -24.7800   43.4000 C.3    70  ILE70       0.0001
     29  N         -2.5080  -24.1170   51.1950 N.3   328  TRP328     -0.1227
     30  CA        -2.2260  -22.6930   51.2700 C.3   328  TRP328      0.1737
     31  C         -3.1850  -22.0120   52.2070 C.2   328  TRP328      0.2595
     32  O         -2.8050  -21.0660   52.8790 O.2   328  TRP328     -0.2718
     33  CB        -2.3320  -22.0460   49.9120 C.3   328  TRP328      0.0564
     34  CG        -1.9950  -20.6090   49.9490 C.ar  328  TRP328      0.0003
     35  CD1       -0.7480  -20.0560   49.8810 C.ar  328  TRP328      0.0946
     36  CD2       -2.9120  -19.5170   50.0820 C.ar  328  TRP328      0.0152
     37  NE1       -0.8340  -18.6850   49.9640 N.ar  328  TRP328     -0.2442
     38  CE2       -2.1530  -18.3310   50.0920 C.ar  328  TRP328      0.0810
     39  CE3       -4.3050  -19.4270   50.1980 C.ar  328  TRP328      0.0012
     40  CZ2       -2.7430  -17.0630   50.2130 C.ar  328  TRP328      0.0191
     41  CZ3       -4.8890  -18.1580   50.3130 C.ar  328  TRP328      0.0001
     42  CH2       -4.1060  -17.0020   50.3170 C.ar  328  TRP328      0.0015
     43  N         -4.4290  -22.5050   52.2410 N.am  329  ASP329     -0.1974
     44  CA        -5.4710  -22.0410   53.1760 C.3   329  ASP329      0.1709
     45  C         -5.3710  -22.6680   54.5520 C.2   329  ASP329      0.2293
     46  O         -5.4020  -21.9740   55.5430 O.2   329  ASP329     -0.2864
     47  CB        -6.8430  -22.4150   52.6620 C.3   329  ASP329      0.1436
     48  CG        -7.2750  -21.5750   51.5240 C.2   329  ASP329      0.3671
     49  OD1       -7.8640  -22.1430   50.5840 O.co2 329  ASP329     -0.2456
     50  OD2       -7.0220  -20.3500   51.5700 O.co2 329  ASP329     -0.2456
     51  N         -2.7550  -28.1890   46.3690 N.3   366  TRP366     -0.1241
     52  CA        -4.1960  -28.1340   46.1940 C.3   366  TRP366      0.1605
     53  C         -4.6330  -29.4560   45.5590 C.2   366  TRP366      0.2264
     54  O         -4.0760  -29.8540   44.5420 O.2   366  TRP366     -0.2867
     55  CB        -4.6270  -26.9390   45.3050 C.3   366  TRP366      0.0550
     56  CG        -5.6700  -26.0380   45.9870 C.ar  366  TRP366      0.0003
     57  CD1       -5.5080  -24.7420   46.3430 C.ar  366  TRP366      0.0946
     58  CD2       -6.9860  -26.3990   46.4170 C.ar  366  TRP366      0.0152
     59  NE1       -6.6310  -24.2640   46.9550 N.ar  366  TRP366     -0.2442
     60  CE2       -7.5530  -25.2640   47.0280 C.ar  366  TRP366      0.0810
     61  CE3       -7.7340  -27.5710   46.3560 C.ar  366  TRP366      0.0012
     62  CZ2       -8.8410  -25.2570   47.5620 C.ar  366  TRP366      0.0191
     63  CZ3       -9.0190  -27.5660   46.8860 C.ar  366  TRP366      0.0001
     64  CH2       -9.5600  -26.4110   47.4800 C.ar  366  TRP366      0.0015
     65  N         -3.4930  -24.2240   41.8810 N.3   374  CYS374     -0.1221
     66  CA        -4.1150  -23.1080   42.5520 C.3   374  CYS374      0.1808
     67  C         -3.2380  -22.7000   43.7030 C.2   374  CYS374      0.2601
     68  O         -2.7490  -23.5560   44.4370 O.2   374  CYS374     -0.2717
     69  CB        -5.5010  -23.4870   43.0570 C.3   374  CYS374      0.0970
     70  SG        -6.5430  -22.0560   43.2400 S.3   374  CYS374     -0.0800
     71  N         -3.0210  -21.3920   43.8260 N.am  375  MET375     -0.1979
     72  CA        -2.2160  -20.8240   44.9080 C.3   375  MET375      0.1605
     73  C         -0.7210  -21.1480   44.8450 C.2   375  MET375      0.2287
     74  O         -0.2060  -21.5730   43.8140 O.2   375  MET375     -0.2864
     75  CB        -2.7950  -21.2030   46.2720 C.3   375  MET375      0.0413
     76  CG        -4.2600  -20.8450   46.4150 C.3   375  MET375      0.0598
     77  SD        -4.6820  -19.1720   45.7990 S.3   375  MET375     -0.1393
     78  CE        -3.6400  -18.1070   46.7780 C.3   375  MET375      0.0692
     79  N         -3.0000  -12.0540   46.1760 N.3   514  GLU514     -0.1245
     80  CA        -4.2390  -11.6060   46.7990 C.3   514  GLU514      0.1567
     81  C         -3.9750  -10.8980   48.1160 C.2   514  GLU514      0.2260
     82  O         -4.5990  -11.1890   49.1580 O.2   514  GLU514     -0.2867
     83  CB        -5.1550  -12.7980   47.0490 C.3   514  GLU514      0.0388
     84  CG        -5.7560  -13.3280   45.7920 C.3   514  GLU514      0.1160
     85  CD        -6.1640  -14.7670   45.9350 C.2   514  GLU514      0.3649
     86  OE1       -6.0790  -15.4820   44.9040 O.co2 514  GLU514     -0.2457
     87  OE2       -6.5630  -15.1740   47.0580 O.co2 514  GLU514     -0.2457
     88  N        -13.0290   -9.5940   44.2970 N.3   565  HIS565     -0.1226
     89  CA       -13.8660   -9.6180   45.4940 C.3   565  HIS565      0.1752
     90  C        -13.0920   -9.4600   46.8200 C.2   565  HIS565      0.2595
     91  O        -13.5630   -8.8240   47.7710 O.2   565  HIS565     -0.2718
     92  CB       -14.7850  -10.8490   45.5260 C.3   565  HIS565      0.0759
     93  CG       -14.0700  -12.1400   45.7890 C.ar  565  HIS565      0.0818
     94  ND1      -13.9460  -12.6790   47.0530 N.ar  565  HIS565     -0.2268
     95  CD2      -13.4490  -13.0050   44.9490 C.ar  565  HIS565      0.1154
     96  CE1      -13.2770  -13.8140   46.9780 C.ar  565  HIS565      0.1986
     97  NE2      -12.9590  -14.0310   45.7150 N.ar  565  HIS565     -0.2212
     98  N        -11.8970  -10.0200   46.8990 N.am  566  GLU566     -0.1979
     99  CA       -11.1580   -9.9050   48.1450 C.3   566  GLU566      0.1602
    100  C        -10.6840   -8.4680   48.3950 C.2   566  GLU566      0.2287
    101  O        -10.5270   -8.0790   49.5450 O.2   566  GLU566     -0.2864
    102  CB       -10.0210  -10.9270   48.2200 C.3   566  GLU566      0.0415
    103  CG        -9.5220  -11.3440   46.8620 C.3   566  GLU566      0.1163
    104  CD        -9.9480  -12.7560   46.4220 C.2   566  GLU566      0.3649
    105  OE1      -10.4390  -12.8770   45.2620 O.co2 566  GLU566     -0.2457
    106  OE2       -9.7390  -13.7280   47.1900 O.co2 566  GLU566     -0.2457
    107  N         -9.1820  -12.6090   53.9700 N.3   582  ASN582     -0.1225
    108  CA        -8.2770  -13.4710   53.2230 C.3   582  ASN582      0.1785
    109  C         -7.1680  -14.0370   54.1150 C.2   582  ASN582      0.2597
    110  O         -6.8770  -13.5020   55.1870 O.2   582  ASN582     -0.2718
    111  CB        -7.7200  -12.7880   51.9430 C.3   582  ASN582      0.1169
    112  CG        -7.4810  -13.7950   50.7920 C.2   582  ASN582      0.2627
    113  OD1       -8.0570  -14.8880   50.7890 O.2   582  ASN582     -0.2716
    114  ND2       -6.6290  -13.4300   49.8230 N.am  582  ASN582     -0.0877
    115  N         -6.5430  -15.1150   53.6480 N.am  583  GLN583     -0.1979
    116  CA        -5.7160  -15.9520   54.5180 C.3   583  GLN583      0.1601
    117  C         -4.3700  -15.3760   55.0310 C.2   583  GLN583      0.2287
    118  O         -4.0330  -15.5220   56.2240 O.2   583  GLN583     -0.2864
    119  CB        -5.5490  -17.3380   53.8820 C.3   583  GLN583      0.0394
    120  CG        -6.7460  -18.2450   54.0960 C.3   583  GLN583      0.0908
    121  CD        -7.9520  -17.8810   53.2590 C.2   583  GLN583      0.2608
    122  OE1       -7.8480  -17.2190   52.2250 O.2   583  GLN583     -0.2717
    123  NE2       -9.1180  -18.3300   53.7010 N.am  583  GLN583     -0.0878
    124  N        -14.1420  -15.4600   51.6580 N.3   623  ASP623     -0.1239
    125  CA       -14.3340  -16.8790   51.4830 C.3   623  ASP623      0.1674
    126  C        -13.9920  -17.6280   52.7460 C.2   623  ASP623      0.2266
    127  O        -13.0140  -17.3250   53.4200 O.2   623  ASP623     -0.2867
    128  CB       -13.4910  -17.4090   50.3450 C.3   623  ASP623      0.1410
    129  CG       -14.0470  -17.0190   48.9980 C.2   623  ASP623      0.3668
    130  OD1      -15.1660  -16.4210   48.9800 O.co2 623  ASP623     -0.2456
    131  OD2      -13.3760  -17.3090   47.9690 O.co2 623  ASP623     -0.2456
    132  N        -13.2470  -20.9130   52.7150 N.3   625  ASP625     -0.1225
    133  CA       -12.0270  -21.6370   52.3530 C.3   625  ASP625      0.1805
    134  C        -11.8050  -22.9200   53.1450 C.2   625  ASP625      0.2597
    135  O        -10.7910  -23.0520   53.8400 O.2   625  ASP625     -0.2718
    136  CB       -10.7960  -20.7410   52.4780 C.3   625  ASP625      0.1424
    137  CG       -10.6860  -19.7780   51.3340 C.2   625  ASP625      0.3668
    138  OD1      -11.2370  -20.1250   50.2770 O.co2 625  ASP625     -0.2456
    139  OD2      -10.0750  -18.6880   51.4810 O.co2 625  ASP625     -0.2456
    140  N        -12.7560  -23.8550   53.0360 N.am  626  ASN626     -0.1974
    141  CA       -12.6370  -25.2270   53.5720 C.3   626  ASN626      0.1688
    142  C        -12.2120  -25.3790   55.0240 C.2   626  ASN626      0.2292
    143  O        -11.4290  -26.2890   55.3630 O.2   626  ASN626     -0.2864
    144  CB       -11.6930  -26.0460   52.7070 C.3   626  ASN626      0.1181
    145  CG       -11.9840  -25.8670   51.2630 C.2   626  ASN626      0.2629
    146  OD1      -11.1870  -25.2750   50.5260 O.2   626  ASN626     -0.2716
    147  ND2      -13.1610  -26.3310   50.8410 N.am  626  ASN626     -0.0877
@<TRIPOS>BOND
     1    24    23    2
     2    10     9    2
     3    23    22    1
     4    19    17   ar
     5    19    20   ar
     6    17    14   ar
     7     9     8    1
     8     9    21   am
     9    65    66    1
    10    22    21    1
    11    22    25    1
    12     8    11    1
    13     8     7    1
    14    20    18   ar
    15    66    69    1
    16    66    67    1
    17    27    25    1
    18    11    12    1
    19    14    12   ar
    20    14    16   ar
    21    69    70    1
    22    25    26    1
    23    28    26    1
    24    12    13   ar
    25    67    71   am
    26    67    68    2
    27    18    16   ar
    28    74    73    2
    29    71    72    1
    30    16    15   ar
    31     4     3    2
    32    88    89    1
    33    54    53    2
    34    73    72    1
    35    86    85   ar
    36    72    75    1
    37    13    15   ar
    38    95    97   ar
    39    95    93   ar
    40     3     2    1
    41   105   104   ar
    42    55    56    1
    43    55    52    1
    44    89    92    1
    45    89    90    1
    46    92    93    1
    47    53    52    1
    48    97    96   ar
    49    93    94   ar
    50    84    85    1
    51    84    83    1
    52    77    76    1
    53    77    78    1
    54    85    87   ar
    55    56    57   ar
    56    56    58   ar
    57    79    80    1
    58    52    51    1
    59    75    76    1
    60     6     5    1
    61     2     5    1
    62     2     1    1
    63    57    59   ar
    64    61    58   ar
    65    61    63   ar
    66    58    60   ar
    67   104   103    1
    68   104   106   ar
    69    80    83    1
    70    80    81    1
    71    90    98   am
    72    90    91    2
    73   103   102    1
    74    63    64   ar
    75    98    99    1
    76    59    60   ar
    77    96    94   ar
    78    60    62   ar
    79    64    62   ar
    80   131   129   ar
    81    81    82    2
    82    99   102    1
    83    99   100    1
    84   100   101    2
    85   130   129   ar
    86   129   128    1
    87   114   112   am
    88    35    34   ar
    89    35    37   ar
    90    33    34    1
    91    33    30    1
    92    34    36   ar
    93    37    38   ar
    94    36    38   ar
    95    36    39   ar
    96    38    40   ar
    97    39    41   ar
    98    40    42   ar
    99   138   137   ar
   100    41    42   ar
   101   128   125    1
   102   146   145    2
   103    49    48   ar
   104   113   112    2
   105   112   111    1
   106   147   145   am
   107    29    30    1
   108   145   144    1
   109    30    31    1
   110   137   139   ar
   111   137   136    1
   112   125   124    1
   113   125   126    1
   114    48    50   ar
   115    48    47    1
   116   111   108    1
   117    31    43   am
   118    31    32    2
   119   122   121    2
   120    43    44    1
   121   133   136    1
   122   133   132    1
   123   133   134    1
   124    47    44    1
   125   144   141    1
   126   126   127    2
   127   140   134   am
   128   140   141    1
   129   134   135    2
   130    44    45    1
   131   108   107    1
   132   108   109    1
   133   121   123   am
   134   121   120    1
   135   141   142    1
   136   115   109   am
   137   115   116    1
   138   119   120    1
   139   119   116    1
   140   109   110    2
   141   116   117    1
   142    45    46    2
   143   142   143    2
   144   117   118    2
