@<TRIPOS>MOLECULE
tmp/2ww1C00.pdb
 159 156 0 0 0
SMALL
GASTEIGER

@<TRIPOS>ATOM
      1  N         18.1590   63.5520   57.0030 N.3    67  SER67      -0.1217
      2  CA        17.4950   64.8190   56.7390 C.3    67  SER67       0.1889
      3  C         16.0740   64.5310   56.2990 C.2    67  SER67       0.2288
      4  O         15.7930   63.4500   55.8140 O.2    67  SER67      -0.2866
      5  CB        18.1830   65.5640   55.6010 C.3    67  SER67       0.2089
      6  OG        17.7530   65.0200   54.3520 O.3    67  SER67      -0.2183
      7  N         14.5920   65.5350   53.6920 N.3    69  TRP69      -0.1227
      8  CA        14.5050   65.3260   52.2330 C.3    69  TRP69       0.1737
      9  C         14.8740   63.8970   51.8490 C.2    69  TRP69       0.2595
     10  O         14.2550   63.2940   50.9740 O.2    69  TRP69      -0.2718
     11  CB        15.3630   66.3420   51.4740 C.3    69  TRP69       0.0564
     12  CG        15.2690   67.6940   52.1070 C.ar   69  TRP69       0.0003
     13  CD1       16.1830   68.2810   52.9400 C.ar   69  TRP69       0.0946
     14  CD2       14.1580   68.6040   52.0110 C.ar   69  TRP69       0.0152
     15  NE1       15.7130   69.5150   53.3620 N.ar   69  TRP69      -0.2442
     16  CE2       14.4720   69.7310   52.8080 C.ar   69  TRP69       0.0810
     17  CE3       12.9380   68.5760   51.3150 C.ar   69  TRP69       0.0012
     18  CZ2       13.6160   70.8190   52.9280 C.ar   69  TRP69       0.0191
     19  CZ3       12.0840   69.6510   51.4380 C.ar   69  TRP69       0.0001
     20  CH2       12.4330   70.7740   52.2330 C.ar   69  TRP69       0.0015
     21  N         15.8780   63.3570   52.5150 N.am   70  ILE70      -0.1980
     22  CA        16.3090   62.0320   52.2220 C.3    70  ILE70       0.1595
     23  C         15.3760   61.0450   52.9060 C.2    70  ILE70       0.2287
     24  O         15.1570   59.9490   52.4090 O.2    70  ILE70      -0.2864
     25  CB        17.7440   61.8290   52.6880 C.3    70  ILE70       0.0276
     26  CG1       18.6710   62.7340   51.8880 C.3    70  ILE70       0.0022
     27  CG2       18.1330   60.3630   52.6020 C.3    70  ILE70       0.0022
     28  CD1       18.7660   62.3520   50.4150 C.3    70  ILE70       0.0001
     29  N         28.6420   66.2090   48.9480 N.3   328  TRP328     -0.1227
     30  CA        28.3870   67.5750   48.4570 C.3   328  TRP328      0.1737
     31  C         28.2390   68.5520   49.6290 C.2   328  TRP328      0.2595
     32  O         28.6290   69.7250   49.5090 O.2   328  TRP328     -0.2718
     33  CB        27.1390   67.6240   47.5790 C.3   328  TRP328      0.0564
     34  CG        26.8390   68.9940   47.0020 C.ar  328  TRP328      0.0003
     35  CD1       27.2850   69.4970   45.8040 C.ar  328  TRP328      0.0946
     36  CD2       26.0530   70.0380   47.6050 C.ar  328  TRP328      0.0152
     37  NE1       26.8190   70.7710   45.6260 N.ar  328  TRP328     -0.2442
     38  CE2       26.0570   71.1310   46.7090 C.ar  328  TRP328      0.0810
     39  CE3       25.3410   70.1520   48.8100 C.ar  328  TRP328      0.0012
     40  CZ2       25.3640   72.3300   46.9700 C.ar  328  TRP328      0.0191
     41  CZ3       24.6500   71.3550   49.0770 C.ar  328  TRP328      0.0001
     42  CH2       24.6740   72.4270   48.1560 C.ar  328  TRP328      0.0015
     43  N         27.6610   68.0930   50.7440 N.am  329  ASP329     -0.1974
     44  CA        27.6690   68.8780   51.9910 C.3   329  ASP329      0.1709
     45  C         28.9960   68.8010   52.7040 C.2   329  ASP329      0.2293
     46  O         29.6200   69.8170   52.9850 O.2   329  ASP329     -0.2864
     47  CB        26.6030   68.3720   52.9710 C.3   329  ASP329      0.1436
     48  CG        25.1800   68.5400   52.4340 C.2   329  ASP329      0.3671
     49  OD1       24.4240   67.5400   52.4180 O.co2 329  ASP329     -0.2456
     50  OD2       24.8180   69.6770   52.0340 O.co2 329  ASP329     -0.2456
     51  N         26.0790   60.8140   47.6150 N.3   366  TRP366     -0.1241
     52  CA        25.0250   60.6860   48.6420 C.3   366  TRP366      0.1605
     53  C         24.7060   59.2080   48.9190 C.2   366  TRP366      0.2264
     54  O         24.3630   58.4480   48.0060 O.2   366  TRP366     -0.2867
     55  CB        23.7280   61.4280   48.2390 C.3   366  TRP366      0.0550
     56  CG        23.4300   62.5800   49.1260 C.ar  366  TRP366      0.0003
     57  CD1       23.4330   63.8940   48.7850 C.ar  366  TRP366      0.0946
     58  CD2       23.1090   62.5220   50.5290 C.ar  366  TRP366      0.0152
     59  NE1       23.1150   64.6660   49.8910 N.ar  366  TRP366     -0.2442
     60  CE2       22.9360   63.8470   50.9730 C.ar  366  TRP366      0.0810
     61  CE3       22.9780   61.4740   51.4520 C.ar  366  TRP366      0.0012
     62  CZ2       22.6120   64.1580   52.2850 C.ar  366  TRP366      0.0191
     63  CZ3       22.6640   61.7730   52.7540 C.ar  366  TRP366      0.0001
     64  CH2       22.4810   63.1130   53.1690 C.ar  366  TRP366      0.0015
     65  N         20.9220   62.5900   44.6910 N.3   374  CYS374     -0.1221
     66  CA        20.7320   63.8540   45.4120 C.3   374  CYS374      0.1808
     67  C         22.0080   64.6360   45.3020 C.2   374  CYS374      0.2601
     68  O         23.0860   64.0740   45.5550 O.2   374  CYS374     -0.2717
     69  CB        20.4750   63.6240   46.9200 C.3   374  CYS374      0.0970
     70  SG        19.9850   65.1320   47.7620 S.3   374  CYS374     -0.0800
     71  N         21.8750   65.9280   44.9750 N.am  375  MET375     -0.1979
     72  CA        22.9960   66.8560   44.8070 C.3   375  MET375      0.1605
     73  C         23.9210   66.5150   43.6100 C.2   375  MET375      0.2287
     74  O         23.5020   65.8420   42.6820 O.2   375  MET375     -0.2864
     75  CB        23.7680   67.0720   46.1290 C.3   375  MET375      0.0413
     76  CG        22.8500   67.4410   47.3150 C.3   375  MET375      0.0598
     77  SD        21.7010   68.8200   46.9290 S.3   375  MET375     -0.1393
     78  CE        22.8450   70.1030   46.5920 C.3   375  MET375      0.0692
     79  N         21.5150   74.7570   44.3950 N.3   514  GLU514     -0.1245
     80  CA        21.2100   75.3910   45.6990 C.3   514  GLU514      0.1567
     81  C         21.6900   76.8330   45.7870 C.2   514  GLU514      0.2260
     82  O         22.1890   77.2550   46.8320 O.2   514  GLU514     -0.2867
     83  CB        21.8580   74.6250   46.8500 C.3   514  GLU514      0.0388
     84  CG        21.3370   73.2310   47.0630 C.3   514  GLU514      0.1160
     85  CD        20.0100   73.2140   47.8120 C.2   514  GLU514      0.3649
     86  OE1       18.9850   72.9680   47.1480 O.co2 514  GLU514     -0.2457
     87  OE2       20.0080   73.4520   49.0470 O.co2 514  GLU514     -0.2457
     88  N         12.5620   76.5420   40.0050 N.3   560  TYR560     -0.1241
     89  CA        11.8810   75.7090   41.0180 C.3   560  TYR560      0.1605
     90  C         10.3460   75.8090   40.9930 C.2   560  TYR560      0.2264
     91  O          9.6480   74.8960   41.4580 O.2   560  TYR560     -0.2867
     92  CB        12.3900   76.0240   42.4220 C.3   560  TYR560      0.0534
     93  CG        13.8790   75.8300   42.6000 C.ar  560  TYR560     -0.0201
     94  CD1       14.4140   74.5760   42.8690 C.ar  560  TYR560     -0.0009
     95  CD2       14.7430   76.9010   42.5110 C.ar  560  TYR560     -0.0009
     96  CE1       15.7650   74.4060   43.0440 C.ar  560  TYR560      0.0417
     97  CE2       16.0870   76.7370   42.6900 C.ar  560  TYR560      0.0417
     98  CZ        16.5980   75.4970   42.9480 C.ar  560  TYR560      0.1957
     99  OH        17.9640   75.3700   43.1220 O.3   560  TYR560     -0.2866
    100  N         11.5510   78.2740   47.2300 N.3   564  ILE564     -0.1231
    101  CA        12.0450   77.2370   48.1350 C.3   564  ILE564      0.1692
    102  C         12.6570   77.8290   49.4200 C.2   564  ILE564      0.2592
    103  O         13.0860   78.9910   49.4550 O.2   564  ILE564     -0.2718
    104  CB        13.0630   76.3130   47.4450 C.3   564  ILE564      0.0266
    105  CG1       14.1540   77.1510   46.7900 C.3   564  ILE564      0.0019
    106  CG2       12.3550   75.4560   46.4180 C.3   564  ILE564      0.0020
    107  CD1       15.3210   76.3400   46.2350 C.3   564  ILE564      0.0001
    108  N         12.7110   77.0190   50.4710 N.am  565  HIS565     -0.1962
    109  CA        13.1450   77.5530   51.7410 C.3   565  HIS565      0.1787
    110  C         14.5300   78.1950   51.6160 C.2   565  HIS565      0.2620
    111  O         14.7640   79.2420   52.2060 O.2   565  HIS565     -0.2715
    112  CB        13.0670   76.4930   52.8550 C.3   565  HIS565      0.0785
    113  CG        13.9650   75.3190   52.6230 C.ar  565  HIS565      0.0821
    114  ND1       15.2360   75.2400   53.1560 N.ar  565  HIS565     -0.2267
    115  CD2       13.7850   74.1850   51.9020 C.ar  565  HIS565      0.1154
    116  CE1       15.7950   74.1000   52.7840 C.ar  565  HIS565      0.1986
    117  NE2       14.9360   73.4420   52.0240 N.ar  565  HIS565     -0.2212
    118  N         15.4340   77.6240   50.8280 N.am  566  GLU566     -0.1977
    119  CA        16.7940   78.1890   50.7450 C.3   566  GLU566      0.1602
    120  C         16.7810   79.6600   50.2830 C.2   566  GLU566      0.2287
    121  O         17.5480   80.4910   50.7920 O.2   566  GLU566     -0.2864
    122  CB        17.7140   77.3420   49.8480 C.3   566  GLU566      0.0415
    123  CG        18.1320   75.9760   50.4160 C.3   566  GLU566      0.1163
    124  CD        17.1920   74.8350   50.0320 C.2   566  GLU566      0.3649
    125  OE1       15.9920   75.0940   49.7390 O.co2 566  GLU566     -0.2457
    126  OE2       17.6640   73.6580   50.0070 O.co2 566  GLU566     -0.2457
    127  N         25.7200   75.6250   51.0510 N.3   583  GLN583     -0.1245
    128  CA        27.0800   75.1430   51.2360 C.3   583  GLN583      0.1566
    129  C         28.1350   75.7480   50.2910 C.2   583  GLN583      0.2260
    130  O         29.2510   75.9990   50.7000 O.2   583  GLN583     -0.2867
    131  CB        27.1180   73.6060   51.2040 C.3   583  GLN583      0.0367
    132  CG        26.8410   72.9350   52.5610 C.3   583  GLN583      0.0905
    133  CD        25.4280   73.1930   53.0640 C.2   583  GLN583      0.2608
    134  OE1       24.4820   73.2270   52.2840 O.2   583  GLN583     -0.2717
    135  NE2       25.2800   73.3830   54.3800 N.am  583  GLN583     -0.0878
    136  N         19.4570   74.4750   56.6820 N.3   623  ASP623     -0.1239
    137  CA        19.6970   73.0620   57.0090 C.3   623  ASP623      0.1674
    138  C         21.0410   72.8150   57.6960 C.2   623  ASP623      0.2266
    139  O         22.0560   73.3450   57.2890 O.2   623  ASP623     -0.2867
    140  CB        19.6180   72.2050   55.7530 C.3   623  ASP623      0.1410
    141  CG        18.1850   71.9650   55.2900 C.2   623  ASP623      0.3668
    142  OD1       17.2300   72.4160   55.9590 O.co2 623  ASP623     -0.2456
    143  OD2       18.0040   71.3300   54.2270 O.co2 623  ASP623     -0.2456
    144  N         22.5990   69.8810   57.7380 N.3   625  ASP625     -0.1225
    145  CA        23.3220   69.0680   56.7600 C.3   625  ASP625      0.1805
    146  C         24.3990   68.1480   57.3080 C.2   625  ASP625      0.2597
    147  O         25.5410   68.1680   56.8420 O.2   625  ASP625     -0.2718
    148  CB        23.8870   69.9500   55.6490 C.3   625  ASP625      0.1424
    149  CG        22.7990   70.5080   54.7500 C.2   625  ASP625      0.3668
    150  OD1       21.8740   69.7480   54.4100 O.co2 625  ASP625     -0.2456
    151  OD2       22.8480   71.7090   54.4050 O.co2 625  ASP625     -0.2456
    152  N         24.0310   67.3640   58.3070 N.am  626  ASN626     -0.1974
    153  CA        24.8330   66.2280   58.7140 C.3   626  ASN626      0.1688
    154  C         26.2330   66.5880   59.2040 C.2   626  ASN626      0.2292
    155  O         27.1930   65.8250   58.9890 O.2   626  ASN626     -0.2864
    156  CB        24.8940   65.2110   57.5640 C.3   626  ASN626      0.1181
    157  CG        23.5120   64.7710   57.1310 C.2   626  ASN626      0.2629
    158  OD1       23.1240   64.9660   55.9880 O.2   626  ASN626     -0.2716
    159  ND2       22.7320   64.2400   58.0740 N.am  626  ASN626     -0.0877
@<TRIPOS>BOND
     1    88    89    1
     2    90    89    1
     3    90    91    2
     4    89    92    1
     5    92    93    1
     6    95    93   ar
     7    95    97   ar
     8    93    94   ar
     9    74    73    2
    10    97    98   ar
    11    94    96   ar
    12    98    96   ar
    13    98    99    1
    14    73    72    1
    15    79    80    1
    16    65    66    1
    17    72    71    1
    18    72    75    1
    19    71    67   am
    20    67    66    1
    21    67    68    2
    22    66    69    1
    23    37    35   ar
    24    37    38   ar
    25    80    81    1
    26    80    83    1
    27    81    82    2
    28    35    34   ar
    29    75    76    1
    30   107   105    1
    31   106   104    1
    32    78    77    1
    33    38    40   ar
    34    38    36   ar
    35   105   104    1
    36    83    84    1
    37    69    70    1
    38    77    76    1
    39    40    42   ar
    40    34    33    1
    41    34    36   ar
    42    84    85    1
    43    86    85   ar
    44   100   101    1
    45   104   101    1
    46    33    30    1
    47    36    39   ar
    48    51    52    1
    49    85    87   ar
    50    54    53    2
    51   101   102    1
    52    42    41   ar
    53    55    52    1
    54    55    56    1
    55    30    29    1
    56    30    31    1
    57    52    53    1
    58    57    56   ar
    59    57    59   ar
    60    39    41   ar
    61    56    58   ar
    62   102   103    2
    63   102   108   am
    64    32    31    2
    65    31    43   am
    66   125   124   ar
    67   122   123    1
    68   122   119    1
    69    59    60   ar
    70   126   124   ar
    71   124   123    1
    72   120   119    1
    73   120   121    2
    74   129   130    2
    75   129   128    1
    76    28    26    1
    77   108   109    1
    78    58    60   ar
    79    58    61   ar
    80    43    44    1
    81   119   118    1
    82   118   110   am
    83    60    62   ar
    84    10     9    2
    85   127   128    1
    86   131   128    1
    87   131   132    1
    88    17    19   ar
    89    17    14   ar
    90    19    20   ar
    91    61    63   ar
    92    11    12    1
    93    11     8    1
    94   110   109    1
    95   110   111    2
    96   109   112    1
    97     9     8    1
    98     9    21   am
    99    26    25    1
   100   115   117   ar
   101   115   113   ar
   102    44    45    1
   103    44    47    1
   104    14    12   ar
   105    14    16   ar
   106   117   116   ar
   107    50    48   ar
   108    12    13   ar
   109    22    21    1
   110    22    25    1
   111    22    23    1
   112     8     7    1
   113    20    18   ar
   114   134   133    2
   115    62    64   ar
   116    24    23    2
   117    49    48   ar
   118    48    47    1
   119   132   133    1
   120    27    25    1
   121   113   112    1
   122   113   114   ar
   123    45    46    2
   124    63    64   ar
   125   116   114   ar
   126    16    18   ar
   127    16    15   ar
   128    13    15   ar
   129   133   135   am
   130   143   141   ar
   131     6     5    1
   132   151   149   ar
   133   150   149   ar
   134   149   148    1
   135   141   140    1
   136   141   142   ar
   137     5     2    1
   138   148   145    1
   139   140   137    1
   140     4     3    2
   141   158   157    2
   142     3     2    1
   143   136   137    1
   144     2     1    1
   145   145   146    1
   146   145   144    1
   147   147   146    2
   148   137   138    1
   149   157   156    1
   150   157   159   am
   151   139   138    2
   152   146   152   am
   153   156   153    1
   154   152   153    1
   155   153   154    1
   156   155   154    2
