@<TRIPOS>MOLECULE
tmp/2ww2B00.pdb
 120 117 0 0 0
SMALL
GASTEIGER

@<TRIPOS>ATOM
      1  N        -21.2690  -32.1830   94.9690 N.3    71  SER71      -0.1217
      2  CA       -21.3930  -30.7680   94.6000 C.3    71  SER71       0.1889
      3  C        -21.9630  -29.9670   95.7790 C.2    71  SER71       0.2288
      4  O        -22.6640  -30.5310   96.6180 O.2    71  SER71      -0.2866
      5  CB       -22.3120  -30.6170   93.3840 C.3    71  SER71       0.2089
      6  OG       -23.6310  -30.2760   93.7850 O.3    71  SER71      -0.2183
      7  N        -24.2640  -27.9210   95.7690 N.3    73  TRP73      -0.1227
      8  CA       -25.7040  -27.7780   95.6200 C.3    73  TRP73       0.1737
      9  C        -26.4000  -29.0440   96.1180 C.2    73  TRP73       0.2595
     10  O        -27.4800  -28.9770   96.6840 O.2    73  TRP73      -0.2718
     11  CB       -26.0620  -27.4780   94.1500 C.3    73  TRP73       0.0564
     12  CG       -25.2310  -26.3280   93.5170 C.ar   73  TRP73       0.0003
     13  CD1      -24.1960  -26.4420   92.6120 C.ar   73  TRP73       0.0946
     14  CD2      -25.3900  -24.9190   93.7590 C.ar   73  TRP73       0.0152
     15  NE1      -23.7160  -25.1930   92.2800 N.ar   73  TRP73      -0.2442
     16  CE2      -24.4340  -24.2440   92.9630 C.ar   73  TRP73       0.0810
     17  CE3      -26.2550  -24.1640   94.5640 C.ar   73  TRP73       0.0012
     18  CZ2      -24.3220  -22.8490   92.9510 C.ar   73  TRP73       0.0191
     19  CZ3      -26.1460  -22.7770   94.5500 C.ar   73  TRP73       0.0001
     20  CH2      -25.1830  -22.1350   93.7510 C.ar   73  TRP73       0.0015
     21  N        -25.7590  -30.1930   95.9100 N.am   74  ILE74      -0.1980
     22  CA       -26.2580  -31.5020   96.3750 C.3    74  ILE74       0.1595
     23  C        -25.9110  -31.7660   97.8450 C.2    74  ILE74       0.2287
     24  O        -26.6680  -32.4070   98.5800 O.2    74  ILE74      -0.2864
     25  CB       -25.6280  -32.6270   95.5130 C.3    74  ILE74       0.0276
     26  CG1      -26.1380  -32.5250   94.0780 C.3    74  ILE74       0.0022
     27  CG2      -25.9270  -34.0100   96.0920 C.3    74  ILE74       0.0022
     28  CD1      -27.5850  -32.9710   93.9210 C.3    74  ILE74       0.0001
     29  N        -26.7040  -36.6140   83.9130 N.3   332  TRP332     -0.1227
     30  CA       -26.9390  -35.4610   83.0210 C.3   332  TRP332      0.1737
     31  C        -25.6200  -34.7450   82.7300 C.2   332  TRP332      0.2595
     32  O        -25.4240  -34.2430   81.6360 O.2   332  TRP332     -0.2718
     33  CB       -27.9450  -34.4630   83.6160 C.3   332  TRP332      0.0564
     34  CG       -28.2590  -33.3140   82.6900 C.ar  332  TRP332      0.0003
     35  CD1      -29.1020  -33.3330   81.6180 C.ar  332  TRP332      0.0946
     36  CD2      -27.7200  -31.9850   82.7560 C.ar  332  TRP332      0.0152
     37  NE1      -29.1290  -32.0910   81.0130 N.ar  332  TRP332     -0.2442
     38  CE2      -28.2840  -31.2510   81.6900 C.ar  332  TRP332      0.0810
     39  CE3      -26.8140  -31.3470   83.6130 C.ar  332  TRP332      0.0012
     40  CZ2      -27.9790  -29.9070   81.4610 C.ar  332  TRP332      0.0191
     41  CZ3      -26.5060  -30.0060   83.3850 C.ar  332  TRP332      0.0001
     42  CH2      -27.0830  -29.3050   82.3120 C.ar  332  TRP332      0.0015
     43  N        -24.7200  -34.6900   83.7170 N.am  333  ASP333     -0.1974
     44  CA       -23.3860  -34.1140   83.5080 C.3   333  ASP333      0.1709
     45  C        -22.4570  -35.1440   82.8870 C.2   333  ASP333      0.2293
     46  O        -21.7900  -34.8910   81.8680 O.2   333  ASP333     -0.2864
     47  CB       -22.7480  -33.7090   84.8480 C.3   333  ASP333      0.1436
     48  CG       -23.4660  -32.5660   85.5310 C.2   333  ASP333      0.3671
     49  OD1      -23.6890  -31.5150   84.8970 O.co2 333  ASP333     -0.2456
     50  OD2      -23.7900  -32.7110   86.7280 O.co2 333  ASP333     -0.2456
     51  N        -29.7450  -38.7110   88.9400 N.3   370  TRP370     -0.1241
     52  CA       -28.8790  -38.0880   89.9430 C.3   370  TRP370      0.1605
     53  C        -28.9700  -38.9610   91.1880 C.2   370  TRP370      0.2264
     54  O        -30.0660  -39.2050   91.6990 O.2   370  TRP370     -0.2867
     55  CB       -29.3110  -36.6440   90.2790 C.3   370  TRP370      0.0550
     56  CG       -28.2170  -35.6430   90.0540 C.ar  370  TRP370      0.0003
     57  CD1      -28.2050  -34.6500   89.1120 C.ar  370  TRP370      0.0946
     58  CD2      -26.9530  -35.5550   90.7490 C.ar  370  TRP370      0.0152
     59  NE1      -27.0210  -33.9360   89.1950 N.ar  370  TRP370     -0.2442
     60  CE2      -26.2360  -34.4800   90.1760 C.ar  370  TRP370      0.0810
     61  CE3      -26.3670  -36.2770   91.7950 C.ar  370  TRP370      0.0012
     62  CZ2      -24.9520  -34.1150   90.6030 C.ar  370  TRP370      0.0191
     63  CZ3      -25.0840  -35.9070   92.2320 C.ar  370  TRP370      0.0001
     64  CH2      -24.3930  -34.8380   91.6310 C.ar  370  TRP370      0.0015
     65  N        -32.9620  -33.9030   90.8080 N.3   378  CYS378     -0.1221
     66  CA       -32.0380  -32.9090   90.2830 C.3   378  CYS378      0.1808
     67  C        -31.8240  -33.1190   88.7800 C.2   378  CYS378      0.2601
     68  O        -31.6110  -34.2520   88.3380 O.2   378  CYS378     -0.2717
     69  CB       -30.6960  -33.0030   91.0330 C.3   378  CYS378      0.0970
     70  SG       -29.5120  -31.7150   90.5890 S.3   378  CYS378     -0.0800
     71  N        -31.8770  -32.0280   88.0130 N.am  379  MET379     -0.1979
     72  CA       -31.6650  -32.0400   86.5590 C.3   379  MET379      0.1605
     73  C        -32.7150  -32.8510   85.8030 C.2   379  MET379      0.2287
     74  O        -33.8600  -32.9920   86.2590 O.2   379  MET379     -0.2864
     75  CB       -30.2200  -32.4190   86.1630 C.3   379  MET379      0.0413
     76  CG       -29.1640  -31.4530   86.7200 C.3   379  MET379      0.0598
     77  SD       -29.5710  -29.6880   86.4970 S.3   379  MET379     -0.1393
     78  CE       -29.9240  -29.5870   84.7500 C.3   379  MET379      0.0692
     79  N        -30.7600  -24.3510   82.9700 N.3   516  GLU516     -0.1245
     80  CA       -29.3230  -24.1350   82.8760 C.3   516  GLU516      0.1567
     81  C        -28.9290  -23.5970   81.4990 C.2   516  GLU516      0.2260
     82  O        -27.9470  -24.0500   80.9020 O.2   516  GLU516     -0.2867
     83  CB       -28.5840  -25.4490   83.1380 C.3   516  GLU516      0.0388
     84  CG       -28.8940  -26.0470   84.4950 C.3   516  GLU516      0.1160
     85  CD       -28.3340  -25.2090   85.6190 C.2   516  GLU516      0.3649
     86  OE1      -27.1210  -24.8890   85.5680 O.co2 516  GLU516     -0.2457
     87  OE2      -29.1060  -24.8710   86.5440 O.co2 516  GLU516     -0.2457
     88  N        -23.6550  -27.1550   79.5170 N.3   585  GLN585     -0.1245
     89  CA       -23.7410  -28.5500   79.0560 C.3   585  GLN585      0.1566
     90  C        -24.2010  -28.7470   77.6110 C.2   585  GLN585      0.2260
     91  O        -23.5210  -29.4250   76.8470 O.2   585  GLN585     -0.2867
     92  CB       -24.6150  -29.3870   80.0060 C.3   585  GLN585      0.0367
     93  CG       -23.8720  -29.7820   81.2710 C.3   585  GLN585      0.0905
     94  CD       -23.7160  -28.6310   82.2190 C.2   585  GLN585      0.2608
     95  OE1      -24.6330  -27.8300   82.4180 O.2   585  GLN585     -0.2717
     96  NE2      -22.5140  -28.4690   82.7390 N.am  585  GLN585     -0.0878
     97  N        -18.5810  -24.6470   87.1040 N.3   625  ASP625     -0.1239
     98  CA       -18.5180  -25.8120   87.9630 C.3   625  ASP625      0.1674
     99  C        -17.7700  -26.9470   87.2900 C.2   625  ASP625      0.2266
    100  O        -18.0130  -27.2500   86.1110 O.2   625  ASP625     -0.2867
    101  CB       -19.9210  -26.2790   88.3390 C.3   625  ASP625      0.1410
    102  CG       -20.5860  -25.3520   89.3280 C.2   625  ASP625      0.3668
    103  OD1      -21.6540  -25.7200   89.8720 O.co2 625  ASP625     -0.2456
    104  OD2      -20.0290  -24.2480   89.5530 O.co2 625  ASP625     -0.2456
    105  N        -18.1810  -30.0820   88.0880 N.3   627  ASP627     -0.1225
    106  CA       -19.2710  -31.0510   87.8210 C.3   627  ASP627      0.1805
    107  C        -18.8760  -32.5420   87.7480 C.2   627  ASP627      0.2597
    108  O        -19.0810  -33.1990   86.7210 O.2   627  ASP627     -0.2718
    109  CB       -20.0310  -30.6580   86.5420 C.3   627  ASP627      0.1424
    110  CG       -20.9510  -29.4460   86.7460 C.2   627  ASP627      0.3668
    111  OD1      -21.3030  -29.1320   87.9080 O.co2 627  ASP627     -0.2456
    112  OD2      -21.3260  -28.8110   85.7390 O.co2 627  ASP627     -0.2456
    113  N        -18.3220  -33.0830   88.8320 N.am  628  ASN628     -0.1974
    114  CA       -18.0860  -34.5280   88.9120 C.3   628  ASN628      0.1688
    115  C        -17.1820  -35.0640   87.8280 C.2   628  ASN628      0.2292
    116  O        -17.3730  -36.1960   87.3750 O.2   628  ASN628     -0.2864
    117  CB       -19.4010  -35.2880   88.7690 C.3   628  ASN628      0.1181
    118  CG       -20.2790  -35.1480   89.9650 C.2   628  ASN628      0.2629
    119  OD1      -20.8890  -34.0910   90.1830 O.2   628  ASN628     -0.2716
    120  ND2      -20.3840  -36.2210   90.7480 N.am  628  ASN628     -0.0877
@<TRIPOS>BOND
     1    91    90    2
     2    90    89    1
     3    89    88    1
     4    89    92    1
     5    92    93    1
     6    82    81    2
     7    37    35   ar
     8    37    38   ar
     9    93    94    1
    10    40    38   ar
    11    40    42   ar
    12    81    80    1
    13    35    34   ar
    14    32    31    2
    15    38    36   ar
    16    46    45    2
    17    94    95    2
    18    94    96   am
    19    42    41   ar
    20    34    36   ar
    21    34    33    1
    22    31    30    1
    23    31    43   am
    24    36    39   ar
    25    80    79    1
    26    80    83    1
    27    45    44    1
    28    30    33    1
    29    30    29    1
    30    83    84    1
    31    41    39   ar
    32    44    43    1
    33    44    47    1
    34    84    85    1
    35    78    77    1
    36    47    48    1
    37    49    48   ar
    38    48    50   ar
    39    86    85   ar
    40    85    87   ar
    41   112   110   ar
    42    73    74    2
    43    73    72    1
    44   100    99    2
    45    75    72    1
    46    75    76    1
    47    77    76    1
    48   109   110    1
    49   109   106    1
    50    72    71    1
    51   108   107    2
    52   110   111   ar
    53    97    98    1
    54    99    98    1
    55   116   115    2
    56   107   106    1
    57   107   113   am
    58   106   105    1
    59   115   114    1
    60    98   101    1
    61    71    67   am
    62    68    67    2
    63   101   102    1
    64   117   114    1
    65   117   118    1
    66    67    66    1
    67   113   114    1
    68    51    52    1
    69    57    59   ar
    70    57    56   ar
    71    59    60   ar
    72   102   104   ar
    73   102   103   ar
    74    52    55    1
    75    52    53    1
    76   118   119    2
    77   118   120   am
    78    56    55    1
    79    56    58   ar
    80    60    62   ar
    81    60    58   ar
    82    66    65    1
    83    66    69    1
    84    70    69    1
    85    62    64   ar
    86    58    61   ar
    87    53    54    2
    88    64    63   ar
    89    61    63   ar
    90    15    13   ar
    91    15    16   ar
    92    13    12   ar
    93    18    16   ar
    94    18    20   ar
    95    16    14   ar
    96     5     6    1
    97     5     2    1
    98    12    14   ar
    99    12    11    1
   100    20    19   ar
   101    14    17   ar
   102    28    26    1
   103    26    25    1
   104    11     8    1
   105    19    17   ar
   106     2     1    1
   107     2     3    1
   108    25    27    1
   109    25    22    1
   110     8     7    1
   111     8     9    1
   112     3     4    2
   113    21     9   am
   114    21    22    1
   115     9    10    2
   116    22    23    1
   117    23    24    2
