@<TRIPOS>MOLECULE
tmp/2ww4A00.pdb
 120 111 0 0 0
SMALL
GASTEIGER

@<TRIPOS>ATOM
      1  N         18.3200   30.1500   -8.8040 N.3    57  VAL57      -0.1245
      2  CA        19.2980   31.2370   -8.8650 C.3    57  VAL57       0.1561
      3  C         20.7170   30.6790   -8.9510 C.2    57  VAL57       0.2260
      4  O         21.0970   29.7960   -8.1710 O.2    57  VAL57      -0.2867
      5  CB        19.1640   32.2340   -7.6980 C.3    57  VAL57       0.0252
      6  CG1       20.4000   33.1200   -7.6190 C.3    57  VAL57       0.0019
      7  CG2       17.9030   33.1060   -7.8800 C.3    57  VAL57       0.0019
      8  N         23.9320   29.0240   -8.9980 N.3    59  GLY59      -0.1210
      9  CA        24.8270   28.4790   -7.9890 C.3    59  GLY59       0.1956
     10  C         24.2210   28.3240   -6.6070 C.2    59  GLY59       0.2611
     11  O         24.9470   28.0380   -5.6520 O.2    59  GLY59      -0.2717
     12  N         22.9020   28.4910   -6.4890 N.am   60  VAL60      -0.1979
     13  CA        22.2280   28.4210   -5.1940 C.3    60  VAL60       0.1595
     14  C         21.1500   27.3510   -5.1860 C.2    60  VAL60       0.2287
     15  O         20.2280   27.3740   -6.0070 O.2    60  VAL60      -0.2864
     16  CB        21.5890   29.7740   -4.8360 C.3    60  VAL60       0.0276
     17  CG1       21.0810   29.7680   -3.3990 C.3    60  VAL60       0.0022
     18  CG2       22.5960   30.9080   -5.0730 C.3    60  VAL60       0.0022
     19  N         18.6830   26.4850    0.0000 N.3    64  ASP64      -0.1225
     20  CA        19.6480   27.4710    0.4590 C.3    64  ASP64       0.1805
     21  C         19.3160   28.8450   -0.0760 C.2    64  ASP64       0.2598
     22  O         19.9180   29.8310    0.3380 O.2    64  ASP64      -0.2718
     23  CB        21.0710   27.0940    0.0290 C.3    64  ASP64       0.1424
     24  CG        21.5840   25.8610    0.7480 C.2    64  ASP64       0.3668
     25  OD1       20.9400   25.4480    1.7400 O.co2  64  ASP64      -0.2456
     26  OD2       22.6150   25.3000    0.3100 O.co2  64  ASP64      -0.2456
     27  N         18.3610   28.9210   -0.9960 N.am   65  ASN65      -0.1960
     28  CA        17.9600   30.2210   -1.5090 C.3    65  ASN65       0.1819
     29  C         17.2630   31.0120   -0.4160 C.2    65  ASN65       0.2621
     30  O         16.3750   30.4860    0.2390 O.2    65  ASN65      -0.2715
     31  CB        17.0510   30.0790   -2.7240 C.3    65  ASN65       0.1195
     32  CG        17.0560   31.3140   -3.5830 C.2    65  ASN65       0.2630
     33  OD1       16.6390   32.3720   -3.1430 O.2    65  ASN65      -0.2716
     34  ND2       17.5410   31.1890   -4.8170 N.am   65  ASN65      -0.0877
     35  N         17.6780   32.2620   -0.2210 N.am   66  LEU66      -0.1963
     36  CA        17.0460   33.1490    0.7610 C.3    66  LEU66       0.1728
     37  C         15.5690   33.4180    0.4790 C.2    66  LEU66       0.2616
     38  O         14.8350   33.8280    1.3810 O.2    66  LEU66      -0.2715
     39  CB        17.7830   34.4780    0.8590 C.3    66  LEU66       0.0311
     40  CG        19.1900   34.4110    1.4490 C.3    66  LEU66       0.0022
     41  CD1       19.9450   35.6850    1.1700 C.3    66  LEU66       0.0001
     42  CD2       19.1400   34.1040    2.9650 C.3    66  LEU66       0.0001
     43  N         15.1380   33.2330   -0.7650 N.am   67  ILE67      -0.1977
     44  CA        13.7140   33.3330   -1.0770 C.3    67  ILE67       0.1596
     45  C         12.9970   32.1900   -0.3520 C.2    67  ILE67       0.2287
     46  O         12.0520   32.4260    0.3620 O.2    67  ILE67      -0.2864
     47  CB        13.4420   33.2750   -2.5840 C.3    67  ILE67       0.0276
     48  CG1       14.0630   34.4950   -3.2660 C.3    67  ILE67       0.0022
     49  CG2       11.9270   33.1930   -2.8650 C.3    67  ILE67       0.0022
     50  CD1       14.1150   34.4030   -4.7470 C.3    67  ILE67       0.0001
     51  N         15.8070   37.9670  -11.8700 N.3    96  LYS96      -0.1245
     52  CA        16.9990   38.3260  -11.1370 C.3    96  LYS96       0.1561
     53  C         17.9050   39.2360  -11.9940 C.2    96  LYS96       0.2260
     54  O         18.5180   38.7700  -12.9450 O.2    96  LYS96      -0.2867
     55  CB        17.7240   37.0320  -10.7500 C.3    96  LYS96       0.0271
     56  CG        18.9380   37.1840   -9.8500 C.3    96  LYS96       0.0035
     57  CD        18.5340   37.3010   -8.3730 C.3    96  LYS96       0.0206
     58  CE        19.6150   37.9780   -7.5740 C.3    96  LYS96       0.1093
     59  NZ        19.1360   38.5130   -6.2660 N.3    96  LYS96      -0.1314
     60  N         24.0710   40.8230   -9.6620 N.3    99  PRO99      -0.2102
     61  CA        25.1110   40.0880   -8.9510 C.3    99  PRO99       0.1504
     62  C         24.6370   39.5890   -7.5980 C.2    99  PRO99       0.2576
     63  O         23.9370   40.2900   -6.8460 O.2    99  PRO99      -0.2718
     64  CB        26.2350   41.1310   -8.8520 C.3    99  PRO99       0.0282
     65  CG        26.1000   42.0120  -10.1040 C.3    99  PRO99       0.0208
     66  CD        24.5740   42.1190  -10.2640 C.3    99  PRO99       0.0893
     67  N         24.9970   38.3530   -7.2360 N.am  100  MET100     -0.1966
     68  CA        24.6100   37.7780   -5.9480 C.3   100  MET100      0.1736
     69  C         25.1270   38.6930   -4.8370 C.2   100  MET100      0.2617
     70  O         24.3890   39.0630   -3.9210 O.2   100  MET100     -0.2715
     71  CB        25.1880   36.3810   -5.7400 C.3   100  MET100      0.0427
     72  CG        25.0270   35.4690   -6.9610 C.3   100  MET100      0.0599
     73  SD        23.3430   34.9310   -7.2190 S.3   100  MET100     -0.1393
     74  CE        22.9190   34.0960   -5.7420 C.3   100  MET100      0.0692
     75  N         26.4270   39.0860   -4.8930 N.am  101  GLY101     -0.1955
     76  CA        27.0980   39.8930   -3.8870 C.3   101  GLY101      0.1869
     77  C         27.1930   41.3220   -4.3740 C.2   101  GLY101      0.2309
     78  O         26.1700   42.0210   -4.5410 O.2   101  GLY101     -0.2863
     79  N         27.7910   43.9730   -3.0860 N.3   103  GLY103     -0.1225
     80  CA        27.5660   45.0470   -2.1110 C.3   103  GLY103      0.1811
     81  C         26.2910   45.8340   -2.3870 C.2   103  GLY103      0.2280
     82  O         26.0990   46.9150   -1.8410 O.2   103  GLY103     -0.2866
     83  N         23.2630   44.2400   -1.9780 N.3   105  GLY105     -0.1210
     84  CA        22.3020   43.6750   -1.0350 C.3   105  GLY105      0.1956
     85  C         21.1570   42.8560   -1.6080 C.2   105  GLY105      0.2612
     86  O         20.0850   42.7420   -0.9870 O.2   105  GLY105     -0.2717
     87  N         21.3830   42.2540   -2.7660 N.am  106  GLY106     -0.1942
     88  CA        20.3170   41.5990   -3.5020 C.3   106  GLY106      0.2014
     89  C         19.6530   40.4570   -2.7490 C.2   106  GLY106      0.2639
     90  O         18.4460   40.3070   -2.7790 O.2   106  GLY106     -0.2714
     91  N         20.4570   39.6560   -2.0740 N.am  107  GLY107     -0.1939
     92  CA        19.9650   38.5080   -1.3270 C.3   107  GLY107      0.2014
     93  C         19.1280   38.9440   -0.1540 C.2   107  GLY107      0.2639
     94  O         18.0370   38.4200    0.0560 O.2   107  GLY107     -0.2714
     95  N         19.6340   39.9180    0.6060 N.am  108  SER108     -0.1949
     96  CA        18.8580   40.5160    1.6870 C.3   108  SER108      0.1924
     97  C         17.5550   41.1180    1.1440 C.2   108  SER108      0.2314
     98  O         16.5120   40.9610    1.7510 O.2   108  SER108     -0.2863
     99  CB        19.6730   41.6060    2.4080 C.3   108  SER108      0.2116
    100  OG        20.5670   41.0200    3.3330 O.3   108  SER108     -0.2180
    101  N         15.7560   40.3700   -1.6470 N.3   110  ASN110     -0.1240
    102  CA        14.8880   39.2390   -2.0170 C.3   110  ASN110      0.1653
    103  C         14.2100   38.6720   -0.7670 C.2   110  ASN110      0.2266
    104  O         12.9880   38.4500   -0.7560 O.2   110  ASN110     -0.2867
    105  CB        15.6830   38.0990   -2.6760 C.3   110  ASN110      0.1155
    106  CG        16.3310   38.4810   -4.0070 C.2   110  ASN110      0.2627
    107  OD1       17.1850   37.7360   -4.5190 O.2   110  ASN110     -0.2716
    108  ND2       15.9410   39.6230   -4.5760 N.am  110  ASN110     -0.0877
    109  N         19.7410   37.6460    6.6860 N.3   139  GLY139     -0.1225
    110  CA        20.7120   38.5270    6.0570 C.3   139  GLY139      0.1811
    111  C         20.9510   39.8070    6.8470 C.2   139  GLY139      0.2280
    112  O         20.0260   40.3770    7.4090 O.2   139  GLY139     -0.2866
    113  N         21.3720   42.8220    6.0810 N.3   141  ASP141     -0.1239
    114  CA        20.7060   44.0210    5.5960 C.3   141  ASP141      0.1674
    115  C         19.1750   43.9010    5.4020 C.2   141  ASP141      0.2266
    116  O         18.5430   44.8090    4.8670 O.2   141  ASP141     -0.2867
    117  CB        21.3610   44.4570    4.2770 C.3   141  ASP141      0.1410
    118  CG        22.8430   44.8310    4.4470 C.2   141  ASP141      0.3668
    119  OD1       23.2300   45.3330    5.5190 O.co2 141  ASP141     -0.2456
    120  OD2       23.6220   44.6300    3.5200 O.co2 141  ASP141     -0.2456
@<TRIPOS>BOND
     1    54    53    2
     2    53    52    1
     3    51    52    1
     4    52    55    1
     5    55    56    1
     6    66    65    1
     7    66    60    1
     8    65    64    1
     9    56    57    1
    10    60    61    1
    11     8     9    1
    12     3     2    1
    13     3     4    2
    14    61    64    1
    15    61    62    1
    16     2     1    1
    17     2     5    1
    18    57    58    1
    19     9    10    1
    20     7     5    1
    21     5     6    1
    22    62    67   am
    23    62    63    2
    24    58    59    1
    25    67    68    1
    26    73    72    1
    27    73    74    1
    28    72    71    1
    29    10    12   am
    30    10    11    2
    31    12    13    1
    32    15    14    2
    33    68    71    1
    34    68    69    1
    35    13    14    1
    36    13    16    1
    37    18    16    1
    38    75    69   am
    39    75    76    1
    40    69    70    2
    41    16    17    1
    42    34    32   am
    43    50    48    1
    44   108   106   am
    45    78    77    2
    46   107   106    2
    47    77    76    1
    48   106   105    1
    49    32    33    2
    50    32    31    1
    51    88    87    1
    52    88    89    1
    53    48    47    1
    54    79    80    1
    55    49    47    1
    56    90    89    2
    57    87    85   am
    58    89    91   am
    59    31    28    1
    60   105   102    1
    61    47    44    1
    62    81    80    1
    63    81    82    2
    64    91    92    1
    65   102   101    1
    66   102   103    1
    67    83    84    1
    68    85    84    1
    69    85    86    2
    70    28    27    1
    71    28    29    1
    72    92    93    1
    73    44    43    1
    74    44    45    1
    75    27    21   am
    76   103   104    2
    77    43    37   am
    78    29    35   am
    79    29    30    2
    80    45    46    2
    81    35    36    1
    82    93    94    2
    83    93    95   am
    84    21    22    2
    85    21    20    1
    86    19    20    1
    87    23    20    1
    88    23    24    1
    89    26    24   ar
    90    37    36    1
    91    37    38    2
    92    95    96    1
    93    24    25   ar
    94    36    39    1
    95    39    40    1
    96    97    96    1
    97    97    98    2
    98    41    40    1
    99    40    42    1
   100    96    99    1
   101    99   100    1
   102   120   118   ar
   103   117   118    1
   104   117   114    1
   105   118   119   ar
   106   116   115    2
   107   115   114    1
   108   114   113    1
   109   110   109    1
   110   110   111    1
   111   111   112    2
