@<TRIPOS>MOLECULE
tmp/2ww8A00.pdb
 89 89 0 0 0
SMALL
GASTEIGER

@<TRIPOS>ATOM
      1  N        -61.6080    3.9700  100.0790 N.3   354  ASN354     -0.1225
      2  CA       -62.9140    3.3640  100.3380 C.3   354  ASN354      0.1785
      3  C        -63.6310    4.0640  101.4980 C.2   354  ASN354      0.2597
      4  O        -63.0940    4.1610  102.6070 O.2   354  ASN354     -0.2718
      5  CB       -62.7020    1.8700  100.6310 C.3   354  ASN354      0.1169
      6  CG       -63.9960    1.0720  100.6880 C.2   354  ASN354      0.2627
      7  OD1      -65.1140    1.5880  100.6730 O.2   354  ASN354     -0.2716
      8  ND2      -63.8320   -0.2330  100.7950 N.am  354  ASN354     -0.0877
      9  N        -64.8260    4.5950  101.2330 N.am  355  HIS355     -0.1961
     10  CA       -65.5400    5.4010  102.2210 C.3   355  HIS355      0.1787
     11  C        -66.7320    4.6500  102.7640 C.2   355  HIS355      0.2620
     12  O        -67.5450    5.2960  103.4360 O.2   355  HIS355     -0.2715
     13  CB       -66.0610    6.7510  101.7000 C.3   355  HIS355      0.0785
     14  CG       -64.9930    7.6090  101.1100 C.ar  355  HIS355      0.0821
     15  ND1      -63.9100    8.0330  101.8470 N.ar  355  HIS355     -0.2267
     16  CD2      -64.8010    8.0690   99.8520 C.ar  355  HIS355      0.1154
     17  CE1      -63.0970    8.7300  101.0750 C.ar  355  HIS355      0.1986
     18  NE2      -63.6120    8.7610   99.8580 N.ar  355  HIS355     -0.2212
     19  N        -66.8340    3.3500  102.4720 N.am  356  ALA356     -0.1963
     20  CA       -67.9550    2.5600  102.9660 C.3   356  ALA356      0.1728
     21  C        -67.9370    2.4550  104.4850 C.2   356  ALA356      0.2616
     22  O        -66.8800    2.5680  105.0950 O.2   356  ALA356     -0.2715
     23  CB       -67.9930    1.1780  102.3240 C.3   356  ALA356      0.0334
     24  N        -69.0950    2.2030  105.1130 N.am  357  THR357     -0.1951
     25  CA       -69.1640    2.3140  106.5730 C.3   357  THR357      0.1897
     26  C        -68.1860    1.4770  107.4100 C.2   357  THR357      0.2313
     27  O        -67.5980    2.0030  108.3660 O.2   357  THR357     -0.2863
     28  CB       -70.6080    2.2190  107.0850 C.3   357  THR357      0.1794
     29  OG1      -71.2250    1.1200  106.4020 O.3   357  THR357     -0.2208
     30  CG2      -71.3650    3.5320  106.7910 C.3   357  THR357      0.0378
     31  N        -65.3280    0.3480  106.2860 N.3   359  ALA359     -0.1231
     32  CA       -64.0190    0.3290  105.6170 C.3   359  ALA359      0.1679
     33  C        -62.9050    0.5780  106.6320 C.2   359  ALA359      0.2439
     34  O        -63.1660    1.2850  107.6070 O.2   359  ALA359     -0.2733
     35  CB       -63.9520    1.3900  104.5280 C.3   359  ALA359      0.0304
     36  N        -61.6790    0.0510  106.3910 N.am  360  PRO360     -0.2643
     37  CA       -60.5930    0.3200  107.3370 C.3   360  PRO360      0.1762
     38  C        -60.2300    1.7890  107.4350 C.2   360  PRO360      0.2642
     39  O        -60.6370    2.5810  106.6020 O.2   360  PRO360     -0.2712
     40  CB       -59.3850   -0.4510  106.7800 C.2   360  PRO360     -0.0003
     41  CG       -59.8390   -1.2270  105.6200 C.2   360  PRO360     -0.0071
     42  CD       -61.2450   -0.7850  105.2560 C.3   360  PRO360      0.1204
     43  N        -59.4510    2.1630  108.4370 N.am  361  SER361     -0.1933
     44  CA       -58.9940    3.5520  108.5200 C.3   361  SER361      0.2055
     45  C        -58.2140    3.9530  107.2720 C.2   361  SER361      0.2643
     46  O        -57.5740    3.1110  106.6050 O.2   361  SER361     -0.2714
     47  CB       -58.1410    3.7450  109.7740 C.3   361  SER361      0.2130
     48  OG       -56.8030    3.4050  109.4770 O.3   361  SER361     -0.2179
     49  N        -58.2630    5.2440  106.9500 N.am  362  TYR362     -0.1973
     50  CA       -57.5240    5.7470  105.8250 C.3   362  TYR362      0.1639
     51  C        -56.0340    5.3890  105.8540 C.2   362  TYR362      0.2290
     52  O        -55.4780    5.1260  104.8020 O.2   362  TYR362     -0.2864
     53  CB       -57.7830    7.2380  105.6000 C.3   362  TYR362      0.0560
     54  CG       -59.2550    7.5260  105.3680 C.ar  362  TYR362     -0.0198
     55  CD1      -59.9260    6.8810  104.3440 C.ar  362  TYR362     -0.0009
     56  CD2      -59.9940    8.3960  106.2020 C.ar  362  TYR362     -0.0009
     57  CE1      -61.2470    7.1170  104.0950 C.ar  362  TYR362      0.0417
     58  CE2      -61.3570    8.6370  105.9470 C.ar  362  TYR362      0.0417
     59  CZ       -61.9790    7.9850  104.8860 C.ar  362  TYR362      0.1957
     60  OH       -63.3130    8.1400  104.5360 O.3   362  TYR362     -0.2866
     61  N        -62.2570   15.0500  106.3920 N.3   461  ASN461     -0.1225
     62  CA       -62.4410   14.9080  107.8440 C.3   461  ASN461      0.1785
     63  C        -61.7480   13.7010  108.4570 C.2   461  ASN461      0.2598
     64  O        -62.0710   13.2640  109.5590 O.2   461  ASN461     -0.2718
     65  CB       -63.9260   14.9300  108.2290 C.3   461  ASN461      0.1169
     66  CG       -64.5500   16.2680  107.9060 C.2   461  ASN461      0.2627
     67  OD1      -65.4730   16.3540  107.1040 O.2   461  ASN461     -0.2716
     68  ND2      -63.9710   17.3340  108.4630 N.am  461  ASN461     -0.0877
     69  N        -60.7950   13.1450  107.7260 N.am  462  SER462     -0.1938
     70  CA       -60.0490   12.0050  108.2300 C.3   462  SER462      0.2055
     71  C        -59.3750   12.2620  109.5830 C.2   462  SER462      0.2643
     72  O        -58.7400   13.2940  109.7580 O.2   462  SER462     -0.2714
     73  CB       -59.0020   11.6510  107.1800 C.3   462  SER462      0.2130
     74  OG       -58.1570   10.6180  107.6690 O.3   462  SER462     -0.2179
     75  N        -59.4980   11.3390  110.5460 N.am  463  ASN463     -0.1957
     76  CA       -58.7010   11.3670  111.7560 C.3   463  ASN463      0.1819
     77  C        -57.4020   10.6190  111.5830 C.2   463  ASN463      0.2621
     78  O        -56.7110   10.5060  112.5680 O.2   463  ASN463     -0.2715
     79  CB       -59.4490   10.7970  112.9680 C.3   463  ASN463      0.1195
     80  CG       -60.7070   11.5950  113.2940 C.2   463  ASN463      0.2630
     81  OD1      -60.7280   12.8310  113.2260 O.2   463  ASN463     -0.2716
     82  ND2      -61.7700   10.8880  113.6550 N.am  463  ASN463     -0.0877
     83  N        -57.0250   10.1290  110.3860 N.am  464  THR464     -0.1951
     84  CA       -55.7700    9.3710  110.2610 C.3   464  THR464      0.1897
     85  C        -55.0410    9.9660  109.0730 C.2   464  THR464      0.2313
     86  O        -54.6920   11.1360  109.1070 O.2   464  THR464     -0.2863
     87  CB       -55.9120    7.7960  110.1960 C.3   464  THR464      0.1794
     88  OG1      -56.6470    7.3640  109.0310 O.3   464  THR464     -0.2208
     89  CG2      -56.6160    7.2220  111.4630 C.3   464  THR464      0.0378
@<TRIPOS>BOND
     1    16    18   ar
     2    16    14   ar
     3    18    17   ar
     4     1     2    1
     5     2     5    1
     6     2     3    1
     7     5     6    1
     8     7     6    2
     9     6     8   am
    10    17    15   ar
    11    14    13    1
    12    14    15   ar
    13     9     3   am
    14     9    10    1
    15     3     4    2
    16    13    10    1
    17    10    11    1
    18    23    20    1
    19    19    11   am
    20    19    20    1
    21    11    12    2
    22    20    21    1
    23    57    55   ar
    24    57    59   ar
    25    55    54   ar
    26    21    22    2
    27    21    24   am
    28    35    32    1
    29    60    59    1
    30    52    51    2
    31    59    58   ar
    32    24    25    1
    33    42    41    1
    34    42    36    1
    35    54    53    1
    36    54    56   ar
    37    53    50    1
    38    32    31    1
    39    32    33    1
    40    41    40    2
    41    50    51    1
    42    50    49    1
    43    58    56   ar
    44    36    33   am
    45    36    37    1
    46    61    62    1
    47    29    28    1
    48    25    28    1
    49    25    26    1
    50    39    38    2
    51    46    45    2
    52    33    34    2
    53    40    37    1
    54    30    28    1
    55    49    45   am
    56    67    66    2
    57    73    74    1
    58    73    70    1
    59    45    44    1
    60    37    38    1
    61    26    27    2
    62    38    43   am
    63    69    70    1
    64    69    63   am
    65    62    65    1
    66    62    63    1
    67    66    65    1
    68    66    68   am
    69    70    71    1
    70    43    44    1
    71    63    64    2
    72    44    47    1
    73    88    87    1
    74    85    86    2
    75    85    84    1
    76    48    47    1
    77    71    72    2
    78    71    75   am
    79    87    84    1
    80    87    89    1
    81    84    83    1
    82    83    77   am
    83    75    76    1
    84    77    76    1
    85    77    78    2
    86    76    79    1
    87    79    80    1
    88    81    80    2
    89    80    82   am
