@<TRIPOS>MOLECULE
tmp/2wwfC00.pdb
 188 183 0 0 0
SMALL
GASTEIGER

@<TRIPOS>ATOM
      1  N         51.2750  -54.5730  -35.8020 N.3    19  ASP19      -0.1225
      2  CA        52.7180  -54.3880  -35.9750 C.3    19  ASP19       0.1805
      3  C         53.3840  -55.4840  -36.7790 C.2    19  ASP19       0.2597
      4  O         53.1230  -56.6690  -36.5320 O.2    19  ASP19      -0.2718
      5  CB        53.3910  -54.2390  -34.5990 C.3    19  ASP19       0.1424
      6  CG        52.8840  -52.9910  -33.9140 C.2    19  ASP19       0.3668
      7  OD1       53.5130  -51.9300  -34.1280 O.co2  19  ASP19      -0.2456
      8  OD2       51.7720  -53.0500  -33.3230 O.co2  19  ASP19      -0.2456
      9  N         54.2070  -55.0770  -37.7440 N.am   20  ARG20      -0.1979
     10  CA        54.9620  -55.9680  -38.6350 C.3    20  ARG20       0.1597
     11  C         54.0570  -56.7510  -39.6020 C.2    20  ARG20       0.2287
     12  O         54.4550  -57.8260  -40.0730 O.2    20  ARG20      -0.2864
     13  CB        55.7300  -57.0030  -37.8270 C.3    20  ARG20       0.0334
     14  CG        56.9180  -56.5330  -36.9300 C.3    20  ARG20       0.0492
     15  CD        57.0350  -55.1140  -36.3410 C.3    20  ARG20       0.2205
     16  NE        58.3130  -54.6240  -36.8020 N.pl3  20  ARG20      -0.0865
     17  CZ        59.3300  -54.0210  -36.1800 C.cat  20  ARG20       0.5346
     18  NH1       59.4080  -53.5890  -34.9000 N.pl3  20  ARG20       0.1354
     19  NH2       60.3670  -53.8210  -36.9730 N.pl3  20  ARG20       0.1354
     20  N         52.8590  -53.4750  -43.7980 N.3    23  LYS23      -0.1245
     21  CA        52.3990  -52.1710  -44.3140 C.3    23  LYS23       0.1561
     22  C         53.4710  -51.4200  -45.1140 C.2    23  LYS23       0.2260
     23  O         53.1650  -50.9490  -46.1970 O.2    23  LYS23      -0.2867
     24  CB        51.8190  -51.2530  -43.1910 C.3    23  LYS23       0.0271
     25  CG        50.4870  -51.7840  -42.6110 C.3    23  LYS23       0.0035
     26  CD        50.1030  -50.9600  -41.3650 C.3    23  LYS23       0.0206
     27  CE        50.4470  -51.6550  -40.0540 C.3    23  LYS23       0.1093
     28  NZ        51.8990  -51.8790  -39.7900 N.3    23  LYS23      -0.1314
     29  N         53.0510  -41.6090  -44.2040 N.3    45  TYR45      -0.1227
     30  CA        52.8700  -42.6380  -43.1400 C.3    45  TYR45       0.1736
     31  C         52.7370  -41.9170  -41.7780 C.2    45  TYR45       0.2595
     32  O         53.1840  -40.7530  -41.6220 O.2    45  TYR45      -0.2718
     33  CB        54.0900  -43.5550  -43.1450 C.3    45  TYR45       0.0548
     34  CG        55.3570  -42.7820  -42.9250 C.ar   45  TYR45      -0.0200
     35  CD1       56.0520  -42.1910  -43.9960 C.ar   45  TYR45      -0.0009
     36  CD2       55.8480  -42.6050  -41.6160 C.ar   45  TYR45      -0.0009
     37  CE1       57.2410  -41.4360  -43.7700 C.ar   45  TYR45       0.0417
     38  CE2       57.0140  -41.8660  -41.3820 C.ar   45  TYR45       0.0417
     39  CZ        57.6810  -41.2800  -42.4450 C.ar   45  TYR45       0.1957
     40  OH        58.8130  -40.5430  -42.1710 O.3    45  TYR45      -0.2866
     41  N         52.0880  -42.6130  -40.8400 N.am   46  PHE46      -0.1963
     42  CA        51.8860  -42.1020  -39.5120 C.3    46  PHE46       0.1756
     43  C         52.3190  -43.1800  -38.5090 C.2    46  PHE46       0.2461
     44  O         52.0820  -44.3700  -38.7030 O.2    46  PHE46      -0.2730
     45  CB        50.4210  -41.6360  -39.2970 C.3    46  PHE46       0.0574
     46  CG        50.0660  -40.4300  -40.1460 C.ar   46  PHE46      -0.0200
     47  CD1       50.6090  -39.1930  -39.8260 C.ar   46  PHE46      -0.0042
     48  CD2       49.2050  -40.5490  -41.2740 C.ar   46  PHE46      -0.0042
     49  CE1       50.3260  -38.0650  -40.6090 C.ar   46  PHE46      -0.0003
     50  CE2       48.9480  -39.4850  -42.0570 C.ar   46  PHE46      -0.0003
     51  CZ        49.5310  -38.2190  -41.7590 C.ar   46  PHE46      -0.0000
     52  N         52.9480  -42.7580  -37.4030 N.am   47  PRO47      -0.2727
     53  CA        53.3050  -41.4070  -37.1480 C.3    47  PRO47       0.1402
     54  C         54.4980  -40.9330  -38.0010 C.2    47  PRO47       0.2269
     55  O         55.3780  -41.7360  -38.3450 O.2    47  PRO47      -0.2865
     56  CB        53.6610  -41.4250  -35.6140 C.3    47  PRO47       0.0296
     57  CG        54.3870  -42.7160  -35.4830 C.3    47  PRO47       0.0237
     58  CD        53.3260  -43.6580  -36.2730 C.3    47  PRO47       0.0939
     59  N         57.5660  -39.2610  -37.5610 N.3    49  ARG49      -0.1245
     60  CA        58.4390  -39.0500  -36.3960 C.3    49  ARG49       0.1563
     61  C         59.4450  -37.8880  -36.5770 C.2    49  ARG49       0.2260
     62  O         60.1900  -37.5980  -35.6600 O.2    49  ARG49      -0.2867
     63  CB        59.2260  -40.3460  -36.0910 C.3    49  ARG49       0.0307
     64  CG        58.2910  -41.5210  -35.7750 C.3    49  ARG49       0.0489
     65  CD        59.1570  -42.7480  -35.6870 C.3    49  ARG49       0.2205
     66  NE        58.3770  -43.9990  -35.6740 N.pl3  49  ARG49      -0.0865
     67  CZ        58.5710  -45.0020  -34.8290 C.cat  49  ARG49       0.5346
     68  NH1       59.5000  -44.9290  -33.8680 N.pl3  49  ARG49       0.1354
     69  NH2       57.8560  -46.1190  -34.9640 N.pl3  49  ARG49       0.1354
     70  N         57.2670  -44.5090  -28.2220 N.3    61  LEU61      -0.1245
     71  CA        57.2470  -45.8500  -28.8580 C.3    61  LEU61       0.1561
     72  C         58.5260  -46.6400  -28.5930 C.2    61  LEU61       0.2260
     73  O         58.4810  -47.8950  -28.4820 O.2    61  LEU61      -0.2867
     74  CB        57.0640  -45.7520  -30.3810 C.3    61  LEU61       0.0270
     75  CG        55.6830  -45.2580  -30.8500 C.3    61  LEU61       0.0019
     76  CD1       55.7710  -45.0630  -32.4280 C.3    61  LEU61       0.0001
     77  CD2       54.5200  -46.1370  -30.3870 C.3    61  LEU61       0.0001
     78  N         49.2150  -38.2650  -31.2500 N.3    76  PHE76      -0.1241
     79  CA        49.0890  -39.0620  -32.4880 C.3    76  PHE76       0.1605
     80  C         48.0800  -38.4030  -33.4440 C.2    76  PHE76       0.2264
     81  O         48.3370  -38.2910  -34.6790 O.2    76  PHE76      -0.2867
     82  CB        48.6150  -40.4940  -32.1850 C.3    76  PHE76       0.0534
     83  CG        49.6950  -41.4720  -31.9230 C.ar   76  PHE76      -0.0203
     84  CD1       50.5460  -41.8810  -32.9600 C.ar   76  PHE76      -0.0042
     85  CD2       49.8150  -42.0760  -30.6650 C.ar   76  PHE76      -0.0042
     86  CE1       51.5460  -42.8910  -32.7910 C.ar   76  PHE76      -0.0003
     87  CE2       50.8090  -43.0940  -30.4380 C.ar   76  PHE76      -0.0003
     88  CZ        51.7060  -43.4970  -31.5270 C.ar   76  PHE76      -0.0000
     89  N         48.6020  -36.1640  -37.3210 N.3    80  ARG80      -0.1245
     90  CA        47.8240  -36.2450  -38.5950 C.3    80  ARG80       0.1563
     91  C         47.3220  -34.8580  -39.0200 C.2    80  ARG80       0.2260
     92  O         47.4620  -34.4730  -40.1890 O.2    80  ARG80      -0.2867
     93  CB        46.6120  -37.1950  -38.4180 C.3    80  ARG80       0.0307
     94  CG        47.0340  -38.6470  -38.5370 C.3    80  ARG80       0.0489
     95  CD        45.8650  -39.6070  -38.3120 C.3    80  ARG80       0.2205
     96  NE        45.3830  -39.6930  -36.9160 N.pl3  80  ARG80      -0.0865
     97  CZ        45.9490  -40.4250  -35.9350 C.cat  80  ARG80       0.5346
     98  NH1       47.1150  -41.0770  -36.1090 N.pl3  80  ARG80       0.1354
     99  NH2       45.3100  -40.4850  -34.7690 N.pl3  80  ARG80       0.1354
    100  N         50.6990  -45.1920  -44.9530 N.3   100  ASP100     -0.1225
    101  CA        50.8650  -46.2770  -43.9990 C.3   100  ASP100      0.1805
    102  C         50.3880  -45.7940  -42.5710 C.2   100  ASP100      0.2598
    103  O         51.0580  -45.0200  -41.9390 O.2   100  ASP100     -0.2718
    104  CB        52.3370  -46.6370  -44.0130 C.3   100  ASP100      0.1424
    105  CG        52.7290  -47.7240  -43.0750 C.2   100  ASP100      0.3668
    106  OD1       51.9850  -48.1000  -42.2010 O.co2 100  ASP100     -0.2456
    107  OD2       53.8240  -48.2220  -43.2480 O.co2 100  ASP100     -0.2456
    108  N         49.2630  -46.3520  -42.1130 N.am  101  ARG101     -0.1966
    109  CA        48.5270  -45.9800  -40.9160 C.3   101  ARG101      0.1729
    110  C         47.8420  -44.6450  -40.9950 C.2   101  ARG101      0.2616
    111  O         48.3230  -43.7090  -41.6600 O.2   101  ARG101     -0.2715
    112  CB        49.4230  -46.0490  -39.6360 C.3   101  ARG101      0.0348
    113  CG        50.0580  -47.4230  -39.4120 C.3   101  ARG101      0.0492
    114  CD        50.5670  -47.3760  -37.9620 C.3   101  ARG101      0.2205
    115  NE        51.2010  -48.6260  -37.5570 N.pl3 101  ARG101     -0.0865
    116  CZ        50.5440  -49.7080  -37.1910 C.cat 101  ARG101      0.5346
    117  NH1       49.1980  -49.7040  -37.1310 N.pl3 101  ARG101      0.1354
    118  NH2       51.2690  -50.7900  -36.8320 N.pl3 101  ARG101      0.1354
    119  N         46.7220  -44.5570  -40.2830 N.am  102  TYR102     -0.1974
    120  CA        45.9280  -43.3410  -40.2310 C.3   102  TYR102      0.1639
    121  C         45.1170  -43.2910  -38.9060 C.2   102  TYR102      0.2290
    122  O         45.5940  -43.8600  -37.8760 O.2   102  TYR102     -0.2864
    123  CB        45.0080  -43.2720  -41.4830 C.3   102  TYR102      0.0560
    124  CG        44.5490  -41.8740  -41.8460 C.ar  102  TYR102     -0.0198
    125  CD1       45.4540  -40.8060  -41.9240 C.ar  102  TYR102     -0.0009
    126  CD2       43.2020  -41.6240  -42.1010 C.ar  102  TYR102     -0.0009
    127  CE1       45.0180  -39.4640  -42.3150 C.ar  102  TYR102      0.0417
    128  CE2       42.7330  -40.3140  -42.4280 C.ar  102  TYR102      0.0417
    129  CZ        43.6430  -39.2490  -42.5510 C.ar  102  TYR102      0.1957
    130  OH        43.1390  -38.0170  -42.9580 O.3   102  TYR102     -0.2866
    131  N         44.4490  -46.6970  -36.8810 N.3   105  SER105     -0.1202
    132  CA        45.5610  -47.0250  -35.9340 C.3   105  SER105      0.2020
    133  C         45.3370  -46.2850  -34.5890 C.2   105  SER105      0.2619
    134  O         45.3060  -46.9250  -33.5110 O.2   105  SER105     -0.2717
    135  CB        46.9550  -46.6700  -36.5210 C.3   105  SER105      0.2103
    136  OG        47.3740  -47.7380  -37.3850 O.3   105  SER105     -0.2182
    137  N         45.0920  -44.9760  -34.6660 N.am  106  GLY106     -0.1956
    138  CA        44.8890  -44.1560  -33.4510 C.3   106  GLY106      0.1869
    139  C         43.8030  -44.7240  -32.5540 C.2   106  GLY106      0.2309
    140  O         43.9890  -44.8620  -31.3360 O.2   106  GLY106     -0.2863
    141  N         44.6330  -48.8180  -31.5870 N.3   109  TYR109     -0.1227
    142  CA        45.7250  -49.0040  -30.6400 C.3   109  TYR109      0.1736
    143  C         45.3560  -48.3760  -29.2570 C.2   109  TYR109      0.2596
    144  O         45.5470  -48.9920  -28.2150 O.2   109  TYR109     -0.2718
    145  CB        47.0190  -48.3980  -31.1840 C.3   109  TYR109      0.0548
    146  CG        47.7390  -49.3520  -32.0940 C.ar  109  TYR109     -0.0200
    147  CD1       48.8550  -50.0500  -31.6450 C.ar  109  TYR109     -0.0009
    148  CD2       47.2390  -49.6400  -33.3840 C.ar  109  TYR109     -0.0009
    149  CE1       49.5090  -50.9650  -32.4630 C.ar  109  TYR109      0.0417
    150  CE2       47.8890  -50.5810  -34.2040 C.ar  109  TYR109      0.0417
    151  CZ        49.0090  -51.2290  -33.7440 C.ar  109  TYR109      0.1957
    152  OH        49.7130  -52.1430  -34.5070 O.3   109  TYR109     -0.2866
    153  N         44.8290  -47.1630  -29.2600 N.am  110  SER110     -0.1952
    154  CA        44.4630  -46.5670  -27.9760 C.3   110  SER110      0.1924
    155  C         43.3030  -47.2240  -27.2260 C.2   110  SER110      0.2314
    156  O         43.3920  -47.3560  -25.9930 O.2   110  SER110     -0.2863
    157  CB        44.1550  -45.0770  -28.1500 C.3   110  SER110      0.2116
    158  OG        45.3640  -44.3730  -28.4420 O.3   110  SER110     -0.2180
    159  N         59.5190  -51.9990  -30.0110 N.3   153  GLU153     -0.1245
    160  CA        58.6820  -50.8720  -29.6830 C.3   153  GLU153      0.1567
    161  C         57.5030  -51.2630  -28.8220 C.2   153  GLU153      0.2260
    162  O         57.1570  -52.4600  -28.6810 O.2   153  GLU153     -0.2867
    163  CB        58.3190  -50.0630  -30.9360 C.3   153  GLU153      0.0388
    164  CG        59.5690  -49.4010  -31.4850 C.3   153  GLU153      0.1160
    165  CD        59.3170  -48.3470  -32.5720 C.2   153  GLU153      0.3649
    166  OE1       58.1710  -48.2360  -33.0810 O.co2 153  GLU153     -0.2457
    167  OE2       60.2940  -47.6340  -32.8790 O.co2 153  GLU153     -0.2457
    168  N         54.2640  -51.3750  -28.2850 N.3   155  TYR155     -0.1227
    169  CA        53.0040  -52.1870  -28.3680 C.3   155  TYR155      0.1736
    170  C         53.2400  -53.5980  -28.8710 C.2   155  TYR155      0.2595
    171  O         52.2970  -54.3490  -29.0390 O.2   155  TYR155     -0.2718
    172  CB        51.9420  -51.5060  -29.2660 C.3   155  TYR155      0.0548
    173  CG        51.4440  -50.2050  -28.7130 C.ar  155  TYR155     -0.0200
    174  CD1       50.9420  -50.1330  -27.3900 C.ar  155  TYR155     -0.0009
    175  CD2       51.4770  -49.0310  -29.4940 C.ar  155  TYR155     -0.0009
    176  CE1       50.4880  -48.9200  -26.8580 C.ar  155  TYR155      0.0417
    177  CE2       50.9600  -47.7970  -28.9900 C.ar  155  TYR155      0.0417
    178  CZ        50.4830  -47.7460  -27.6820 C.ar  155  TYR155      0.1957
    179  OH        50.0200  -46.5460  -27.1780 O.3   155  TYR155     -0.2866
    180  N         54.4970  -53.9290  -29.1550 N.am  156  GLU156     -0.1979
    181  CA        54.8910  -55.2210  -29.7820 C.3   156  GLU156      0.1602
    182  C         55.0850  -56.3510  -28.7480 C.2   156  GLU156      0.2287
    183  O         56.1790  -56.8280  -28.4790 O.2   156  GLU156     -0.2864
    184  CB        56.1090  -54.9940  -30.6130 C.3   156  GLU156      0.0415
    185  CG        55.7870  -54.0480  -31.7700 C.3   156  GLU156      0.1163
    186  CD        56.9760  -53.8090  -32.6870 C.2   156  GLU156      0.3649
    187  OE1       58.1290  -54.0350  -32.2900 O.co2 156  GLU156     -0.2457
    188  OE2       56.7330  -53.4800  -33.8720 O.co2 156  GLU156     -0.2457
@<TRIPOS>BOND
     1    23    22    2
     2    22    21    1
     3   100   101    1
     4    21    20    1
     5    21    24    1
     6    29    30    1
     7   104   101    1
     8   104   105    1
     9   101   102    1
    10    35    37   ar
    11    35    34   ar
    12    37    39   ar
    13   107   105   ar
    14    24    25    1
    15    33    30    1
    16    33    34    1
    17    30    31    1
    18   105   106   ar
    19   130   129    1
    20    34    36   ar
    21    25    26    1
    22   102   108   am
    23   102   103    2
    24   129   128   ar
    25   129   127   ar
    26    39    40    1
    27    39    38   ar
    28   128   126   ar
    29   127   125   ar
    30   108   109    1
    31   126   124   ar
    32    50    51   ar
    33    50    48   ar
    34   125   124   ar
    35   124   123    1
    36    31    32    2
    37    31    41   am
    38    51    49   ar
    39   111   110    2
    40    36    38   ar
    41   123   120    1
    42    26    27    1
    43    48    46   ar
    44   110   109    1
    45   110   119   am
    46   109   112    1
    47    41    42    1
    48    49    47   ar
    49   119   120    1
    50   120   121    1
    51    92    91    2
    52    46    47   ar
    53    46    45    1
    54    12    11    2
    55    27    28    1
    56   112   113    1
    57    11    10    1
    58    42    45    1
    59    42    43    1
    60   113   114    1
    61    91    90    1
    62   121   122    2
    63    44    43    2
    64    10    13    1
    65    10     9    1
    66    90    93    1
    67    90    89    1
    68    94    93    1
    69    94    95    1
    70    43    52   am
    71    55    54    2
    72    95    96    1
    73    54    53    1
    74   114   115    1
    75    13    14    1
    76     9     3   am
    77    59    60    1
    78   115   116    2
    79    52    53    1
    80    52    58    1
    81   136   135    1
    82   116   117    1
    83   116   118    1
    84    53    56    1
    85    19    17    1
    86    14    15    1
    87    96    97    2
    88   131   132    1
    89    16    15    1
    90    16    17    2
    91     3     4    2
    92     3     2    1
    93    61    60    1
    94    61    62    2
    95   135   132    1
    96    60    63    1
    97    58    57    1
    98    17    18    1
    99    98    97    1
   100    63    64    1
   101     2     1    1
   102     2     5    1
   103    97    99    1
   104   132   133    1
   105    64    65    1
   106    65    66    1
   107    66    67    2
   108    56    57    1
   109    69    67    1
   110    67    68    1
   111    81    80    2
   112   137   133   am
   113   137   138    1
   114     5     6    1
   115   133   134    2
   116   152   151    1
   117   150   151   ar
   118   150   148   ar
   119     7     6   ar
   120     6     8   ar
   121   188   186   ar
   122   151   149   ar
   123   138   139    1
   124    80    79    1
   125   148   146   ar
   126   166   165   ar
   127    84    86   ar
   128    84    83   ar
   129   167   165   ar
   130    86    88   ar
   131   186   187   ar
   132   186   185    1
   133   165   164    1
   134   139   140    2
   135    79    82    1
   136    79    78    1
   137   149   147   ar
   138    76    75    1
   139    82    83    1
   140   146   147   ar
   141   146   145    1
   142    83    85   ar
   143   185   184    1
   144   141   142    1
   145    88    87   ar
   146   164   163    1
   147   145   142    1
   148   163   160    1
   149    75    77    1
   150    75    74    1
   151    85    87   ar
   152   142   143    1
   153   184   181    1
   154    74    71    1
   155   159   160    1
   156   181   180    1
   157   181   182    1
   158   160   161    1
   159   175   177   ar
   160   175   173   ar
   161   172   173    1
   162   172   169    1
   163   153   143   am
   164   153   154    1
   165   143   144    2
   166   180   170   am
   167   171   170    2
   168   177   178   ar
   169   170   169    1
   170    71    72    1
   171    71    70    1
   172   161   162    2
   173   182   183    2
   174   173   174   ar
   175    72    73    2
   176   158   157    1
   177   169   168    1
   178   157   154    1
   179   154   155    1
   180   178   179    1
   181   178   176   ar
   182   174   176   ar
   183   155   156    2
