@<TRIPOS>MOLECULE
tmp/2wwfC01.pdb
 126 120 0 0 0
SMALL
GASTEIGER

@<TRIPOS>ATOM
      1  N         51.2750  -54.5730  -35.8020 N.3    19  ASP19      -0.1225
      2  CA        52.7180  -54.3880  -35.9750 C.3    19  ASP19       0.1805
      3  C         53.3840  -55.4840  -36.7790 C.2    19  ASP19       0.2598
      4  O         53.1230  -56.6690  -36.5320 O.2    19  ASP19      -0.2718
      5  CB        53.3910  -54.2390  -34.5990 C.3    19  ASP19       0.1424
      6  CG        52.8840  -52.9910  -33.9140 C.2    19  ASP19       0.3668
      7  OD1       53.5130  -51.9300  -34.1280 O.co2  19  ASP19      -0.2456
      8  OD2       51.7720  -53.0500  -33.3230 O.co2  19  ASP19      -0.2456
      9  N         54.2070  -55.0770  -37.7440 N.am   20  ARG20      -0.1966
     10  CA        54.9620  -55.9680  -38.6350 C.3    20  ARG20       0.1729
     11  C         54.0570  -56.7510  -39.6020 C.2    20  ARG20       0.2617
     12  O         54.4550  -57.8260  -40.0730 O.2    20  ARG20      -0.2715
     13  CB        55.7300  -57.0030  -37.8270 C.3    20  ARG20       0.0348
     14  CG        56.9180  -56.5330  -36.9300 C.3    20  ARG20       0.0492
     15  CD        57.0350  -55.1140  -36.3410 C.3    20  ARG20       0.2205
     16  NE        58.3130  -54.6240  -36.8020 N.pl3  20  ARG20      -0.0865
     17  CZ        59.3300  -54.0210  -36.1800 C.cat  20  ARG20       0.5346
     18  NH1       59.4080  -53.5890  -34.9000 N.pl3  20  ARG20       0.1354
     19  NH2       60.3670  -53.8210  -36.9730 N.pl3  20  ARG20       0.1354
     20  N         52.8430  -56.2810  -39.8270 N.am   21  SER21      -0.1936
     21  CA        51.9230  -56.9760  -40.7110 C.3    21  SER21       0.2055
     22  C         52.2490  -56.8060  -42.2240 C.2    21  SER21       0.2644
     23  O         51.6030  -57.4490  -43.0390 O.2    21  SER21      -0.2714
     24  CB        50.4640  -56.5970  -40.4580 C.3    21  SER21       0.2130
     25  OG        50.2270  -55.1920  -40.5370 O.3    21  SER21      -0.2179
     26  N         53.2640  -56.0160  -42.5670 N.am   22  GLY22      -0.1939
     27  CA        53.6960  -55.8150  -43.9670 C.3    22  GLY22       0.2014
     28  C         53.2570  -54.4830  -44.6160 C.2    22  GLY22       0.2639
     29  O         53.2980  -54.3670  -45.8590 O.2    22  GLY22      -0.2714
     30  N         52.8590  -53.4750  -43.7980 N.am   23  LYS23      -0.1963
     31  CA        52.3990  -52.1710  -44.3140 C.3    23  LYS23       0.1728
     32  C         53.4710  -51.4200  -45.1140 C.2    23  LYS23       0.2617
     33  O         53.1650  -50.9490  -46.1970 O.2    23  LYS23      -0.2715
     34  CB        51.8190  -51.2530  -43.1910 C.3    23  LYS23       0.0311
     35  CG        50.4870  -51.7840  -42.6110 C.3    23  LYS23       0.0038
     36  CD        50.1030  -50.9600  -41.3650 C.3    23  LYS23       0.0206
     37  CE        50.4470  -51.6550  -40.0540 C.3    23  LYS23       0.1093
     38  NZ        51.8990  -51.8790  -39.7900 N.3    23  LYS23      -0.1314
     39  N         54.7050  -51.3260  -44.6290 N.am   24  SER24      -0.1936
     40  CA        55.7350  -50.5890  -45.3930 C.3    24  SER24       0.2055
     41  C         55.9770  -51.3240  -46.6840 C.2    24  SER24       0.2644
     42  O         56.1240  -50.7100  -47.7560 O.2    24  SER24      -0.2714
     43  CB        57.0500  -50.4450  -44.6220 C.3    24  SER24       0.2130
     44  OG        56.8220  -49.6200  -43.4800 O.3    24  SER24      -0.2179
     45  N         56.0170  -52.6550  -46.5740 N.am   25  THR25      -0.1936
     46  CA        56.2680  -53.5010  -47.7450 C.3    25  THR25       0.2028
     47  C         55.2380  -53.2600  -48.8280 C.2    25  THR25       0.2642
     48  O         55.6230  -52.9890  -49.9750 O.2    25  THR25      -0.2714
     49  CB        56.2810  -55.0300  -47.3900 C.3    25  THR25       0.1808
     50  OG1       57.3600  -55.2600  -46.4920 O.3    25  THR25      -0.2208
     51  CG2       56.4530  -55.9290  -48.6720 C.3    25  THR25       0.0379
     52  N         53.9560  -53.3810  -48.4620 N.am   26  GLN26      -0.1976
     53  CA        52.8670  -53.3480  -49.4180 C.3    26  GLN26       0.1601
     54  C         52.5800  -51.9160  -49.9290 C.2    26  GLN26       0.2287
     55  O         52.1860  -51.7300  -51.0970 O.2    26  GLN26      -0.2864
     56  CB        51.5680  -53.9630  -48.8340 C.3    26  GLN26       0.0394
     57  CG        51.6310  -55.4880  -48.6030 C.3    26  GLN26       0.0908
     58  CD        51.8960  -56.2880  -49.9070 C.2    26  GLN26       0.2608
     59  OE1       51.4590  -55.8950  -51.0060 O.2    26  GLN26      -0.2717
     60  NE2       52.6270  -57.3950  -49.7710 N.am   26  GLN26      -0.0878
     61  N         50.6990  -45.1920  -44.9530 N.3   100  ASP100     -0.1239
     62  CA        50.8650  -46.2770  -43.9990 C.3   100  ASP100      0.1674
     63  C         50.3880  -45.7940  -42.5710 C.2   100  ASP100      0.2266
     64  O         51.0580  -45.0200  -41.9390 O.2   100  ASP100     -0.2867
     65  CB        52.3370  -46.6370  -44.0130 C.3   100  ASP100      0.1410
     66  CG        52.7290  -47.7240  -43.0750 C.2   100  ASP100      0.3668
     67  OD1       51.9850  -48.1000  -42.2010 O.co2 100  ASP100     -0.2456
     68  OD2       53.8240  -48.2220  -43.2480 O.co2 100  ASP100     -0.2456
     69  N         58.8290  -61.6140  -37.0070 N.3   147  ARG147     -0.1231
     70  CA        59.3830  -60.7880  -38.1340 C.3   147  ARG147      0.1694
     71  C         60.3180  -59.6670  -37.6500 C.2   147  ARG147      0.2592
     72  O         60.0700  -59.0770  -36.5950 O.2   147  ARG147     -0.2718
     73  CB        58.2800  -60.2510  -39.0680 C.3   147  ARG147      0.0321
     74  CG        57.1040  -61.1670  -39.1290 C.3   147  ARG147      0.0489
     75  CD        56.6070  -61.6410  -40.4210 C.3   147  ARG147      0.2205
     76  NE        55.6760  -60.6920  -40.9300 N.pl3 147  ARG147     -0.0865
     77  CZ        54.7070  -60.8890  -41.8240 C.cat 147  ARG147      0.5346
     78  NH1       54.0580  -59.8090  -42.1700 N.pl3 147  ARG147      0.1354
     79  NH2       54.3690  -62.0680  -42.3820 N.pl3 147  ARG147      0.1354
     80  N         61.3640  -59.4060  -38.4440 N.am  148  SER148     -0.1952
     81  CA        62.4820  -58.5140  -38.1390 C.3   148  SER148      0.1924
     82  C         62.6620  -58.1470  -36.6580 C.2   148  SER148      0.2314
     83  O         63.0100  -59.0350  -35.8840 O.2   148  SER148     -0.2863
     84  CB        62.4900  -57.2970  -39.0700 C.3   148  SER148      0.2116
     85  OG        61.5990  -56.3100  -38.6090 O.3   148  SER148     -0.2180
     86  N         46.7910  -61.3230  -45.0810 N.3   182  ALA182     -0.1245
     87  CA        48.1590  -60.9490  -45.2120 C.3   182  ALA182      0.1562
     88  C         49.0440  -62.0490  -44.6740 C.2   182  ALA182      0.2260
     89  O         50.2390  -61.8370  -44.4650 O.2   182  ALA182     -0.2867
     90  CB        48.4210  -59.5850  -44.5250 C.3   182  ALA182      0.0290
     91  N         49.7560  -64.3760  -46.4800 N.3   184  ARG184     -0.1231
     92  CA        50.2790  -64.9600  -47.7290 C.3   184  ARG184      0.1694
     93  C         51.6210  -64.4380  -48.1260 C.2   184  ARG184      0.2592
     94  O         52.2330  -63.7140  -47.3610 O.2   184  ARG184     -0.2718
     95  CB        49.2490  -64.8350  -48.8390 C.3   184  ARG184      0.0321
     96  CG        48.1370  -65.8750  -48.6610 C.3   184  ARG184      0.0489
     97  CD        47.0460  -65.6310  -49.6890 C.3   184  ARG184      0.2205
     98  NE        46.5960  -64.2590  -49.5070 N.pl3 184  ARG184     -0.0865
     99  CZ        46.3510  -63.4140  -50.4960 C.cat 184  ARG184      0.5346
    100  NH1       46.4830  -63.8260  -51.7720 N.pl3 184  ARG184      0.1354
    101  NH2       45.9700  -62.1670  -50.1980 N.pl3 184  ARG184      0.1354
    102  N         52.1220  -64.8480  -49.3040 N.am  185  LYS185     -0.1966
    103  CA        53.4010  -64.3340  -49.8020 C.3   185  LYS185      0.1728
    104  C         53.2500  -62.8620  -50.2630 C.2   185  LYS185      0.2616
    105  O         52.1690  -62.4490  -50.6400 O.2   185  LYS185     -0.2715
    106  CB        53.9810  -65.1970  -50.9750 C.3   185  LYS185      0.0311
    107  CG        54.4630  -66.6940  -50.5750 C.3   185  LYS185      0.0038
    108  CD        54.8280  -67.1790  -52.0600 C.3   185  LYS185      0.0206
    109  CE        55.2670  -68.6840  -51.8520 C.3   185  LYS185      0.1093
    110  NZ        55.7900  -69.5130  -53.0530 N.3   185  LYS185     -0.1314
    111  N         54.3570  -62.1210  -50.2150 N.am  186  ILE186     -0.1977
    112  CA        54.4040  -60.6560  -50.5630 C.3   186  ILE186      0.1596
    113  C         53.7110  -60.4070  -51.9220 C.2   186  ILE186      0.2287
    114  O         52.7450  -59.6360  -52.0270 O.2   186  ILE186     -0.2864
    115  CB        55.8450  -60.1450  -50.5280 C.3   186  ILE186      0.0276
    116  CG1       56.3390  -60.0580  -49.0910 C.3   186  ILE186      0.0022
    117  CG2       56.0080  -58.7030  -51.1760 C.3   186  ILE186      0.0022
    118  CD1       57.8270  -59.6750  -48.9390 C.3   186  ILE186      0.0001
    119  N         49.6940  -61.0570  -51.8590 N.3   189  ILE189     -0.1245
    120  CA        48.9970  -59.9320  -51.2270 C.3   189  ILE189      0.1561
    121  C         48.9770  -58.6990  -52.2290 C.2   189  ILE189      0.2260
    122  O         47.9470  -58.0410  -52.4290 O.2   189  ILE189     -0.2867
    123  CB        49.7140  -59.5590  -49.8810 C.3   189  ILE189      0.0252
    124  CG1       49.7150  -60.7850  -48.9300 C.3   189  ILE189      0.0019
    125  CG2       49.0660  -58.2620  -49.2240 C.3   189  ILE189      0.0019
    126  CD1       50.8260  -60.7740  -47.8420 C.3   189  ILE189      0.0001
@<TRIPOS>BOND
     1   110   109    1
     2   122   121    2
     3   121   120    1
     4   108   109    1
     5   108   107    1
     6   114   113    2
     7   113   112    1
     8   119   120    1
     9   100    99    1
    10   120   123    1
    11   117   115    1
    12    55    54    2
    13    59    58    2
    14   106   107    1
    15   106   103    1
    16   105   104    2
    17   112   115    1
    18   112   111    1
    19   115   116    1
    20    99   101    1
    21    99    98    2
    22   104   111   am
    23   104   103    1
    24    48    47    2
    25    54    53    1
    26    58    60   am
    27    58    57    1
    28   123   125    1
    29   123   124    1
    30   103   102    1
    31    97    98    1
    32    97    96    1
    33    53    56    1
    34    53    52    1
    35   102    93   am
    36   116   118    1
    37   124   126    1
    38    95    96    1
    39    95    92    1
    40    56    57    1
    41    47    52   am
    42    47    46    1
    43    51    49    1
    44    93    92    1
    45    93    94    2
    46    42    41    2
    47    46    49    1
    48    46    45    1
    49    92    91    1
    50    49    50    1
    51    41    45   am
    52    41    40    1
    53    33    32    2
    54    29    28    2
    55    40    39    1
    56    40    43    1
    57    87    86    1
    58    87    88    1
    59    87    90    1
    60    32    39   am
    61    32    31    1
    62    61    62    1
    63    88    89    2
    64    43    44    1
    65    28    27    1
    66    28    30   am
    67    31    30    1
    68    31    34    1
    69    65    62    1
    70    65    66    1
    71    62    63    1
    72    27    26    1
    73    68    66   ar
    74    34    35    1
    75    66    67   ar
    76    23    22    2
    77    35    36    1
    78    63    64    2
    79    26    22   am
    80    79    77    1
    81    22    21    1
    82    78    77    1
    83    77    76    2
    84    36    37    1
    85    76    75    1
    86    21    24    1
    87    21    20    1
    88    25    24    1
    89    75    74    1
    90    12    11    2
    91    37    38    1
    92    20    11   am
    93    11    10    1
    94    74    73    1
    95    84    85    1
    96    84    81    1
    97    73    70    1
    98    10    13    1
    99    10     9    1
   100    80    81    1
   101    80    71   am
   102    81    82    1
   103    70    71    1
   104    70    69    1
   105    13    14    1
   106     9     3   am
   107    71    72    2
   108    19    17    1
   109    14    15    1
   110    16    15    1
   111    16    17    2
   112     3     4    2
   113     3     2    1
   114    82    83    2
   115    17    18    1
   116     2     1    1
   117     2     5    1
   118     5     6    1
   119     7     6   ar
   120     6     8   ar
