@<TRIPOS>MOLECULE
tmp/2wwgA00.pdb
 202 195 0 0 0
SMALL
GASTEIGER

@<TRIPOS>ATOM
      1  N         14.9200  -17.1630   -7.4940 N.3    16  ASP16      -0.1225
      2  CA        15.5930  -15.8870   -7.6890 C.3    16  ASP16       0.1805
      3  C         16.8950  -16.0480   -8.4900 C.2    16  ASP16       0.2597
      4  O         17.7260  -16.9650   -8.2130 O.2    16  ASP16      -0.2718
      5  CB        15.8490  -15.2620   -6.3320 C.3    16  ASP16       0.1424
      6  CG        14.5280  -14.9150   -5.6070 C.2    16  ASP16       0.3668
      7  OD1       14.0650  -13.8110   -5.8460 O.co2  16  ASP16      -0.2456
      8  OD2       13.9290  -15.7420   -4.8670 O.co2  16  ASP16      -0.2456
      9  N         17.0490  -15.1330   -9.4590 N.am   17  ARG17      -0.1979
     10  CA        18.1910  -15.0640  -10.3550 C.3    17  ARG17       0.1597
     11  C         18.2940  -16.3230  -11.2480 C.2    17  ARG17       0.2287
     12  O         19.3850  -16.8190  -11.5130 O.2    17  ARG17      -0.2864
     13  CB        19.5090  -14.8940   -9.5760 C.3    17  ARG17       0.0334
     14  CG        19.6830  -13.6870   -8.6580 C.3    17  ARG17       0.0492
     15  CD        19.0950  -12.4420   -9.1900 C.3    17  ARG17       0.2205
     16  NE        19.8750  -11.2740   -8.7790 N.pl3  17  ARG17      -0.0865
     17  CZ        19.5500  -10.4120   -7.8250 C.cat  17  ARG17       0.5346
     18  NH1       18.4470  -10.5590   -7.1060 N.pl3  17  ARG17       0.1354
     19  NH2       20.3450   -9.3980   -7.5910 N.pl3  17  ARG17       0.1354
     20  N         14.7560  -15.4810  -15.5280 N.3    20  LYS20      -0.1245
     21  CA        13.3850  -15.0440  -15.9570 C.3    20  LYS20       0.1561
     22  C         13.4360  -13.8210  -16.8380 C.2    20  LYS20       0.2260
     23  O         12.9000  -13.8170  -17.9650 O.2    20  LYS20      -0.2867
     24  CB        12.4680  -14.7800  -14.7440 C.3    20  LYS20       0.0271
     25  CG        12.1070  -16.1040  -14.0320 C.3    20  LYS20       0.0035
     26  CD        11.1280  -15.9570  -12.9230 C.3    20  LYS20       0.0206
     27  CE        11.7650  -15.6870  -11.5780 C.3    20  LYS20       0.1093
     28  NZ        12.7900  -14.6660  -11.4470 N.3    20  LYS20      -0.1314
     29  N          5.7870   -7.5540  -15.5270 N.3    42  TYR42      -0.1227
     30  CA         6.3770   -8.2960  -14.4130 C.3    42  TYR42       0.1736
     31  C          5.7650   -7.9610  -13.0280 C.2    42  TYR42       0.2595
     32  O          5.2800   -6.8430  -12.7610 O.2    42  TYR42      -0.2718
     33  CB         7.8800   -8.0640  -14.3540 C.3    42  TYR42       0.0548
     34  CG         8.1630   -6.6260  -14.1460 C.ar   42  TYR42      -0.0200
     35  CD1        8.3000   -5.7610  -15.2380 C.ar   42  TYR42      -0.0009
     36  CD2        8.2860   -6.1050  -12.8480 C.ar   42  TYR42      -0.0009
     37  CE1        8.5320   -4.3810  -15.0370 C.ar   42  TYR42       0.0417
     38  CE2        8.5530   -4.7220  -12.6300 C.ar   42  TYR42       0.0417
     39  CZ         8.6530   -3.8740  -13.7280 C.ar   42  TYR42       0.1957
     40  OH         8.9050   -2.5320  -13.5230 O.3    42  TYR42      -0.2866
     41  N          5.8380   -8.9470  -12.1520 N.am   43  PHE43      -0.1963
     42  CA         5.3910   -8.7960  -10.8170 C.3    43  PHE43       0.1756
     43  C          6.5080   -9.1240   -9.8740 C.2    43  PHE43       0.2461
     44  O          7.2830  -10.0000  -10.1650 O.2    43  PHE43      -0.2730
     45  CB         4.2670   -9.7500  -10.6060 C.3    43  PHE43       0.0574
     46  CG         3.0870   -9.3730  -11.3620 C.ar   43  PHE43      -0.0200
     47  CD1        2.4240   -8.1800  -11.0630 C.ar   43  PHE43      -0.0042
     48  CD2        2.6760  -10.1390  -12.4380 C.ar   43  PHE43      -0.0042
     49  CE1        1.3400   -7.7880  -11.8030 C.ar   43  PHE43      -0.0003
     50  CE2        1.5640   -9.7610  -13.1600 C.ar   43  PHE43      -0.0003
     51  CZ         0.9060   -8.6000  -12.8570 C.ar   43  PHE43      -0.0000
     52  N          6.5980   -8.3970   -8.7380 N.am   44  PRO44      -0.2727
     53  CA         5.6990   -7.2690   -8.4390 C.3    44  PRO44       0.1402
     54  C          6.1010   -6.1070   -9.2900 C.2    44  PRO44       0.2269
     55  O          7.2920   -5.9580   -9.6380 O.2    44  PRO44      -0.2865
     56  CB         6.0400   -6.9090   -6.9840 C.3    44  PRO44       0.0296
     57  CG         7.4880   -7.3110   -6.8620 C.3    44  PRO44       0.0237
     58  CD         7.6330   -8.5720   -7.7100 C.3    44  PRO44       0.0939
     59  N          6.9020   -2.6840   -8.8620 N.3    46  ARG46      -0.1245
     60  CA         7.3340   -1.8680   -7.7270 C.3    46  ARG46       0.1563
     61  C          7.0600   -0.3710   -7.8710 C.2    46  ARG46       0.2260
     62  O          7.3870    0.3770   -6.9640 O.2    46  ARG46      -0.2867
     63  CB         8.7920   -2.1190   -7.3850 C.3    46  ARG46       0.0307
     64  CG         9.1060   -3.6140   -7.1470 C.3    46  ARG46       0.0489
     65  CD        10.6450   -3.7530   -7.1940 C.3    46  ARG46       0.2205
     66  NE        11.2090   -5.0990   -7.0590 N.pl3  46  ARG46      -0.0865
     67  CZ        12.1260   -5.4060   -6.1430 C.cat  46  ARG46       0.5346
     68  NH1       12.5280   -4.4870   -5.2500 N.pl3  46  ARG46       0.1354
     69  NH2       12.6480   -6.6120   -6.0990 N.pl3  46  ARG46       0.1354
     70  N         11.0600   -6.0690    0.3610 N.3    58  LEU58      -0.1245
     71  CA        12.0740   -6.9580   -0.2200 C.3    58  LEU58       0.1561
     72  C         13.4840   -6.4860    0.0870 C.2    58  LEU58       0.2260
     73  O         14.4130   -7.2970    0.2030 O.2    58  LEU58      -0.2867
     74  CB        11.8740   -7.0680   -1.7330 C.3    58  LEU58       0.0270
     75  CG        10.5680   -7.7910   -2.1280 C.3    58  LEU58       0.0019
     76  CD1       10.2830   -7.5820   -3.6060 C.3    58  LEU58       0.0001
     77  CD2       10.5540   -9.2970   -1.7330 C.3    58  LEU58       0.0001
     78  N          1.9860   -8.8860    3.7680 N.3    69  ILE69      -0.1231
     79  CA         2.7970   -8.8340    2.5790 C.3    69  ILE69       0.1692
     80  C          2.1900   -9.7340    1.4790 C.2    69  ILE69       0.2592
     81  O          2.0350   -9.2840    0.3630 O.2    69  ILE69      -0.2718
     82  CB         4.3100   -9.1160    2.8640 C.3    69  ILE69       0.0266
     83  CG1        5.1340   -8.7080    1.6560 C.3    69  ILE69       0.0019
     84  CG2        4.5570  -10.5190    3.1840 C.3    69  ILE69       0.0020
     85  CD1        5.0500   -7.2150    1.2790 C.3    69  ILE69       0.0001
     86  N          1.6870  -10.9170    1.8350 N.am   70  HIS70      -0.1976
     87  CA         1.0080  -11.7590    0.8250 C.3    70  HIS70       0.1656
     88  C         -0.1540  -11.0490    0.1540 C.2    70  HIS70       0.2291
     89  O         -0.3560  -11.1700   -1.0490 O.2    70  HIS70      -0.2864
     90  CB         0.5530  -13.1200    1.3680 C.3    70  HIS70       0.0771
     91  CG        -0.1430  -13.9620    0.3240 C.ar   70  HIS70       0.0820
     92  ND1        0.5020  -14.4410   -0.8030 N.ar   70  HIS70      -0.2267
     93  CD2       -1.4360  -14.3440    0.2090 C.ar   70  HIS70       0.1154
     94  CE1       -0.3780  -15.0640   -1.5620 C.ar   70  HIS70       0.1986
     95  NE2       -1.5510  -15.0440   -0.9570 N.ar   70  HIS70      -0.2212
     96  N          1.0430   -8.4560   -2.2990 N.3    73  PHE73      -0.1241
     97  CA         1.4740   -9.0340   -3.5630 C.3    73  PHE73       0.1605
     98  C          0.3100   -9.3520   -4.4300 C.2    73  PHE73       0.2264
     99  O          0.3620   -9.0700   -5.6180 O.2    73  PHE73      -0.2867
    100  CB         2.2180  -10.3270   -3.3640 C.3    73  PHE73       0.0534
    101  CG         3.6570  -10.1510   -3.1480 C.ar   73  PHE73      -0.0203
    102  CD1        4.4970   -9.6860   -4.2160 C.ar   73  PHE73      -0.0042
    103  CD2        4.2110  -10.4510   -1.9010 C.ar   73  PHE73      -0.0042
    104  CE1        5.9010   -9.5220   -4.0290 C.ar   73  PHE73      -0.0003
    105  CE2        5.6370  -10.3010   -1.6860 C.ar   73  PHE73      -0.0003
    106  CZ         6.5040   -9.8530   -2.7740 C.ar   73  PHE73      -0.0000
    107  N         -0.8890   -7.8050   -8.0470 N.3    77  ARG77      -0.1245
    108  CA        -1.3730   -8.5820   -9.2010 C.3    77  ARG77       0.1563
    109  C         -2.7030   -8.0090   -9.6990 C.2    77  ARG77       0.2260
    110  O         -2.8300   -7.6860  -10.8890 O.2    77  ARG77      -0.2867
    111  CB        -1.4390  -10.0820   -8.8950 C.3    77  ARG77       0.0307
    112  CG        -0.0470  -10.7160   -8.7890 C.3    77  ARG77       0.0489
    113  CD        -0.0720  -12.2380   -8.5840 C.3    77  ARG77       0.2205
    114  NE        -0.4010  -12.6910   -7.2160 N.pl3  77  ARG77      -0.0865
    115  CZ         0.4900  -12.7950   -6.2220 C.cat  77  ARG77       0.5346
    116  NH1        1.7500  -12.4850   -6.4190 N.pl3  77  ARG77       0.1354
    117  NH2        0.1240  -13.2140   -5.0080 N.pl3  77  ARG77       0.1354
    118  N          7.1990  -11.8000  -16.1940 N.3    97  ASP97      -0.1225
    119  CA         8.0040  -12.4690  -15.1410 C.3    97  ASP97       0.1805
    120  C          7.1880  -12.4860  -13.8720 C.2    97  ASP97       0.2597
    121  O          6.8070  -11.4370  -13.3250 O.2    97  ASP97      -0.2718
    122  CB         9.3050  -11.7500  -14.7900 C.3    97  ASP97       0.1424
    123  CG        10.1420  -11.4490  -15.9970 C.2    97  ASP97       0.3668
    124  OD1        9.9750  -12.2360  -16.9440 O.co2  97  ASP97      -0.2456
    125  OD2       10.9540  -10.4480  -16.0120 O.co2  97  ASP97      -0.2456
    126  N          6.9080  -13.6930  -13.4300 N.am   98  ARG98      -0.1979
    127  CA         6.2150  -13.9450  -12.1830 C.3    98  ARG98       0.1597
    128  C          4.7360  -13.7200  -12.3000 C.2    98  ARG98       0.2287
    129  O          4.3000  -12.7950  -12.9880 O.2    98  ARG98      -0.2864
    130  CB         6.8360  -13.1760  -10.9980 C.3    98  ARG98       0.0334
    131  CG         8.2740  -13.5770  -10.7280 C.3    98  ARG98       0.0492
    132  CD         8.5990  -13.3170   -9.2400 C.3    98  ARG98       0.2205
    133  NE         9.9940  -13.5670   -8.8880 N.pl3  98  ARG98      -0.0865
    134  CZ        10.4780  -14.7430   -8.5220 C.cat  98  ARG98       0.5346
    135  NH1        9.6900  -15.8280   -8.4240 N.pl3  98  ARG98       0.1354
    136  NH2       11.7610  -14.8290   -8.2410 N.pl3  98  ARG98       0.1354
    137  N          4.0790  -17.6290   -7.9730 N.3   102  SER102     -0.1202
    138  CA         5.0000  -16.9970   -7.0170 C.3   102  SER102      0.2020
    139  C          4.3260  -16.8020   -5.6190 C.2   102  SER102      0.2619
    140  O          4.9680  -17.0100   -4.5930 O.2   102  SER102     -0.2717
    141  CB         5.4930  -15.6500   -7.5410 C.3   102  SER102      0.2103
    142  OG         6.5630  -15.8170   -8.4360 O.3   102  SER102     -0.2182
    143  N          3.0410  -16.4560   -5.6000 N.am  103  GLY103     -0.1956
    144  CA         2.3190  -16.3150   -4.3270 C.3   103  GLY103      0.1869
    145  C          2.4150  -17.5530   -3.4620 C.2   103  GLY103      0.2309
    146  O          2.6650  -17.4530   -2.2680 O.2   103  GLY103     -0.2863
    147  N          6.3870  -18.5560   -2.7620 N.3   106  TYR106     -0.1227
    148  CA         6.9860  -17.6820   -1.7710 C.3   106  TYR106      0.1736
    149  C          6.1800  -17.5620   -0.4670 C.2   106  TYR106      0.2596
    150  O          6.7370  -17.6660    0.6390 O.2   106  TYR106     -0.2718
    151  CB         7.3490  -16.3200   -2.3960 C.3   106  TYR106      0.0548
    152  CG         8.5470  -16.4310   -3.3320 C.ar  106  TYR106     -0.0200
    153  CD1        9.7920  -15.9820   -2.9350 C.ar  106  TYR106     -0.0009
    154  CD2        8.4220  -17.0080   -4.5960 C.ar  106  TYR106     -0.0009
    155  CE1       10.8730  -16.0750   -3.7520 C.ar  106  TYR106      0.0417
    156  CE2        9.5240  -17.1330   -5.4380 C.ar  106  TYR106      0.0417
    157  CZ        10.7380  -16.6890   -5.0090 C.ar  106  TYR106      0.1957
    158  OH        11.8170  -16.7700   -5.8280 O.3   106  TYR106     -0.2866
    159  N          4.8810  -17.3730   -0.5670 N.am  107  SER107     -0.1952
    160  CA         4.1740  -17.0800    0.7180 C.3   107  SER107      0.1924
    161  C          4.0350  -18.3690    1.5060 C.2   107  SER107      0.2314
    162  O          4.2810  -18.4030    2.7300 O.2   107  SER107     -0.2863
    163  CB         2.8280  -16.3630    0.5300 C.3   107  SER107      0.2116
    164  OG         2.9860  -15.0360   -0.0120 O.3   107  SER107     -0.2180
    165  N          7.3520  -18.1450    3.9190 N.3   111  LEU111     -0.1245
    166  CA         6.6610  -17.4930    5.0280 C.3   111  LEU111      0.1561
    167  C          5.7260  -18.4680    5.7070 C.2   111  LEU111      0.2260
    168  O          4.9220  -18.0790    6.5410 O.2   111  LEU111     -0.2867
    169  CB         5.8700  -16.2980    4.5030 C.3   111  LEU111      0.0270
    170  CG         6.5680  -15.1810    3.7190 C.3   111  LEU111      0.0019
    171  CD1        5.5620  -14.1380    3.3250 C.3   111  LEU111      0.0001
    172  CD2        7.7080  -14.5570    4.5350 C.3   111  LEU111      0.0001
    173  N         18.2520   -9.1180   -1.7390 N.3   150  GLU150     -0.1245
    174  CA        16.8760   -9.0360   -1.2420 C.3   150  GLU150      0.1567
    175  C         16.5170  -10.2020   -0.3370 C.2   150  GLU150      0.2260
    176  O         17.2790  -11.1830   -0.2290 O.2   150  GLU150     -0.2867
    177  CB        15.8610   -8.7610   -2.3600 C.3   150  GLU150      0.0388
    178  CG        16.0710   -7.3540   -2.9790 C.3   150  GLU150      0.1160
    179  CD        15.0960   -7.0150   -4.0950 C.2   150  GLU150      0.3649
    180  OE1       14.2420   -7.8470   -4.4620 O.co2 150  GLU150     -0.2457
    181  OE2       15.1460   -5.8990   -4.6300 O.co2 150  GLU150     -0.2457
    182  N         14.5930  -12.8660    0.1830 N.3   152  TYR152     -0.1227
    183  CA        14.4860  -14.3420    0.0730 C.3   152  TYR152      0.1736
    184  C         15.7440  -15.0620   -0.4810 C.2   152  TYR152      0.2595
    185  O         15.7340  -16.2670   -0.7140 O.2   152  TYR152     -0.2718
    186  CB        13.3130  -14.7010   -0.7660 C.3   152  TYR152      0.0548
    187  CG        12.0150  -14.2000   -0.2350 C.ar  152  TYR152     -0.0200
    188  CD1       11.5990  -14.4920    1.0770 C.ar  152  TYR152     -0.0009
    189  CD2       11.1440  -13.4390   -1.0630 C.ar  152  TYR152     -0.0009
    190  CE1       10.3170  -14.0400    1.5470 C.ar  152  TYR152      0.0417
    191  CE2        9.8880  -13.0180   -0.6060 C.ar  152  TYR152      0.0417
    192  CZ         9.5060  -13.3100    0.6860 C.ar  152  TYR152      0.1957
    193  OH         8.3300  -12.8620    1.0920 O.3   152  TYR152     -0.2866
    194  N         16.8190  -14.3100   -0.6900 N.am  153  GLU153     -0.1979
    195  CA        17.9780  -14.8330   -1.4400 C.3   153  GLU153      0.1602
    196  C         19.0360  -15.3760   -0.5080 C.2   153  GLU153      0.2287
    197  O         20.0930  -14.7740   -0.2920 O.2   153  GLU153     -0.2864
    198  CB        18.5160  -13.7680   -2.3700 C.3   153  GLU153      0.0415
    199  CG        17.4460  -13.3010   -3.3490 C.3   153  GLU153      0.1163
    200  CD        17.9440  -12.1820   -4.2130 C.2   153  GLU153      0.3649
    201  OE1       19.1190  -11.8420   -4.1080 O.co2 153  GLU153     -0.2457
    202  OE2       17.1670  -11.6320   -5.0010 O.co2 153  GLU153     -0.2457
@<TRIPOS>BOND
     1    23    22    2
     2   124   123   ar
     3    22    21    1
     4   118   119    1
     5   125   123   ar
     6   123   122    1
     7    21    20    1
     8    21    24    1
     9    29    30    1
    10    35    37   ar
    11    35    34   ar
    12   119   122    1
    13   119   120    1
    14    37    39   ar
    15    24    25    1
    16    30    33    1
    17    30    31    1
    18    33    34    1
    19    34    36   ar
    20    25    26    1
    21   120   126   am
    22   120   121    2
    23    39    40    1
    24    39    38   ar
    25   126   127    1
    26    50    51   ar
    27    50    48   ar
    28    31    32    2
    29    31    41   am
    30   129   128    2
    31    26    27    1
    32    51    49   ar
    33    36    38   ar
    34    48    46   ar
    35   128   127    1
    36   127   130    1
    37    41    42    1
    38    49    47   ar
    39    27    28    1
    40    12    11    2
    41    46    47   ar
    42    46    45    1
    43    11    10    1
    44   130   131    1
    45   110   109    2
    46    42    45    1
    47    42    43    1
    48   131   132    1
    49    10    13    1
    50    10     9    1
    51    44    43    2
    52    43    52   am
    53   109   108    1
    54    55    54    2
    55    13    14    1
    56     9     3   am
    57    54    53    1
    58   132   133    1
    59   108   111    1
    60   108   107    1
    61    15    16    1
    62    15    14    1
    63   111   112    1
    64   133   134    2
    65    59    60    1
    66   112   113    1
    67    16    17    2
    68    52    53    1
    69    52    58    1
    70   113   114    1
    71   134   135    1
    72   134   136    1
    73     3     4    2
    74     3     2    1
    75    53    56    1
    76   142   141    1
    77   137   138    1
    78    61    60    1
    79    61    62    2
    80    17    19    1
    81    17    18    1
    82    60    63    1
    83    58    57    1
    84     2     1    1
    85     2     5    1
    86   141   138    1
    87    63    64    1
    88   114   115    2
    89    65    64    1
    90    65    66    1
    91    66    67    2
    92   138   139    1
    93    56    57    1
    94   116   115    1
    95     5     6    1
    96   115   117    1
    97    67    69    1
    98    67    68    1
    99     7     6   ar
   100   158   157    1
   101   139   143   am
   102   139   140    2
   103    99    98    2
   104     6     8   ar
   105   143   144    1
   106   156   157   ar
   107   156   154   ar
   108   157   155   ar
   109   202   200   ar
   110   181   179   ar
   111   154   152   ar
   112   180   179   ar
   113    98    97    1
   114   144   145    1
   115   102   104   ar
   116   102   101   ar
   117   200   201   ar
   118   200   199    1
   119   179   178    1
   120   104   106   ar
   121   155   153   ar
   122    76    75    1
   123    97   100    1
   124    97    96    1
   125   145   146    2
   126   100   101    1
   127   199   198    1
   128   152   153   ar
   129   152   151    1
   130   101   103   ar
   131   178   177    1
   132   106   105   ar
   133   147   148    1
   134   151   148    1
   135   198   195    1
   136   177   174    1
   137    75    74    1
   138    75    77    1
   139   103   105   ar
   140   148   149    1
   141   173   174    1
   142    74    71    1
   143    94    95   ar
   144    94    92   ar
   145   195   194    1
   146   195   196    1
   147   174   175    1
   148   189   191   ar
   149   189   187   ar
   150    89    88    2
   151    95    93   ar
   152    92    91   ar
   153   186   187    1
   154   186   183    1
   155   185   184    2
   156   194   184   am
   157   191   192   ar
   158   159   149   am
   159   159   160    1
   160   196   197    2
   161   184   183    1
   162   149   150    2
   163   175   176    2
   164   187   188   ar
   165    71    72    1
   166    71    70    1
   167   164   163    1
   168   183   182    1
   169    72    73    2
   170    88    87    1
   171    93    91   ar
   172    91    90    1
   173    81    80    2
   174   163   160    1
   175   192   193    1
   176   192   190   ar
   177   160   161    1
   178    87    90    1
   179    87    86    1
   180   188   190   ar
   181    85    83    1
   182    80    86   am
   183    80    79    1
   184   161   162    2
   185    83    82    1
   186    79    82    1
   187    79    78    1
   188    82    84    1
   189   171   170    1
   190   170   169    1
   191   170   172    1
   192   165   166    1
   193   169   166    1
   194   166   167    1
   195   167   168    2
