@<TRIPOS>MOLECULE
tmp/2wwiB00.pdb
 173 168 0 0 0
SMALL
GASTEIGER

@<TRIPOS>ATOM
      1  N         43.3940  -12.1940  -22.0040 N.3    15  ASP15      -0.1239
      2  CA        44.8230  -11.9500  -21.8170 C.3    15  ASP15       0.1674
      3  C         44.9290  -10.5810  -21.2120 C.2    15  ASP15       0.2266
      4  O         44.4110   -9.6150  -21.7920 O.2    15  ASP15      -0.2867
      5  CB        45.5760  -11.9620  -23.1480 C.3    15  ASP15       0.1410
      6  CG        45.1390  -13.1060  -24.0650 C.2    15  ASP15       0.3668
      7  OD1       45.8840  -14.1150  -24.1270 O.co2  15  ASP15      -0.2456
      8  OD2       44.0550  -13.0070  -24.7100 O.co2  15  ASP15      -0.2456
      9  N         44.5860  -12.4650  -14.0590 N.3    19  LYS19      -0.1245
     10  CA        44.7300  -13.8590  -13.6320 C.3    19  LYS19       0.1561
     11  C         46.0070  -14.0460  -12.8280 C.2    19  LYS19       0.2260
     12  O         45.9560  -14.5820  -11.7190 O.2    19  LYS19      -0.2867
     13  CB        44.7010  -14.8240  -14.8190 C.3    19  LYS19       0.0271
     14  CG        43.3080  -15.0400  -15.3620 C.3    19  LYS19       0.0035
     15  CD        43.2990  -15.7600  -16.6850 C.3    19  LYS19       0.0206
     16  CE        43.6410  -14.8210  -17.8220 C.3    19  LYS19       0.1093
     17  NZ        45.1320  -14.7220  -17.9680 N.3    19  LYS19      -0.1314
     18  N         48.6920  -22.8730  -17.1330 N.3    42  PHE42      -0.1228
     19  CA        48.6160  -23.3630  -18.4980 C.3    42  PHE42       0.1721
     20  C         48.6400  -22.2160  -19.4860 C.2    42  PHE42       0.2437
     21  O         48.0920  -21.1440  -19.2110 O.2    42  PHE42      -0.2733
     22  CB        47.3750  -24.2210  -18.7060 C.3    42  PHE42       0.0547
     23  CG        47.4940  -25.5550  -18.0910 C.ar   42  PHE42      -0.0202
     24  CD1       48.5430  -26.4020  -18.4540 C.ar   42  PHE42      -0.0042
     25  CD2       46.5920  -25.9680  -17.1210 C.ar   42  PHE42      -0.0042
     26  CE1       48.6860  -27.6560  -17.8710 C.ar   42  PHE42      -0.0003
     27  CE2       46.7250  -27.2170  -16.5260 C.ar   42  PHE42      -0.0003
     28  CZ        47.7760  -28.0680  -16.9120 C.ar   42  PHE42      -0.0000
     29  N         49.2920  -22.4300  -20.6360 N.am   43  PRO43      -0.2729
     30  CA        49.9710  -23.6640  -20.9310 C.3    43  PRO43       0.1401
     31  C         51.3210  -23.6720  -20.2580 C.2    43  PRO43       0.2269
     32  O         51.8250  -22.6220  -19.8780 O.2    43  PRO43      -0.2865
     33  CB        50.1530  -23.5830  -22.4280 C.3    43  PRO43       0.0296
     34  CG        50.3870  -22.1480  -22.6540 C.3    43  PRO43       0.0237
     35  CD        49.4560  -21.4540  -21.7230 C.3    43  PRO43       0.0939
     36  N         54.8630  -23.7930  -20.8480 N.3    45  ARG45      -0.1245
     37  CA        55.8700  -23.6600  -21.8950 C.3    45  ARG45       0.1563
     38  C         57.1420  -24.5100  -21.6980 C.2    45  ARG45       0.2260
     39  O         58.0360  -24.4690  -22.5340 O.2    45  ARG45      -0.2867
     40  CB        56.2420  -22.1880  -22.0880 C.3    45  ARG45       0.0307
     41  CG        55.0930  -21.2910  -22.5090 C.3    45  ARG45       0.0489
     42  CD        54.5030  -20.5160  -21.3320 C.3    45  ARG45       0.2205
     43  NE        53.5990  -19.4390  -21.7350 N.pl3  45  ARG45      -0.0865
     44  CZ        53.6750  -18.7620  -22.8840 C.cat  45  ARG45       0.5346
     45  NH1       54.6290  -19.0260  -23.7770 N.pl3  45  ARG45       0.1354
     46  NH2       52.7940  -17.8000  -23.1440 N.pl3  45  ARG45       0.1354
     47  N         52.9320  -19.5620  -29.9440 N.3    57  LEU57      -0.1245
     48  CA        52.4840  -18.3290  -29.3310 C.3    57  LEU57       0.1561
     49  C         53.4860  -17.2240  -29.6300 C.2    57  LEU57       0.2260
     50  O         53.1070  -16.1470  -30.1060 O.2    57  LEU57      -0.2867
     51  CB        52.2990  -18.5320  -27.8310 C.3    57  LEU57       0.0270
     52  CG        51.1610  -19.4850  -27.4960 C.3    57  LEU57       0.0019
     53  CD1       51.1030  -19.7160  -26.0030 C.3    57  LEU57       0.0001
     54  CD2       49.8450  -18.9390  -28.0070 C.3    57  LEU57       0.0001
     55  N         47.6240  -27.9680  -26.8570 N.3    72  PHE72      -0.1241
     56  CA        47.1840  -27.3880  -25.5840 C.3    72  PHE72       0.1605
     57  C         46.4750  -28.4100  -24.7070 C.2    72  PHE72       0.2264
     58  O         46.5650  -28.3700  -23.4770 O.2    72  PHE72      -0.2867
     59  CB        46.1970  -26.2680  -25.8310 C.3    72  PHE72       0.0534
     60  CG        46.8160  -24.9490  -26.1750 C.ar   72  PHE72      -0.0203
     61  CD1       47.4920  -24.2110  -25.2210 C.ar   72  PHE72      -0.0042
     62  CD2       46.6410  -24.4050  -27.4400 C.ar   72  PHE72      -0.0042
     63  CE1       48.0190  -22.9750  -25.5280 C.ar   72  PHE72      -0.0003
     64  CE2       47.1690  -23.1610  -27.7570 C.ar   72  PHE72      -0.0003
     65  CZ        47.8660  -22.4480  -26.8030 C.ar   72  PHE72      -0.0000
     66  N         47.6270  -30.2030  -21.0330 N.3    76  ARG76      -0.1245
     67  CA        46.8530  -30.4060  -19.8230 C.3    76  ARG76       0.1563
     68  C         47.0300  -31.8550  -19.3900 C.2    76  ARG76       0.2260
     69  O         47.5950  -32.1000  -18.3480 O.2    76  ARG76      -0.2867
     70  CB        45.3910  -29.9820  -19.9950 C.3    76  ARG76       0.0307
     71  CG        45.2330  -28.4840  -19.9630 C.3    76  ARG76       0.0489
     72  CD        43.7920  -28.0490  -20.0790 C.3    76  ARG76       0.2205
     73  NE        43.2500  -28.2140  -21.4350 N.pl3  76  ARG76      -0.0865
     74  CZ        43.4560  -27.3770  -22.4570 C.cat  76  ARG76       0.5346
     75  NH1       44.2110  -26.2880  -22.3320 N.pl3  76  ARG76       0.1354
     76  NH2       42.9080  -27.6460  -23.6230 N.pl3  76  ARG76       0.1354
     77  N         46.0710  -21.5200  -13.2410 N.3    96  ASP96      -0.1225
     78  CA        45.8500  -20.3370  -14.0290 C.3    96  ASP96       0.1805
     79  C         45.5630  -20.8140  -15.4500 C.2    96  ASP96       0.2598
     80  O         46.4760  -21.2450  -16.1480 O.2    96  ASP96      -0.2718
     81  CB        47.1140  -19.4810  -13.9380 C.3    96  ASP96       0.1424
     82  CG        47.1290  -18.3460  -14.9340 C.2    96  ASP96       0.3668
     83  OD1       46.4920  -18.5070  -16.0130 O.co2  96  ASP96      -0.2456
     84  OD2       47.7850  -17.2940  -14.6460 O.co2  96  ASP96      -0.2456
     85  N         44.2940  -20.7650  -15.8560 N.am   97  ARG97      -0.1966
     86  CA        43.8340  -21.3000  -17.1570 C.3    97  ARG97       0.1729
     87  C         43.7020  -22.8000  -17.1670 C.2    97  ARG97       0.2616
     88  O         44.3810  -23.4870  -16.4350 O.2    97  ARG97      -0.2715
     89  CB        44.7170  -20.8690  -18.3250 C.3    97  ARG97       0.0348
     90  CG        44.6770  -19.3850  -18.6180 C.3    97  ARG97       0.0492
     91  CD        45.2560  -19.0910  -19.9820 C.3    97  ARG97       0.2205
     92  NE        45.3470  -17.6620  -20.2660 N.pl3  97  ARG97      -0.0865
     93  CZ        44.3410  -16.9220  -20.7140 C.cat  97  ARG97       0.5346
     94  NH1       43.1400  -17.4650  -20.9140 N.pl3  97  ARG97       0.1354
     95  NH2       44.5360  -15.6310  -20.9570 N.pl3  97  ARG97       0.1354
     96  N         42.8190  -23.2950  -18.0210 N.am   98  TYR98      -0.1974
     97  CA        42.4590  -24.7010  -18.0860 C.3    98  TYR98       0.1639
     98  C         41.6920  -24.9440  -19.4110 C.2    98  TYR98       0.2290
     99  O         41.8890  -24.2030  -20.3820 O.2    98  TYR98      -0.2864
    100  CB        41.6200  -25.0550  -16.8620 C.3    98  TYR98       0.0560
    101  CG        41.6340  -26.5140  -16.4740 C.ar   98  TYR98      -0.0198
    102  CD1       42.8250  -27.1660  -16.1280 C.ar   98  TYR98      -0.0009
    103  CD2       40.4560  -27.2360  -16.4270 C.ar   98  TYR98      -0.0009
    104  CE1       42.8280  -28.5100  -15.7510 C.ar   98  TYR98       0.0417
    105  CE2       40.4430  -28.5610  -16.0600 C.ar   98  TYR98       0.0417
    106  CZ        41.6230  -29.2080  -15.7200 C.ar   98  TYR98       0.1957
    107  OH        41.5760  -30.5650  -15.3700 O.3    98  TYR98      -0.2866
    108  N         39.8680  -21.9580  -21.2670 N.3   101  SER101     -0.1202
    109  CA        40.7590  -21.2130  -22.1570 C.3   101  SER101      0.2020
    110  C         40.9430  -21.9220  -23.5070 C.2   101  SER101      0.2619
    111  O         40.8670  -21.2860  -24.5560 O.2   101  SER101     -0.2717
    112  CB        42.1060  -20.9570  -21.4830 C.3   101  SER101      0.2103
    113  OG        42.0060  -19.8990  -20.5410 O.3   101  SER101     -0.2182
    114  N         41.1350  -23.2410  -23.4620 N.am  102  GLY102     -0.1956
    115  CA        41.3140  -24.0510  -24.6500 C.3   102  GLY102      0.1869
    116  C         40.2200  -23.7980  -25.6520 C.2   102  GLY102      0.2309
    117  O         40.4890  -23.4260  -26.7890 O.2   102  GLY102     -0.2863
    118  N         39.5210  -19.9490  -26.9730 N.3   105  TYR105     -0.1227
    119  CA        40.4730  -19.3860  -27.9130 C.3   105  TYR105      0.1736
    120  C         40.4370  -20.1360  -29.2430 C.2   105  TYR105      0.2596
    121  O         40.5060  -19.5360  -30.3210 O.2   105  TYR105     -0.2718
    122  CB        41.8750  -19.3630  -27.2990 C.3   105  TYR105      0.0548
    123  CG        42.0810  -18.2480  -26.2950 C.ar  105  TYR105     -0.0200
    124  CD1       41.4090  -18.2470  -25.0800 C.ar  105  TYR105     -0.0009
    125  CD2       42.9550  -17.1990  -26.5580 C.ar  105  TYR105     -0.0009
    126  CE1       41.5820  -17.2250  -24.1540 C.ar  105  TYR105      0.0417
    127  CE2       43.1470  -16.1640  -25.6370 C.ar  105  TYR105      0.0417
    128  CZ        42.4500  -16.1820  -24.4320 C.ar  105  TYR105      0.1957
    129  OH        42.6150  -15.1690  -23.4960 O.3   105  TYR105     -0.2866
    130  N         40.3130  -21.4510  -29.1770 N.am  106  SER106     -0.1952
    131  CA        40.2600  -22.2140  -30.3970 C.3   106  SER106      0.1924
    132  C         39.0250  -21.8530  -31.1970 C.2   106  SER106      0.2314
    133  O         39.1220  -21.5780  -32.3980 O.2   106  SER106     -0.2863
    134  CB        40.3070  -23.6860  -30.0960 C.3   106  SER106      0.2116
    135  OG        41.6170  -23.9870  -29.7240 O.3   106  SER106     -0.2180
    136  N         51.8060  -11.1990  -27.8850 N.3   142  GLU142     -0.1231
    137  CA        51.6760  -12.5150  -28.5360 C.3   142  GLU142      0.1699
    138  C         50.5430  -12.6600  -29.5590 C.2   142  GLU142      0.2592
    139  O         49.9180  -11.6870  -29.9630 O.2   142  GLU142     -0.2718
    140  CB        51.6350  -13.6480  -27.4930 C.3   142  GLU142      0.0402
    141  CG        53.0100  -14.0070  -26.9010 C.3   142  GLU142      0.1161
    142  CD        52.9330  -15.0520  -25.7870 C.2   142  GLU142      0.3649
    143  OE1       51.8330  -15.2770  -25.2330 O.co2 142  GLU142     -0.2457
    144  OE2       53.9820  -15.6480  -25.4580 O.co2 142  GLU142     -0.2457
    145  N         50.2940  -13.9060  -29.9430 N.am  143  ILE143     -0.1966
    146  CA        49.5790  -14.2540  -31.1570 C.3   143  ILE143      0.1727
    147  C         48.1270  -13.7760  -31.2180 C.2   143  ILE143      0.2616
    148  O         47.6020  -13.5190  -32.2990 O.2   143  ILE143     -0.2715
    149  CB        49.6890  -15.7850  -31.4000 C.3   143  ILE143      0.0290
    150  CG1       49.6710  -16.1340  -32.8990 C.3   143  ILE143      0.0022
    151  CG2       48.6930  -16.5500  -30.5590 C.3   143  ILE143      0.0023
    152  CD1       48.3500  -16.5840  -33.4770 C.3   143  ILE143      0.0001
    153  N         47.4810  -13.6320  -30.0680 N.am  144  TYR144     -0.1960
    154  CA        46.0400  -13.4050  -30.0610 C.3   144  TYR144      0.1771
    155  C         45.5650  -12.0240  -29.6040 C.2   144  TYR144      0.2619
    156  O         44.3590  -11.7710  -29.5890 O.2   144  TYR144     -0.2715
    157  CB        45.3560  -14.4720  -29.2220 C.3   144  TYR144      0.0574
    158  CG        45.3750  -15.8550  -29.8120 C.ar  144  TYR144     -0.0198
    159  CD1       45.0350  -16.0770  -31.1420 C.ar  144  TYR144     -0.0009
    160  CD2       45.6860  -16.9530  -29.0200 C.ar  144  TYR144     -0.0009
    161  CE1       45.0350  -17.3640  -31.6780 C.ar  144  TYR144      0.0417
    162  CE2       45.6830  -18.2370  -29.5410 C.ar  144  TYR144      0.0417
    163  CZ        45.3610  -18.4390  -30.8690 C.ar  144  TYR144      0.1957
    164  OH        45.3660  -19.7200  -31.3700 O.3   144  TYR144     -0.2866
    165  N         46.4900  -11.1380  -29.2380 N.am  145  GLU145     -0.1977
    166  CA        46.1170   -9.8270  -28.6750 C.3   145  GLU145      0.1602
    167  C         45.8070   -8.7770  -29.7550 C.2   145  GLU145      0.2287
    168  O         46.7060   -8.0830  -30.2260 O.2   145  GLU145     -0.2864
    169  CB        47.2000   -9.2970  -27.7160 C.3   145  GLU145      0.0415
    170  CG        47.5450  -10.1960  -26.5130 C.3   145  GLU145      0.1163
    171  CD        48.9990  -10.0190  -26.0480 C.2   145  GLU145      0.3649
    172  OE1       49.5910  -10.9960  -25.5270 O.co2 145  GLU145     -0.2457
    173  OE2       49.5590   -8.9060  -26.2190 O.co2 145  GLU145     -0.2457
@<TRIPOS>BOND
     1   152   150    1
     2   150   149    1
     3   133   132    2
     4   148   147    2
     5   161   159   ar
     6   161   163   ar
     7   149   146    1
     8   149   151    1
     9   164   163    1
    10   147   146    1
    11   147   153   am
    12   132   131    1
    13   146   145    1
    14   159   158   ar
    15   163   162   ar
    16   131   134    1
    17   131   130    1
    18   121   120    2
    19   168   167    2
    20    50    49    2
    21   134   135    1
    22   153   154    1
    23   154   155    1
    24   154   157    1
    25   139   138    2
    26    47    48    1
    27   145   138   am
    28   158   157    1
    29   158   160   ar
    30   167   166    1
    31    49    48    1
    32   155   156    2
    33   155   165   am
    34   138   137    1
    35   162   160   ar
    36    48    51    1
    37   120   130   am
    38   120   119    1
    39   165   166    1
    40   166   169    1
    41   137   136    1
    42   137   140    1
    43    54    52    1
    44   119   122    1
    45   119   118    1
    46    51    52    1
    47    64    62   ar
    48    64    65   ar
    49   169   170    1
    50    52    53    1
    51   140   141    1
    52    62    60   ar
    53   122   123    1
    54   141   142    1
    55    55    56    1
    56    65    63   ar
    57   117   116    2
    58   125   123   ar
    59   125   127   ar
    60   170   171    1
    61   123   124   ar
    62   173   171   ar
    63    60    59    1
    64    60    61   ar
    65   171   172   ar
    66    59    56    1
    67   142   144   ar
    68   142   143   ar
    69   116   115    1
    70   127   128   ar
    71    56    57    1
    72    63    61   ar
    73   124   126   ar
    74     8     6   ar
    75    57    58    2
    76   115   114    1
    77   111   110    2
    78   128   126   ar
    79   128   129    1
    80     7     6   ar
    81     6     5    1
    82    45    44    1
    83    76    74    1
    84   110   114   am
    85   110   109    1
    86     5     2    1
    87    46    44    1
    88    44    43    2
    89    34    33    1
    90    34    35    1
    91    39    38    2
    92    41    40    1
    93    41    42    1
    94    74    75    1
    95    74    73    2
    96    33    30    1
    97   109   112    1
    98   109   108    1
    99    40    37    1
   100     1     2    1
   101    37    38    1
   102    37    36    1
   103     2     3    1
   104     4     3    2
   105    43    42    1
   106    35    29    1
   107   112   113    1
   108    73    72    1
   109    66    67    1
   110    95    93    1
   111    30    29    1
   112    30    31    1
   113    94    93    1
   114    93    92    2
   115    29    20   am
   116    99    98    2
   117    92    91    1
   118    31    32    2
   119    72    71    1
   120    70    71    1
   121    70    67    1
   122    91    90    1
   123    67    68    1
   124    20    21    2
   125    20    19    1
   126    98    97    1
   127    68    69    2
   128    22    19    1
   129    22    23    1
   130    90    89    1
   131    19    18    1
   132    24    23   ar
   133    24    26   ar
   134    89    86    1
   135    23    25   ar
   136    97    96    1
   137    97   100    1
   138    96    87   am
   139    17    16    1
   140    26    28   ar
   141    16    15    1
   142    87    86    1
   143    87    88    2
   144    86    85    1
   145    25    27   ar
   146    28    27   ar
   147   100   101    1
   148    15    14    1
   149   101   103   ar
   150   101   102   ar
   151   103   105   ar
   152    80    79    2
   153   102   104   ar
   154   105   106   ar
   155    83    82   ar
   156    85    79   am
   157   104   106   ar
   158   106   107    1
   159    79    78    1
   160    14    13    1
   161    82    84   ar
   162    82    81    1
   163    13    10    1
   164     9    10    1
   165    78    81    1
   166    78    77    1
   167    10    11    1
   168    11    12    2
