@<TRIPOS>MOLECULE
tmp/2wwjB00.pdb
 207 198 0 0 0
SMALL
GASTEIGER

@<TRIPOS>ATOM
      1  N        -55.6720  -59.5610    4.2830 N.3    65  ILE65      -0.1245
      2  CA       -55.8630  -58.8460    5.5390 C.3    65  ILE65       0.1561
      3  C        -56.3980  -57.4720    5.2220 C.2    65  ILE65       0.2260
      4  O        -55.8920  -56.7780    4.3440 O.2    65  ILE65      -0.2867
      5  CB       -54.5390  -58.7220    6.4160 C.3    65  ILE65       0.0252
      6  CG1      -53.4090  -58.1940    5.5730 C.3    65  ILE65       0.0019
      7  CG2      -54.0690  -60.0710    7.0050 C.3    65  ILE65       0.0019
      8  CD1      -52.5830  -57.2360    6.3140 C.3    65  ILE65       0.0001
      9  N        -56.7160  -53.7310    6.3090 N.3    67  GLN67      -0.1245
     10  CA       -55.8150  -52.8980    7.0830 C.3    67  GLN67       0.1566
     11  C        -56.5290  -51.7380    7.7730 C.2    67  GLN67       0.2260
     12  O        -56.7550  -50.6760    7.1720 O.2    67  GLN67      -0.2867
     13  CB       -54.6990  -52.3580    6.1750 C.3    67  GLN67       0.0367
     14  CG       -53.8060  -53.4790    5.6380 C.3    67  GLN67       0.0905
     15  CD       -52.5800  -52.9690    4.8680 C.2    67  GLN67       0.2608
     16  OE1      -52.6830  -52.0860    4.0280 O.2    67  GLN67      -0.2717
     17  NE2      -51.4210  -53.5160    5.1720 N.am   67  GLN67      -0.0878
     18  N        -51.4800  -49.8090   12.9570 N.3    78  GLN78      -0.1245
     19  CA       -52.2410  -50.5820   11.9950 C.3    78  GLN78       0.1566
     20  C        -52.6540  -51.9480   12.5290 C.2    78  GLN78       0.2260
     21  O        -51.8260  -52.6780   13.0460 O.2    78  GLN78      -0.2867
     22  CB       -51.4110  -50.7800   10.7370 C.3    78  GLN78       0.0367
     23  CG       -51.9900  -51.7570    9.7170 C.3    78  GLN78       0.0905
     24  CD       -51.3600  -51.5270    8.3660 C.2    78  GLN78       0.2608
     25  OE1      -51.6450  -50.5280    7.7050 O.2    78  GLN78      -0.2717
     26  NE2      -50.4630  -52.4260    7.9600 N.am   78  GLN78      -0.0878
     27  N        -54.4150  -55.6270   11.5580 N.3    80  ASN80      -0.1240
     28  CA       -54.7420  -56.5300   10.4640 C.3    80  ASN80       0.1653
     29  C        -55.9390  -57.4110   10.7710 C.2    80  ASN80       0.2266
     30  O        -55.9200  -58.1280   11.7400 O.2    80  ASN80      -0.2867
     31  CB       -53.5470  -57.4160   10.1760 C.3    80  ASN80       0.1155
     32  CG       -52.3180  -56.6170    9.7620 C.2    80  ASN80       0.2627
     33  OD1      -52.4150  -55.4930    9.2830 O.2    80  ASN80      -0.2716
     34  ND2      -51.1540  -57.2070    9.9430 N.am   80  ASN80      -0.0877
     35  N        -55.1860  -56.2600    1.6230 N.3   126  TYR126     -0.1241
     36  CA       -53.8110  -56.5160    1.1080 C.3   126  TYR126      0.1605
     37  C        -53.5990  -58.0200    1.0510 C.2   126  TYR126      0.2264
     38  O        -53.7420  -58.7100    2.0420 O.2   126  TYR126     -0.2867
     39  CB       -52.7780  -55.8820    2.0500 C.3   126  TYR126      0.0534
     40  CG       -51.3840  -55.6680    1.4820 C.ar  126  TYR126     -0.0201
     41  CD1      -51.1340  -55.7840    0.1300 C.ar  126  TYR126     -0.0009
     42  CD2      -50.3350  -55.3070    2.3030 C.ar  126  TYR126     -0.0009
     43  CE1      -49.8650  -55.5650   -0.3880 C.ar  126  TYR126      0.0417
     44  CE2      -49.0430  -55.1010    1.7960 C.ar  126  TYR126      0.0417
     45  CZ       -48.8200  -55.2300    0.4410 C.ar  126  TYR126      0.1957
     46  OH       -47.5470  -54.9960   -0.0810 O.3   126  TYR126     -0.2866
     47  N        -51.2950  -60.2520    1.2690 N.3   128  ALA128     -0.1231
     48  CA       -49.9180  -60.3100    1.7430 C.3   128  ALA128      0.1694
     49  C        -49.4200  -61.7250    2.0750 C.2   128  ALA128      0.2592
     50  O        -50.1980  -62.6170    2.2950 O.2   128  ALA128     -0.2718
     51  CB       -49.8050  -59.4380    2.9700 C.3   128  ALA128      0.0304
     52  N        -48.1100  -61.9200    2.1140 N.am  129  ASP129     -0.1974
     53  CA       -47.5490  -63.1450    2.6680 C.3   129  ASP129      0.1709
     54  C        -48.0730  -64.3900    2.0320 C.2   129  ASP129      0.2293
     55  O        -48.3950  -65.3280    2.7650 O.2   129  ASP129     -0.2864
     56  CB       -47.9220  -63.2780    4.1430 C.3   129  ASP129      0.1436
     57  CG       -47.1640  -62.3190    5.0320 C.2   129  ASP129      0.3671
     58  OD1      -46.6510  -61.2870    4.5410 O.co2 129  ASP129     -0.2456
     59  OD2      -47.0790  -62.6020    6.2390 O.co2 129  ASP129     -0.2456
     60  N        -47.1290  -60.4020   -2.7210 N.3   171  TYR171     -0.1241
     61  CA       -47.8860  -59.3480   -2.1060 C.3   171  TYR171      0.1605
     62  C        -48.7350  -58.7870   -3.2420 C.2   171  TYR171      0.2264
     63  O        -48.2000  -58.1890   -4.1700 O.2   171  TYR171     -0.2867
     64  CB       -46.9340  -58.2970   -1.5210 C.3   171  TYR171      0.0534
     65  CG       -46.1850  -58.7990   -0.3040 C.ar  171  TYR171     -0.0201
     66  CD1      -44.9800  -59.5100   -0.4340 C.ar  171  TYR171     -0.0009
     67  CD2      -46.6870  -58.5840    0.9840 C.ar  171  TYR171     -0.0009
     68  CE1      -44.3180  -59.9900    0.6720 C.ar  171  TYR171      0.0417
     69  CE2      -46.0260  -59.0620    2.1030 C.ar  171  TYR171      0.0417
     70  CZ       -44.8510  -59.7650    1.9330 C.ar  171  TYR171      0.1957
     71  OH       -44.2080  -60.2300    3.0550 O.3   171  TYR171     -0.2866
     72  N        -50.6010  -50.5200    2.9050 N.3   178  SER178     -0.1202
     73  CA       -49.3840  -50.0490    3.5320 C.3   178  SER178      0.2020
     74  C        -48.4200  -51.1360    3.9630 C.2   178  SER178      0.2619
     75  O        -48.8090  -52.2190    4.3970 O.2   178  SER178     -0.2717
     76  CB       -49.7620  -49.3150    4.8110 C.3   178  SER178      0.2103
     77  OG       -50.4520  -48.1540    4.4560 O.3   178  SER178     -0.2182
     78  N        -47.1420  -50.8220    3.9100 N.am  179  PHE179     -0.1961
     79  CA       -46.2160  -51.5670    4.7320 C.3   179  PHE179      0.1771
     80  C        -45.5870  -50.6600    5.8150 C.2   179  PHE179      0.2619
     81  O        -45.1010  -49.5690    5.5310 O.2   179  PHE179     -0.2715
     82  CB       -45.2100  -52.3860    3.8980 C.3   179  PHE179      0.0574
     83  CG       -44.4380  -51.6040    2.8580 C.ar  179  PHE179     -0.0200
     84  CD1      -43.1060  -51.2580    3.0660 C.ar  179  PHE179     -0.0042
     85  CD2      -45.0080  -51.2620    1.6570 C.ar  179  PHE179     -0.0042
     86  CE1      -42.3510  -50.5770    2.1010 C.ar  179  PHE179     -0.0003
     87  CE2      -44.2590  -50.5930    0.6780 C.ar  179  PHE179     -0.0003
     88  CZ       -42.9100  -50.2680    0.9120 C.ar  179  PHE179     -0.0000
     89  N        -45.6680  -51.0980    7.0680 N.am  180  ALA180     -0.1977
     90  CA       -45.2750  -50.2940    8.2140 C.3   180  ALA180      0.1597
     91  C        -43.7360  -50.1900    8.3300 C.2   180  ALA180      0.2287
     92  O        -43.0060  -50.9470    7.6860 O.2   180  ALA180     -0.2864
     93  CB       -45.8950  -50.9220    9.4920 C.3   180  ALA180      0.0319
     94  N        -40.2210  -50.8210    9.3350 N.3   182  HIS182     -0.1241
     95  CA       -39.4740  -51.9520    9.8300 C.3   182  HIS182      0.1621
     96  C        -38.1130  -52.1410    9.1530 C.2   182  HIS182      0.2264
     97  O        -37.8790  -51.6390    8.0760 O.2   182  HIS182     -0.2867
     98  CB       -40.2710  -53.2180    9.6170 C.3   182  HIS182      0.0745
     99  CG       -40.3450  -53.6380    8.1790 C.ar  182  HIS182      0.0817
    100  ND1      -41.1230  -52.9800    7.2440 N.ar  182  HIS182     -0.2268
    101  CD2      -39.7770  -54.6810    7.5300 C.ar  182  HIS182      0.1154
    102  CE1      -40.9810  -53.5670    6.0680 C.ar  182  HIS182      0.1986
    103  NE2      -40.1690  -54.6030    6.2140 N.ar  182  HIS182     -0.2212
    104  N        -35.6110  -55.6300    8.1680 N.3   184  GLU184     -0.1245
    105  CA       -35.8670  -57.0480    7.9760 C.3   184  GLU184      0.1567
    106  C        -35.6520  -57.7680    9.2730 C.2   184  GLU184      0.2260
    107  O        -34.9590  -57.2660   10.1510 O.2   184  GLU184     -0.2867
    108  CB       -34.9320  -57.5750    6.9310 C.3   184  GLU184      0.0388
    109  CG       -35.2330  -56.9910    5.5250 C.3   184  GLU184      0.1160
    110  CD       -36.7220  -57.0100    5.1670 C.2   184  GLU184      0.3649
    111  OE1      -37.3340  -58.0810    5.1770 O.co2 184  GLU184     -0.2457
    112  OE2      -37.2930  -55.9510    4.8710 O.co2 184  GLU184     -0.2457
    113  N        -33.3770  -57.4970    2.1000 N.3   190  SER190     -0.1202
    114  CA       -34.4430  -58.0880    1.3350 C.3   190  SER190      0.2020
    115  C        -34.3100  -57.6250   -0.1020 C.2   190  SER190      0.2619
    116  O        -33.6540  -56.6220   -0.3830 O.2   190  SER190     -0.2717
    117  CB       -35.7770  -57.6260    1.8730 C.3   190  SER190      0.2103
    118  OG       -35.8010  -56.2230    1.7940 O.3   190  SER190     -0.2182
    119  N        -34.9580  -58.3600   -1.0010 N.am  191  ILE191     -0.1965
    120  CA       -35.1010  -57.9840   -2.3910 C.3   191  ILE191      0.1727
    121  C        -36.6140  -57.9320   -2.6600 C.2   191  ILE191      0.2616
    122  O        -37.4080  -58.5420   -1.9680 O.2   191  ILE191     -0.2715
    123  CB       -34.4050  -59.0290   -3.2560 C.3   191  ILE191      0.0290
    124  CG1      -34.6290  -58.7620   -4.7620 C.3   191  ILE191      0.0022
    125  CG2      -34.9190  -60.4020   -2.8370 C.3   191  ILE191      0.0023
    126  CD1      -33.7770  -59.6180   -5.7150 C.3   191  ILE191      0.0001
    127  N        -37.0480  -57.1610   -3.6330 N.am  192  ASN192     -0.1972
    128  CA       -38.4750  -57.0450   -3.8560 C.3   192  ASN192      0.1688
    129  C        -38.6060  -56.7390   -5.3310 C.2   192  ASN192      0.2292
    130  O        -38.0490  -55.7590   -5.8210 O.2   192  ASN192     -0.2864
    131  CB       -39.0910  -55.9670   -2.9250 C.3   192  ASN192      0.1181
    132  CG       -40.5880  -55.7150   -3.1880 C.2   192  ASN192      0.2629
    133  OD1      -41.0150  -55.4210   -4.3180 O.2   192  ASN192     -0.2716
    134  ND2      -41.3850  -55.7810   -2.1230 N.am  192  ASN192     -0.0877
    135  N        -45.2900  -49.0180   -6.4910 N.3   200  LYS200     -0.1245
    136  CA       -45.0940  -49.1850   -5.0690 C.3   200  LYS200      0.1561
    137  C        -44.1550  -48.0420   -4.6330 C.2   200  LYS200      0.2260
    138  O        -43.0840  -47.8860   -5.2020 O.2   200  LYS200     -0.2867
    139  CB       -44.4040  -50.5220   -4.7870 C.3   200  LYS200      0.0271
    140  CG       -44.2900  -50.8210   -3.2880 C.3   200  LYS200      0.0035
    141  CD       -43.5870  -52.1790   -2.9760 C.3   200  LYS200      0.0206
    142  CE       -44.4340  -53.4250   -3.3260 C.3   200  LYS200      0.1093
    143  NZ       -45.5100  -53.7040   -2.3550 N.3   200  LYS200     -0.1314
    144  N        -41.8630  -45.9540   -1.6380 N.3   202  TRP202     -0.1241
    145  CA       -41.0590  -46.3370   -0.4990 C.3   202  TRP202      0.1605
    146  C        -40.4820  -45.1510    0.2320 C.2   202  TRP202      0.2264
    147  O        -40.2070  -44.1360   -0.3720 O.2   202  TRP202     -0.2867
    148  CB       -39.8810  -47.1430   -0.9900 C.3   202  TRP202      0.0550
    149  CG       -40.1750  -48.4370   -1.7000 C.ar  202  TRP202      0.0003
    150  CD1      -40.7190  -48.5920   -2.9560 C.ar  202  TRP202      0.0946
    151  CD2      -39.8550  -49.7550   -1.2310 C.ar  202  TRP202      0.0152
    152  NE1      -40.7400  -49.9350   -3.2910 N.ar  202  TRP202     -0.2442
    153  CE2      -40.2470  -50.6710   -2.2500 C.ar  202  TRP202      0.0810
    154  CE3      -39.2760  -50.2530   -0.0450 C.ar  202  TRP202      0.0012
    155  CZ2      -40.0930  -52.0390   -2.1250 C.ar  202  TRP202      0.0191
    156  CZ3      -39.1300  -51.6190    0.0970 C.ar  202  TRP202      0.0001
    157  CH2      -39.5270  -52.5030   -0.9570 C.ar  202  TRP202      0.0015
    158  N        -43.1750  -55.5750   15.0260 N.3   234  HIS234     -0.1226
    159  CA       -44.5740  -56.0000   14.8570 C.3   234  HIS234      0.1752
    160  C        -45.1580  -55.5200   13.5090 C.2   234  HIS234      0.2596
    161  O        -46.2090  -55.9820   13.0560 O.2   234  HIS234     -0.2718
    162  CB       -45.4260  -55.4740   16.0120 C.3   234  HIS234      0.0759
    163  CG       -44.9150  -55.8940   17.3480 C.ar  234  HIS234      0.0818
    164  ND1      -45.3580  -55.3380   18.5300 N.ar  234  HIS234     -0.2268
    165  CD2      -43.9980  -56.8290   17.6910 C.ar  234  HIS234      0.1154
    166  CE1      -44.7480  -55.9240   19.5420 C.ar  234  HIS234      0.1986
    167  NE2      -43.9150  -56.8270   19.0600 N.ar  234  HIS234     -0.2212
    168  N        -44.4840  -54.5710   12.8880 N.am  235  LYS235     -0.1966
    169  CA       -44.9150  -54.0060   11.6170 C.3   235  LYS235      0.1728
    170  C        -46.3180  -53.4180   11.6670 C.2   235  LYS235      0.2616
    171  O        -47.1120  -53.6610   10.7880 O.2   235  LYS235     -0.2715
    172  CB       -44.8020  -55.0420   10.5280 C.3   235  LYS235      0.0311
    173  CG       -43.3580  -55.4750   10.2740 C.3   235  LYS235      0.0038
    174  CD       -43.3170  -56.7180    9.3720 C.3   235  LYS235      0.0206
    175  CE       -41.9080  -57.2750    9.2160 C.3   235  LYS235      0.1093
    176  NZ       -41.7430  -58.1520    8.0110 N.3   235  LYS235     -0.1314
    177  N        -46.5970  -52.6400   12.7000 N.am  236  MET236     -0.1977
    178  CA       -47.8940  -52.0110   12.8940 C.3   236  MET236      0.1605
    179  C        -47.7960  -50.4720   12.9460 C.2   236  MET236      0.2287
    180  O        -48.8040  -49.7740   13.0700 O.2   236  MET236     -0.2864
    181  CB       -48.5740  -52.5320   14.1760 C.3   236  MET236      0.0413
    182  CG       -49.0430  -54.0100   14.0810 C.3   236  MET236      0.0598
    183  SD       -49.6270  -54.5070   15.7430 S.3   236  MET236     -0.1393
    184  CE       -51.3610  -53.9280   15.8450 C.3   236  MET236      0.0692
    185  N        -33.3340  -53.7180   -0.0090 N.3   264  THR264     -0.1218
    186  CA       -33.0850  -53.0230    1.2380 C.3   264  THR264      0.1862
    187  C        -31.8560  -53.6410    1.9450 C.2   264  THR264      0.2287
    188  O        -31.5620  -54.8150    1.7650 O.2   264  THR264     -0.2866
    189  CB       -34.2960  -53.0410    2.1780 C.3   264  THR264      0.1770
    190  OG1      -34.3510  -54.2950    2.8650 O.3   264  THR264     -0.2211
    191  CG2      -35.5960  -52.8050    1.4000 C.3   264  THR264      0.0375
    192  N        -37.6130  -49.0440    6.5220 N.3   270  HIS270     -0.1241
    193  CA       -38.3390  -48.7010    5.3190 C.3   270  HIS270      0.1621
    194  C        -39.8280  -48.8750    5.5810 C.2   270  HIS270      0.2264
    195  O        -40.2200  -49.6260    6.4800 O.2   270  HIS270     -0.2867
    196  CB       -37.8370  -49.4950    4.0680 C.3   270  HIS270      0.0745
    197  CG       -37.8710  -50.9790    4.2390 C.ar  270  HIS270      0.0817
    198  ND1      -36.9150  -51.6660    4.9570 N.ar  270  HIS270     -0.2268
    199  CD2      -38.7700  -51.9070    3.8260 C.ar  270  HIS270      0.1154
    200  CE1      -37.2060  -52.9540    4.9520 C.ar  270  HIS270      0.1986
    201  NE2      -38.3310  -53.1260    4.2770 N.ar  270  HIS270     -0.2212
    202  N        -40.9920  -61.3380   -3.0240 N.3   282  SER282     -0.1217
    203  CA       -40.0930  -60.8280   -2.0010 C.3   282  SER282      0.1889
    204  C        -39.4590  -61.9460   -1.2090 C.2   282  SER282      0.2288
    205  O        -40.1010  -62.9550   -0.9790 O.2   282  SER282     -0.2866
    206  CB       -40.9160  -59.9270   -1.0720 C.3   282  SER282      0.2089
    207  OG       -40.0860  -59.1630   -0.2460 O.3   282  SER282     -0.2183
@<TRIPOS>BOND
     1   135   136    1
     2   130   129    2
     3   126   124    1
     4   129   128    1
     5   138   137    2
     6   136   139    1
     7   136   137    1
     8   139   140    1
     9   124   123    1
    10   133   132    2
    11    63    62    2
    12   128   127    1
    13   128   131    1
    14   127   121   am
    15   142   141    1
    16   142   143    1
    17   152   150   ar
    18   152   153   ar
    19   140   141    1
    20   123   125    1
    21   123   120    1
    22    62    61    1
    23   132   131    1
    24   132   134   am
    25   202   203    1
    26   150   149   ar
    27    60    61    1
    28   121   120    1
    29   121   122    2
    30   120   119    1
    31   153   155   ar
    32   153   151   ar
    33   155   157   ar
    34    61    64    1
    35   203   204    1
    36   203   206    1
    37   149   151   ar
    38   149   148    1
    39   144   145    1
    40    64    65    1
    41   151   154   ar
    42   204   205    2
    43   206   207    1
    44   119   115   am
    45   148   145    1
    46   157   156   ar
    47   145   146    1
    48    66    65   ar
    49    66    68   ar
    50    43    41   ar
    51    43    45   ar
    52   116   115    2
    53   147   146    2
    54    65    67   ar
    55   115   114    1
    56    46    45    1
    57   154   156   ar
    58   185   186    1
    59    41    40   ar
    60    45    44   ar
    61    68    70   ar
    62    87    88   ar
    63    87    85   ar
    64    88    86   ar
    65    67    69   ar
    66    37    36    1
    67    37    38    2
    68    36    35    1
    69    36    39    1
    70   186   187    1
    71   186   189    1
    72    47    48    1
    73   114   117    1
    74   114   113    1
    75   191   189    1
    76    40    39    1
    77    40    42   ar
    78    85    83   ar
    79    48    49    1
    80    48    51    1
    81   188   187    2
    82   118   117    1
    83    44    42   ar
    84    70    69   ar
    85    70    71    1
    86    54    53    1
    87    54    55    2
    88    49    52   am
    89    49    50    2
    90    86    84   ar
    91    52    53    1
    92   189   190    1
    93    53    56    1
    94    83    84   ar
    95    83    82    1
    96    72    73    1
    97    73    74    1
    98    73    76    1
    99   199   197   ar
   100   199   201   ar
   101    82    79    1
   102    78    74   am
   103    78    79    1
   104    74    75    2
   105    16    15    2
   106   196   197    1
   107   196   193    1
   108    56    57    1
   109   197   198   ar
   110   201   200   ar
   111     1     2    1
   112     4     3    2
   113    77    76    1
   114    58    57   ar
   115    79    80    1
   116    15    17   am
   117    15    14    1
   118   112   110   ar
   119   200   198   ar
   120    57    59   ar
   121   110   111   ar
   122   110   109    1
   123     3     2    1
   124   193   194    1
   125   193   192    1
   126   109   108    1
   127    81    80    2
   128     2     5    1
   129     6     8    1
   130     6     5    1
   131   194   195    2
   132    14    13    1
   133    80    89   am
   134   102   103   ar
   135   102   100   ar
   136    13    10    1
   137   103   101   ar
   138     9    10    1
   139     5     7    1
   140   108   105    1
   141    89    90    1
   142    10    11    1
   143    12    11    2
   144   100    99   ar
   145   101    99   ar
   146    92    91    2
   147    25    24    2
   148    26    24   am
   149   105   104    1
   150   105   106    1
   151   176   175    1
   152    97    96    2
   153    99    98    1
   154    90    91    1
   155    90    93    1
   156    24    23    1
   157    96    95    1
   158   175   174    1
   159   106   107    2
   160    33    32    2
   161    94    95    1
   162   174   173    1
   163    98    95    1
   164    23    22    1
   165    32    34   am
   166    32    31    1
   167    31    28    1
   168   173   172    1
   169    28    29    1
   170    28    27    1
   171   172   169    1
   172    22    19    1
   173    29    30    2
   174   171   170    2
   175   169   170    1
   176   169   168    1
   177   170   177   am
   178    19    20    1
   179    19    18    1
   180    20    21    2
   181   177   178    1
   182   168   160   am
   183   178   179    1
   184   178   181    1
   185   179   180    2
   186   161   160    2
   187   160   159    1
   188   182   181    1
   189   182   183    1
   190   159   158    1
   191   159   162    1
   192   183   184    1
   193   162   163    1
   194   163   165   ar
   195   163   164   ar
   196   165   167   ar
   197   164   166   ar
   198   167   166   ar
