@<TRIPOS>MOLECULE
tmp/2wwuA00.pdb
 112 111 0 0 0
SMALL
GASTEIGER

@<TRIPOS>ATOM
      1  N         58.5440   57.7100   15.4880 N.3   166  ASP166     -0.1225
      2  CA        59.8460   58.1180   16.0140 C.3   166  ASP166      0.1805
      3  C         60.4900   57.0450   16.9000 C.2   166  ASP166      0.2598
      4  O         59.8300   56.1030   17.3530 O.2   166  ASP166     -0.2718
      5  CB        59.7320   59.4330   16.7840 C.3   166  ASP166      0.1424
      6  CG        61.0140   60.2590   16.7180 C.2   166  ASP166      0.3668
      7  OD1       61.9240   59.8870   15.9440 O.co2 166  ASP166     -0.2456
      8  OD2       61.1060   61.2810   17.4250 O.co2 166  ASP166     -0.2456
      9  N         61.7870   57.1940   17.1330 N.am  167  PHE167     -0.1962
     10  CA        62.5380   56.2190   17.9190 C.3   167  PHE167      0.1771
     11  C         61.8900   55.9440   19.2630 C.2   167  PHE167      0.2620
     12  O         61.5480   56.8640   20.0040 O.2   167  PHE167     -0.2715
     13  CB        63.9730   56.6960   18.1270 C.3   167  PHE167      0.0574
     14  CG        64.7930   56.6650   16.8790 C.ar  167  PHE167     -0.0200
     15  CD1       65.3580   55.4780   16.4430 C.ar  167  PHE167     -0.0042
     16  CD2       64.9800   57.8140   16.1300 C.ar  167  PHE167     -0.0042
     17  CE1       66.1040   55.4350   15.2880 C.ar  167  PHE167     -0.0003
     18  CE2       65.7320   57.7770   14.9700 C.ar  167  PHE167     -0.0003
     19  CZ        66.2960   56.5870   14.5510 C.ar  167  PHE167     -0.0000
     20  N         61.7340   54.6680   19.5820 N.am  168  HIS168     -0.1959
     21  CA        61.1730   54.2990   20.8660 C.3   168  HIS168      0.1787
     22  C         61.6210   52.9030   21.2610 C.2   168  HIS168      0.2620
     23  O         62.1560   52.1460   20.4480 O.2   168  HIS168     -0.2715
     24  CB        59.6430   54.3430   20.8070 C.3   168  HIS168      0.0785
     25  CG        59.0520   53.3120   19.8990 C.ar  168  HIS168      0.0821
     26  ND1       59.0630   53.4380   18.5250 N.ar  168  HIS168     -0.2267
     27  CD2       58.4520   52.1290   20.1630 C.ar  168  HIS168      0.1154
     28  CE1       58.4790   52.3850   17.9840 C.ar  168  HIS168      0.1986
     29  NE2       58.0900   51.5800   18.9580 N.ar  168  HIS168     -0.2212
     30  N         61.3970   52.5760   22.5250 N.am  169  ILE169     -0.1977
     31  CA        61.5900   51.2270   23.0140 C.3   169  ILE169      0.1596
     32  C         60.2150   50.6260   23.1350 C.2   169  ILE169      0.2287
     33  O         59.2810   51.2950   23.5830 O.2   169  ILE169     -0.2864
     34  CB        62.2740   51.2450   24.3830 C.3   169  ILE169      0.0276
     35  CG1       63.7110   51.7500   24.2210 C.3   169  ILE169      0.0022
     36  CG2       62.2380   49.8680   25.0130 C.3   169  ILE169      0.0022
     37  CD1       64.4780   51.9170   25.5280 C.3   169  ILE169      0.0001
     38  N         69.4630   57.9230   24.8710 N.3   200  PHE200     -0.1241
     39  CA        68.0380   57.8430   24.5570 C.3   200  PHE200      0.1605
     40  C         67.2130   58.5590   25.6300 C.2   200  PHE200      0.2264
     41  O         66.3180   59.3390   25.3150 O.2   200  PHE200     -0.2867
     42  CB        67.5850   56.3790   24.3810 C.3   200  PHE200      0.0534
     43  CG        66.1280   56.2310   23.9720 C.ar  200  PHE200     -0.0203
     44  CD1       65.7020   56.6240   22.7140 C.ar  200  PHE200     -0.0042
     45  CD2       65.1930   55.6940   24.8440 C.ar  200  PHE200     -0.0042
     46  CE1       64.3660   56.4960   22.3370 C.ar  200  PHE200     -0.0003
     47  CE2       63.8470   55.5620   24.4690 C.ar  200  PHE200     -0.0003
     48  CZ        63.4420   55.9610   23.2220 C.ar  200  PHE200     -0.0000
     49  N         67.6890   62.2300   25.2340 N.3   203  TRP203     -0.1227
     50  CA        66.9340   62.7120   24.0830 C.3   203  TRP203      0.1737
     51  C         65.4210   62.7230   24.3270 C.2   203  TRP203      0.2596
     52  O         64.7150   63.6190   23.8550 O.2   203  TRP203     -0.2718
     53  CB        67.2770   61.8570   22.8630 C.3   203  TRP203      0.0564
     54  CG        66.3830   62.0470   21.6700 C.ar  203  TRP203      0.0003
     55  CD1       66.5080   62.9920   20.6980 C.ar  203  TRP203      0.0946
     56  CD2       65.2490   61.2420   21.3030 C.ar  203  TRP203      0.0152
     57  NE1       65.5190   62.8360   19.7520 N.ar  203  TRP203     -0.2442
     58  CE2       64.7340   61.7680   20.1000 C.ar  203  TRP203      0.0810
     59  CE3       64.6170   60.1330   21.8790 C.ar  203  TRP203      0.0012
     60  CZ2       63.6160   61.2280   19.4600 C.ar  203  TRP203      0.0191
     61  CZ3       63.5070   59.5900   21.2360 C.ar  203  TRP203      0.0001
     62  CH2       63.0180   60.1410   20.0420 C.ar  203  TRP203      0.0015
     63  N         64.9250   61.7280   25.0600 N.am  204  SER204     -0.1952
     64  CA        63.4890   61.6300   25.3280 C.3   204  SER204      0.1924
     65  C         63.0210   62.7870   26.1870 C.2   204  SER204      0.2314
     66  O         61.8530   63.1590   26.1480 O.2   204  SER204     -0.2863
     67  CB        63.1440   60.3240   26.0400 C.3   204  SER204      0.2116
     68  OG        63.4710   59.2080   25.2380 O.3   204  SER204     -0.2180
     69  N         63.3570   67.6580   21.3880 N.3   209  GLN209     -0.1245
     70  CA        63.3070   66.2710   20.9450 C.3   209  GLN209      0.1566
     71  C         62.7960   66.1570   19.5050 C.2   209  GLN209      0.2260
     72  O         63.3260   65.3820   18.7060 O.2   209  GLN209     -0.2867
     73  CB        62.4280   65.4490   21.8950 C.3   209  GLN209      0.0367
     74  CG        62.3040   63.9790   21.5250 C.3   209  GLN209      0.0905
     75  CD        61.3870   63.2160   22.4670 C.2   209  GLN209      0.2608
     76  OE1       60.6940   63.8070   23.2940 O.2   209  GLN209     -0.2717
     77  NE2       61.3810   61.8950   22.3430 N.am  209  GLN209     -0.0878
     78  N         61.4880   52.2140   29.7470 N.3   271  GLU271     -0.1245
     79  CA        60.3270   52.5940   28.9450 C.3   271  GLU271      0.1567
     80  C         59.1730   53.0840   29.8390 C.2   271  GLU271      0.2260
     81  O         58.4440   54.0030   29.4770 O.2   271  GLU271     -0.2867
     82  CB        59.8740   51.4370   28.0350 C.3   271  GLU271      0.0388
     83  CG        59.0360   51.8840   26.8270 C.3   271  GLU271      0.1160
     84  CD        57.5220   51.9380   27.1220 C.2   271  GLU271      0.3649
     85  OE1       57.0640   51.2830   28.0950 O.co2 271  GLU271     -0.2457
     86  OE2       56.7940   52.6260   26.3680 O.co2 271  GLU271     -0.2457
     87  N         60.0250   56.6790   30.5820 N.3   274  LEU274     -0.1231
     88  CA        60.0770   57.5830   29.4380 C.3   274  LEU274      0.1693
     89  C         58.7510   57.6760   28.6960 C.2   274  LEU274      0.2593
     90  O         58.5070   58.6480   27.9820 O.2   274  LEU274     -0.2718
     91  CB        61.1710   57.1480   28.4580 C.3   274  LEU274      0.0284
     92  CG        62.6100   57.5770   28.7640 C.3   274  LEU274      0.0019
     93  CD1       62.9350   57.4800   30.2530 C.3   274  LEU274      0.0001
     94  CD2       63.5950   56.7580   27.9390 C.3   274  LEU274      0.0001
     95  N         57.9090   56.6590   28.8450 N.am  275  SER275     -0.1938
     96  CA        56.6760   56.5890   28.0570 C.3   275  SER275      0.2055
     97  C         55.7700   57.7970   28.2920 C.2   275  SER275      0.2644
     98  O         55.6580   58.3050   29.4180 O.2   275  SER275     -0.2714
     99  CB        55.9040   55.3070   28.3720 C.3   275  SER275      0.2130
    100  OG        54.6550   55.2920   27.7030 O.3   275  SER275     -0.2179
    101  N         55.1220   58.2570   27.2290 N.am  276  THR276     -0.1936
    102  CA        54.1100   59.2920   27.3800 C.3   276  THR276      0.2028
    103  C         52.7100   58.7090   27.1840 C.2   276  THR276      0.2642
    104  O         51.7330   59.4410   27.0730 O.2   276  THR276     -0.2714
    105  CB        54.3410   60.4470   26.3960 C.3   276  THR276      0.1808
    106  OG1       54.2560   59.9480   25.0580 O.3   276  THR276     -0.2208
    107  CG2       55.7170   61.0630   26.6190 C.3   276  THR276      0.0379
    108  N         52.6170   57.3860   27.1280 N.am  277  ALA277     -0.1977
    109  CA        51.3180   56.7300   27.0010 C.3   277  ALA277      0.1597
    110  C         50.4550   56.9660   28.2530 C.2   277  ALA277      0.2287
    111  O         50.9710   57.0080   29.3720 O.2   277  ALA277     -0.2864
    112  CB        51.5030   55.2200   26.7480 C.3   277  ALA277      0.0319
@<TRIPOS>BOND
     1    19    18   ar
     2    19    17   ar
     3    18    16   ar
     4    17    15   ar
     5     1     2    1
     6     7     6   ar
     7     2     5    1
     8     2     3    1
     9    16    14   ar
    10    15    14   ar
    11     6     5    1
    12     6     8   ar
    13    14    13    1
    14     3     9   am
    15     3     4    2
    16     9    10    1
    17    10    13    1
    18    10    11    1
    19    28    26   ar
    20    28    29   ar
    21    26    25   ar
    22    72    71    2
    23    29    27   ar
    24    11    20   am
    25    11    12    2
    26    60    62   ar
    27    60    58   ar
    28    71    70    1
    29    20    21    1
    30    57    58   ar
    31    57    55   ar
    32    25    27   ar
    33    25    24    1
    34    62    61   ar
    35    58    56   ar
    36    23    22    2
    37    55    54   ar
    38    24    21    1
    39    21    22    1
    40    70    69    1
    41    70    73    1
    42    61    59   ar
    43    22    30   am
    44    56    54   ar
    45    56    59   ar
    46    74    73    1
    47    74    75    1
    48    54    53    1
    49    46    44   ar
    50    46    48   ar
    51    77    75   am
    52    75    76    2
    53    30    31    1
    54    44    43   ar
    55    53    50    1
    56    31    32    1
    57    31    34    1
    58    32    33    2
    59    48    47   ar
    60    52    51    2
    61    43    42    1
    62    43    45   ar
    63    50    51    1
    64    50    49    1
    65    35    34    1
    66    35    37    1
    67    51    63   am
    68    42    39    1
    69    34    36    1
    70    47    45   ar
    71    39    38    1
    72    39    40    1
    73   106   105    1
    74    63    64    1
    75    68    67    1
    76    41    40    2
    77    64    67    1
    78    64    65    1
    79    66    65    2
    80    86    84   ar
    81   105   107    1
    82   105   102    1
    83   112   109    1
    84    83    84    1
    85    83    82    1
    86   109   108    1
    87   109   110    1
    88   104   103    2
    89    84    85   ar
    90   108   103   am
    91   103   102    1
    92   101   102    1
    93   101    97   am
    94   100    99    1
    95    94    92    1
    96    90    89    2
    97    82    79    1
    98    96    97    1
    99    96    99    1
   100    96    95    1
   101   110   111    2
   102    97    98    2
   103    91    92    1
   104    91    88    1
   105    89    95   am
   106    89    88    1
   107    92    93    1
   108    79    78    1
   109    79    80    1
   110    88    87    1
   111    81    80    2
