@<TRIPOS>MOLECULE
tmp/2wwwD00.pdb
 121 119 0 0 0
SMALL
GASTEIGER

@<TRIPOS>ATOM
      1  N         22.7850   -4.4370   55.4880 N.3    68  LYS68      -0.1231
      2  CA        23.1260   -3.0300   55.7920 C.3    68  LYS68       0.1678
      3  C         22.6420   -2.6570   57.2400 C.2    68  LYS68       0.2434
      4  O         21.5560   -3.0900   57.6390 O.2    68  LYS68      -0.2733
      5  CB        22.5100   -2.1010   54.7250 C.3    68  LYS68       0.0284
      6  CG        22.9980   -0.6700   54.7400 C.3    68  LYS68       0.0035
      7  CD        21.8280    0.3250   54.7490 C.3    68  LYS68       0.0206
      8  CE        22.2600    1.7740   54.7450 C.3    68  LYS68       0.1093
      9  NZ        22.9480    2.1590   53.4740 N.3    68  LYS68      -0.1314
     10  N         23.4470   -1.8940   58.0330 N.am   69  PRO69      -0.2718
     11  CA        23.0330   -1.5300   59.4030 C.3    69  PRO69       0.1535
     12  C         21.8100   -0.6400   59.4130 C.2    69  PRO69       0.2598
     13  O         21.6290    0.1460   58.5010 O.2    69  PRO69      -0.2715
     14  CB        24.2440   -0.7460   59.9480 C.3    69  PRO69       0.0310
     15  CG        25.3770   -1.1690   59.1210 C.3    69  PRO69       0.0237
     16  CD        24.7820   -1.3350   57.7460 C.3    69  PRO69       0.0939
     17  N         20.9990   -0.7560   60.4650 N.am   70  LEU70      -0.1964
     18  CA        19.7420   -0.0370   60.6260 C.3    70  LEU70       0.1728
     19  C         19.8530    1.2490   61.4340 C.2    70  LEU70       0.2616
     20  O         18.9380    2.0390   61.3910 O.2    70  LEU70      -0.2715
     21  CB        18.7250   -0.9720   61.2560 C.3    70  LEU70       0.0311
     22  CG        18.0160   -1.9070   60.2770 C.3    70  LEU70       0.0022
     23  CD1       18.5790   -3.2730   60.3550 C.3    70  LEU70       0.0001
     24  CD2       16.5220   -1.9650   60.5660 C.3    70  LEU70       0.0001
     25  N         20.9220    1.4190   62.2480 N.am   71  ALA71      -0.1963
     26  CA        21.1460    2.6370   62.9850 C.3    71  ALA71       0.1728
     27  C         22.6010    3.1050   62.8950 C.2    71  ALA71       0.2616
     28  O         23.5500    2.3290   62.6830 O.2    71  ALA71      -0.2715
     29  CB        20.7030    2.5110   64.4200 C.3    71  ALA71       0.0334
     30  N         22.7310    4.4120   62.9290 N.am   72  PHE72      -0.1974
     31  CA        24.0110    5.0740   62.9860 C.3    72  PHE72       0.1639
     32  C         24.2360    5.3410   64.5260 C.2    72  PHE72       0.2290
     33  O         23.4640    6.0990   65.1340 O.2    72  PHE72      -0.2864
     34  CB        23.9730    6.4070   62.2190 C.3    72  PHE72       0.0560
     35  CG        25.2850    7.1850   62.1830 C.ar   72  PHE72      -0.0200
     36  CD1       26.5170    6.5220   62.2030 C.ar   72  PHE72      -0.0042
     37  CD2       25.2920    8.5730   61.9790 C.ar   72  PHE72      -0.0042
     38  CE1       27.7250    7.2330   62.1550 C.ar   72  PHE72      -0.0003
     39  CE2       26.5060    9.2680   61.8470 C.ar   72  PHE72      -0.0003
     40  CZ        27.7050    8.5950   61.9790 C.ar   72  PHE72      -0.0000
     41  N         13.5260   15.9250   60.4520 N.3    98  ARG98      -0.1231
     42  CA        13.9830   15.2920   59.2000 C.3    98  ARG98       0.1694
     43  C         13.5740   13.8050   59.0940 C.2    98  ARG98       0.2593
     44  O         14.0350   13.1110   58.1860 O.2    98  ARG98      -0.2718
     45  CB        15.4880   15.4800   58.9430 C.3    98  ARG98       0.0321
     46  CG        15.8690   16.9550   58.7800 C.3    98  ARG98       0.0489
     47  CD        17.3720   17.2240   58.5980 C.3    98  ARG98       0.2205
     48  NE        17.9400   16.7180   57.3320 N.pl3  98  ARG98      -0.0865
     49  CZ        17.6820   17.1970   56.1070 C.cat  98  ARG98       0.5346
     50  NH1       16.8500   18.2220   55.9430 N.pl3  98  ARG98       0.1354
     51  NH2       18.2490   16.6470   55.0410 N.pl3  98  ARG98       0.1354
     52  N         12.6670   13.3440   59.9510 N.am   99  GLY99      -0.1942
     53  CA        12.1270   11.9820   59.8650 C.3    99  GLY99       0.2014
     54  C         12.7530   10.8830   60.7110 C.2    99  GLY99       0.2638
     55  O         12.2730    9.7470   60.7110 O.2    99  GLY99      -0.2714
     56  N         13.8420   11.1740   61.4160 N.am  100  HIS100     -0.1973
     57  CA        14.5510   10.1760   62.2190 C.3   100  HIS100      0.1656
     58  C         13.9090    9.9190   63.5960 C.2   100  HIS100      0.2291
     59  O         13.2860   10.8100   64.1690 O.2   100  HIS100     -0.2864
     60  CB        16.0100   10.6050   62.4000 C.3   100  HIS100      0.0771
     61  CG        16.7640   10.7980   61.1260 C.ar  100  HIS100      0.0820
     62  ND1       17.1880    9.7120   60.3670 N.ar  100  HIS100     -0.2267
     63  CD2       17.2920   11.9230   60.5990 C.ar  100  HIS100      0.1154
     64  CE1       17.8950   10.2110   59.3790 C.ar  100  HIS100      0.1986
     65  NE2       17.9890   11.5370   59.4670 N.ar  100  HIS100     -0.2212
     66  N         16.8260    4.8350   64.5470 N.3   142  ASP142     -0.1225
     67  CA        17.8570    4.8370   63.5000 C.3   142  ASP142      0.1805
     68  C         19.0740    5.7310   63.8370 C.2   142  ASP142      0.2597
     69  O         20.0540    5.7230   63.1180 O.2   142  ASP142     -0.2718
     70  CB        17.2400    5.1130   62.1110 C.3   142  ASP142      0.1424
     71  CG        16.7680    6.5510   61.9110 C.2   142  ASP142      0.3668
     72  OD1       16.2180    7.1320   62.8550 O.co2 142  ASP142     -0.2456
     73  OD2       16.9350    7.0830   60.8030 O.co2 142  ASP142     -0.2456
     74  N         18.9960    6.4890   64.9280 N.am  143  ILE143     -0.1980
     75  CA        20.1120    7.3140   65.3910 C.3   143  ILE143      0.1595
     76  C         20.2210    7.1220   66.8800 C.2   143  ILE143      0.2287
     77  O         19.2910    7.4400   67.6220 O.2   143  ILE143     -0.2864
     78  CB        20.1100    8.8400   64.9980 C.3   143  ILE143      0.0276
     79  CG1       19.9610    9.0470   63.4750 C.3   143  ILE143      0.0022
     80  CG2       21.4190    9.5250   65.5260 C.3   143  ILE143      0.0022
     81  CD1       19.7800   10.4290   63.0880 C.3   143  ILE143      0.0001
     82  N         26.2450   17.7430   60.8250 N.3   237  TRP237     -0.1241
     83  CA        25.4060   16.6360   60.3950 C.3   237  TRP237      0.1605
     84  C         25.8030   16.0880   58.9880 C.2   237  TRP237      0.2264
     85  O         25.7980   14.8680   58.7840 O.2   237  TRP237     -0.2867
     86  CB        23.9210   17.0130   60.4280 C.3   237  TRP237      0.0550
     87  CG        23.0100   15.8480   60.0750 C.ar  237  TRP237      0.0003
     88  CD1       21.9650   15.8670   59.2060 C.ar  237  TRP237      0.0946
     89  CD2       23.0650   14.4930   60.6040 C.ar  237  TRP237      0.0152
     90  NE1       21.3360   14.6400   59.1830 N.ar  237  TRP237     -0.2442
     91  CE2       22.0120   13.7710   60.0030 C.ar  237  TRP237      0.0810
     92  CE3       23.9180   13.8230   61.5060 C.ar  237  TRP237      0.0012
     93  CZ2       21.7930   12.4170   60.2610 C.ar  237  TRP237      0.0191
     94  CZ3       23.6730   12.4910   61.7940 C.ar  237  TRP237      0.0001
     95  CH2       22.6120   11.8060   61.1860 C.ar  237  TRP237      0.0015
     96  N         27.0930   12.2850   58.1070 N.3   241  LYS241     -0.1245
     97  CA        26.5480   11.4800   56.9820 C.3   241  LYS241      0.1561
     98  C         27.6420   11.0680   55.9630 C.2   241  LYS241      0.2260
     99  O         27.6010    9.9460   55.4960 O.2   241  LYS241     -0.2867
    100  CB        25.4090   12.2060   56.2910 C.3   241  LYS241      0.0271
    101  CG        24.1370   12.3380   57.1640 C.3   241  LYS241      0.0035
    102  CD        22.9160   12.9250   56.3890 C.3   241  LYS241      0.0206
    103  CE        23.0930   14.4000   56.0480 C.3   241  LYS241      0.1093
    104  NZ        21.7950   15.0720   55.6920 N.3   241  LYS241     -0.1314
    105  N         29.7370    8.3130   57.7450 N.3   244  GLN244     -0.1245
    106  CA        28.9170    7.1110   57.6470 C.3   244  GLN244      0.1566
    107  C         29.0780    6.4480   56.2700 C.2   244  GLN244      0.2260
    108  O         29.4420    5.2700   56.2070 O.2   244  GLN244     -0.2867
    109  CB        27.4630    7.4500   57.9680 C.3   244  GLN244      0.0367
    110  CG        26.5610    6.2310   58.1160 C.3   244  GLN244      0.0905
    111  CD        25.0680    6.5580   58.1040 C.2   244  GLN244      0.2608
    112  OE1       24.2560    5.7990   58.5980 O.2   244  GLN244     -0.2717
    113  NE2       24.6490    7.6810   57.5330 N.am  244  GLN244     -0.0878
    114  N         30.8820    2.8730   55.4620 N.3   248  LEU248     -0.1245
    115  CA        30.1690    1.7280   54.8610 C.3   248  LEU248      0.1561
    116  C         30.9060    1.2530   53.5820 C.2   248  LEU248      0.2260
    117  O         31.3450    0.1000   53.5270 O.2   248  LEU248     -0.2867
    118  CB        28.6640    2.0230   54.5420 C.3   248  LEU248      0.0270
    119  CG        27.7700    2.2660   55.7560 C.3   248  LEU248      0.0019
    120  CD1       26.4890    2.9960   55.3690 C.3   248  LEU248      0.0001
    121  CD2       27.4550    0.9380   56.4840 C.3   248  LEU248      0.0001
@<TRIPOS>BOND
     1     9     8    1
     2   117   116    2
     3   116   115    1
     4   118   115    1
     5   118   119    1
     6     5     6    1
     7     5     2    1
     8     6     7    1
     9     8     7    1
    10   115   114    1
    11    51    49    1
    12   120   119    1
    13     1     2    1
    14    99    98    2
    15   104   103    1
    16   119   121    1
    17     2     3    1
    18    50    49    1
    19    98    97    1
    20   103   102    1
    21    49    48    2
    22   108   107    2
    23   107   106    1
    24   100    97    1
    25   100   101    1
    26   102   101    1
    27    97    96    1
    28     3     4    2
    29     3    10   am
    30    48    47    1
    31   113   111   am
    32   106   105    1
    33   106   109    1
    34    16    10    1
    35    16    15    1
    36   109   110    1
    37    10    11    1
    38   111   110    1
    39   111   112    2
    40    44    43    2
    41    13    12    2
    42    47    46    1
    43    46    45    1
    44    85    84    2
    45    45    42    1
    46    84    83    1
    47    43    42    1
    48    43    52   am
    49    15    14    1
    50    90    88   ar
    51    90    91   ar
    52    42    41    1
    53    88    87   ar
    54    64    65   ar
    55    64    62   ar
    56    11    12    1
    57    11    14    1
    58    12    17   am
    59    65    63   ar
    60    53    52    1
    61    53    54    1
    62    91    93   ar
    63    91    89   ar
    64    87    86    1
    65    87    89   ar
    66    93    95   ar
    67    22    23    1
    68    22    24    1
    69    22    21    1
    70    62    61   ar
    71    83    86    1
    72    83    82    1
    73    17    18    1
    74    63    61   ar
    75    89    92   ar
    76    18    21    1
    77    18    19    1
    78    55    54    2
    79    54    56   am
    80    73    71   ar
    81    61    60    1
    82    95    94   ar
    83    20    19    2
    84    56    57    1
    85    19    25   am
    86    92    94   ar
    87    39    37   ar
    88    39    40   ar
    89    71    70    1
    90    71    72   ar
    91    37    35   ar
    92    40    38   ar
    93    70    67    1
    94    38    36   ar
    95    35    36   ar
    96    35    34    1
    97    34    31    1
    98    57    60    1
    99    57    58    1
   100    25    26    1
   101    28    27    2
   102    27    30   am
   103    27    26    1
   104    30    31    1
   105    26    29    1
   106    31    32    1
   107    81    79    1
   108    69    68    2
   109    79    78    1
   110    67    68    1
   111    67    66    1
   112    58    59    2
   113    68    74   am
   114    32    33    2
   115    74    75    1
   116    78    75    1
   117    78    80    1
   118    75    76    1
   119    76    77    2
