@<TRIPOS>MOLECULE
tmp/2wwwC00.pdb
 140 136 0 0 0
SMALL
GASTEIGER

@<TRIPOS>ATOM
      1  N         50.0860   -4.2770  115.8560 N.3    57  LYS57      -0.1231
      2  CA        49.6500   -2.8940  115.6100 C.3    57  LYS57       0.1678
      3  C         50.1950   -2.3840  114.2280 C.2    57  LYS57       0.2434
      4  O         51.3580   -2.6450  113.8820 O.2    57  LYS57      -0.2733
      5  CB        50.1010   -1.9840  116.7760 C.3    57  LYS57       0.0284
      6  CG        49.4450   -0.6020  116.8100 C.3    57  LYS57       0.0035
      7  CD        50.4830    0.5200  116.9180 C.3    57  LYS57       0.0206
      8  CE        49.8970    1.9150  116.9460 C.3    57  LYS57       0.1093
      9  NZ        49.1650    2.1960  118.2030 N.3    57  LYS57      -0.1314
     10  N         49.3580   -1.6870  113.4170 N.am   58  PRO58      -0.2718
     11  CA        49.8460   -1.2150  112.1090 C.3    58  PRO58       0.1535
     12  C         50.9330   -0.1470  112.2580 C.2    58  PRO58       0.2598
     13  O         50.9430    0.6070  113.2470 O.2    58  PRO58      -0.2715
     14  CB        48.5850   -0.6450  111.4430 C.3    58  PRO58       0.0310
     15  CG        47.4430   -1.0530  112.2860 C.3    58  PRO58       0.0237
     16  CD        47.9530   -1.2780  113.6460 C.3    58  PRO58       0.0939
     17  N         51.8100   -0.0580  111.2420 N.am   59  LEU59      -0.1964
     18  CA        52.9340    0.8940  111.2010 C.3    59  LEU59       0.1728
     19  C         52.6700    2.2490  110.5020 C.2    59  LEU59       0.2616
     20  O         53.4160    3.2110  110.6930 O.2    59  LEU59      -0.2715
     21  CB        54.1960    0.2160  110.6620 C.3    59  LEU59       0.0311
     22  CG        54.9440   -0.5890  111.6810 C.3    59  LEU59       0.0022
     23  CD1       54.6660   -2.0250  111.4600 C.3    59  LEU59       0.0001
     24  CD2       56.4370   -0.2710  111.6210 C.3    59  LEU59       0.0001
     25  N         51.6290    2.3100  109.6950 N.am   60  ALA60      -0.1963
     26  CA        51.2370    3.5700  109.0970 C.3    60  ALA60       0.1728
     27  C         49.7290    3.7750  109.2000 C.2    60  ALA60       0.2616
     28  O         48.9510    2.8360  109.4060 O.2    60  ALA60      -0.2715
     29  CB        51.6900    3.6660  107.6370 C.3    60  ALA60       0.0334
     30  N         49.3550    5.0390  109.0250 N.am   61  PHE61      -0.1974
     31  CA        48.0150    5.5480  108.9800 C.3    61  PHE61       0.1639
     32  C         47.7810    6.0490  107.5420 C.2    61  PHE61       0.2290
     33  O         48.4960    6.9530  107.0630 O.2    61  PHE61      -0.2864
     34  CB        47.8830    6.6860  110.0110 C.3    61  PHE61       0.0560
     35  CG        46.4850    7.2400  110.1790 C.ar   61  PHE61      -0.0200
     36  CD1       45.3680    6.4340  109.9590 C.ar   61  PHE61      -0.0042
     37  CD2       46.2890    8.5580  110.5920 C.ar   61  PHE61      -0.0042
     38  CE1       44.0820    6.9260  110.1580 C.ar   61  PHE61      -0.0003
     39  CE2       45.0110    9.0630  110.7580 C.ar   61  PHE61      -0.0003
     40  CZ        43.9040    8.2380  110.5590 C.ar   61  PHE61      -0.0000
     41  N         56.9080   17.5360  113.2520 N.3    87  ARG87      -0.1231
     42  CA        56.5310   16.7390  114.4350 C.3    87  ARG87       0.1694
     43  C         57.1720   15.2920  114.4300 C.2    87  ARG87       0.2593
     44  O         56.7910   14.4390  115.2380 O.2    87  ARG87      -0.2718
     45  CB        54.9980   16.6320  114.5720 C.3    87  ARG87       0.0321
     46  CG        54.2730   17.9340  114.8570 C.3    87  ARG87       0.0489
     47  CD        52.7360   17.7950  114.8070 C.3    87  ARG87       0.2205
     48  NE        52.1610   17.2290  116.0430 N.pl3  87  ARG87      -0.0865
     49  CZ        51.7430   15.9660  116.2220 C.cat  87  ARG87       0.5346
     50  NH1       51.8510   15.0720  115.2440 N.pl3  87  ARG87       0.1354
     51  NH2       51.2360   15.5860  117.3870 N.pl3  87  ARG87       0.1354
     52  N         58.1010   15.0210  113.5300 N.am   88  GLY88      -0.1942
     53  CA        58.7400   13.7090  113.5080 C.3    88  GLY88       0.2014
     54  C         58.2600   12.6590  112.5130 C.2    88  GLY88       0.2638
     55  O         58.8960   11.6030  112.3740 O.2    88  GLY88      -0.2714
     56  N         57.1600   12.9410  111.7800 N.am   89  HIS89      -0.1973
     57  CA        56.5970   12.0040  110.8220 C.3    89  HIS89       0.1656
     58  C         57.2740   11.9990  109.4500 C.2    89  HIS89       0.2291
     59  O         57.7330   13.0430  108.9780 O.2    89  HIS89      -0.2864
     60  CB        55.0950   12.2480  110.6650 C.3    89  HIS89       0.0771
     61  CG        54.2790   12.1360  111.9290 C.ar   89  HIS89       0.0820
     62  ND1       54.0300   10.9110  112.5370 N.ar   89  HIS89      -0.2267
     63  CD2       53.6020   13.0970  112.5970 C.ar   89  HIS89       0.1154
     64  CE1       53.2240   11.1790  113.5460 C.ar   89  HIS89       0.1986
     65  NE2       52.9190   12.4760  113.6010 N.ar   89  HIS89      -0.2212
     66  N         55.1490    6.6120  107.9110 N.3   129  ASP129     -0.1225
     67  CA        54.0980    6.3630  108.9140 C.3   129  ASP129      0.1805
     68  C         52.7810    7.1220  108.6300 C.2   129  ASP129      0.2597
     69  O         51.7840    6.9380  109.3340 O.2   129  ASP129     -0.2718
     70  CB        54.6480    6.5930  110.3290 C.3   129  ASP129      0.1424
     71  CG        54.9150    8.0520  110.6930 C.2   129  ASP129      0.3668
     72  OD1       55.4280    8.7890  109.8290 O.co2 129  ASP129     -0.2456
     73  OD2       54.6710    8.4380  111.8850 O.co2 129  ASP129     -0.2456
     74  N         52.7770    7.9690  107.5910 N.am  130  ILE130     -0.1980
     75  CA        51.5800    8.6860  107.1460 C.3   130  ILE130      0.1595
     76  C         51.5460    8.6170  105.6210 C.2   130  ILE130      0.2287
     77  O         52.4250    9.1770  104.9600 O.2   130  ILE130     -0.2864
     78  CB        51.4100   10.1480  107.6890 C.3   130  ILE130      0.0276
     79  CG1       51.4390   10.1930  109.2450 C.3   130  ILE130      0.0022
     80  CG2       50.1280   10.8060  107.1080 C.3   130  ILE130      0.0022
     81  CD1       51.4490   11.5260  109.8380 C.3   130  ILE130      0.0001
     82  N         43.9820   17.6670  112.2820 N.3   215  TRP215     -0.1241
     83  CA        44.9070   16.6100  112.6480 C.3   215  TRP215      0.1605
     84  C         44.5240   15.8900  113.9660 C.2   215  TRP215      0.2264
     85  O         44.6710   14.6620  114.0320 O.2   215  TRP215     -0.2867
     86  CB        46.3340   17.1450  112.7260 C.3   215  TRP215      0.0550
     87  CG        47.3560   16.0940  113.0390 C.ar  215  TRP215      0.0003
     88  CD1       48.3390   16.1610  113.9800 C.ar  215  TRP215      0.0946
     89  CD2       47.5100   14.8110  112.3810 C.ar  215  TRP215      0.0152
     90  NE1       49.1180   15.0260  113.9320 N.ar  215  TRP215     -0.2442
     91  CE2       48.6500   14.1920  112.9440 C.ar  215  TRP215      0.0810
     92  CE3       46.7810   14.1160  111.3870 C.ar  215  TRP215      0.0012
     93  CZ2       49.0530   12.8970  112.5820 C.ar  215  TRP215      0.0191
     94  CZ3       47.2170   12.8480  111.0120 C.ar  215  TRP215      0.0001
     95  CH2       48.3200   12.2460  111.6210 C.ar  215  TRP215      0.0015
     96  N         43.6060   11.9370  114.4630 N.3   219  LYS219     -0.1245
     97  CA        44.2040   11.1030  115.5110 C.3   219  LYS219      0.1561
     98  C         43.1350   10.4820  116.4120 C.2   219  LYS219      0.2260
     99  O         43.3030    9.3410  116.8050 O.2   219  LYS219     -0.2867
    100  CB        45.2490   11.8660  116.3020 C.3   219  LYS219      0.0271
    101  CG        46.5170   12.1920  115.5210 C.3   219  LYS219      0.0035
    102  CD        47.6140   12.8260  116.4200 C.3   219  LYS219      0.0206
    103  CE        47.2610   14.2040  116.9110 C.3   219  LYS219      0.1093
    104  NZ        48.4580   14.9390  117.3830 N.3   219  LYS219     -0.1314
    105  N         41.5610    7.6400  114.3280 N.3   222  GLN222     -0.1245
    106  CA        42.5470    6.5820  114.3820 C.3   222  GLN222      0.1566
    107  C         42.4590    5.7600  115.6780 C.2   222  GLN222      0.2260
    108  O         42.3330    4.5270  115.6230 O.2   222  GLN222     -0.2867
    109  CB        43.9540    7.1510  114.1440 C.3   222  GLN222      0.0367
    110  CG        45.0180    6.0400  114.0160 C.3   222  GLN222      0.0905
    111  CD        46.4270    6.5460  114.0630 C.2   222  GLN222      0.2608
    112  OE1       47.3510    5.8370  113.6880 O.2   222  GLN222     -0.2717
    113  NE2       46.6180    7.7790  114.4830 N.am  222  GLN222     -0.0878
    114  N         41.2390    1.8110  116.0450 N.3   226  LEU226     -0.1245
    115  CA        42.0840    0.7810  116.6280 C.3   226  LEU226      0.1561
    116  C         41.3760    0.1110  117.8630 C.2   226  LEU226      0.2260
    117  O         41.1300   -1.0900  117.8220 O.2   226  LEU226     -0.2867
    118  CB        43.4800    1.3100  117.0210 C.3   226  LEU226      0.0270
    119  CG        44.4130    1.7750  115.8980 C.3   226  LEU226      0.0019
    120  CD1       45.5110    2.6380  116.4700 C.3   226  LEU226      0.0001
    121  CD2       44.9670    0.5830  115.0580 C.3   226  LEU226      0.0001
    122  N         39.4370   -0.8270  112.4210 N.3   231  LEU231     -0.1245
    123  CA        40.5480   -0.5500  111.5020 C.3   231  LEU231      0.1561
    124  C         41.0840   -1.8450  110.8670 C.2   231  LEU231      0.2260
    125  O         41.2350   -1.9150  109.6410 O.2   231  LEU231     -0.2867
    126  CB        41.6740    0.2290  112.2000 C.3   231  LEU231      0.0270
    127  CG        42.7640    0.7640  111.2660 C.3   231  LEU231      0.0019
    128  CD1       43.1010    2.1780  111.6310 C.3   231  LEU231      0.0001
    129  CD2       43.9890   -0.1140  111.3200 C.3   231  LEU231      0.0001
    130  N         40.7680   -3.1920  107.0620 N.3   235  ARG235     -0.1245
    131  CA        41.9700   -3.5730  106.3450 C.3   235  ARG235      0.1563
    132  C         41.8470   -4.9930  105.8180 C.2   235  ARG235      0.2260
    133  O         42.1200   -5.1850  104.6290 O.2   235  ARG235     -0.2867
    134  CB        43.2190   -3.4050  107.2150 C.3   235  ARG235      0.0307
    135  CG        43.7380   -2.0080  107.1360 C.3   235  ARG235      0.0489
    136  CD        45.0530   -1.9340  107.8510 C.3   235  ARG235      0.2205
    137  NE        45.5060   -0.5470  107.9090 N.pl3 235  ARG235     -0.0865
    138  CZ        46.7480   -0.1900  108.1920 C.cat 235  ARG235      0.5346
    139  NH1       47.6720   -1.1130  108.4210 N.pl3 235  ARG235      0.1354
    140  NH2       47.0910    1.0870  108.1980 N.pl3 235  ARG235      0.1354
@<TRIPOS>BOND
     1   133   132    2
     2    77    76    2
     3    76    75    1
     4   132   131    1
     5   131   130    1
     6   131   134    1
     7    33    32    2
     8    80    78    1
     9   135   134    1
    10   135   136    1
    11    75    74    1
    12    75    78    1
    13    32    31    1
    14    74    68   am
    15    29    26    1
    16    78    79    1
    17   136   137    1
    18   137   138    2
    19    66    67    1
    20   138   140    1
    21   138   139    1
    22    68    67    1
    23    68    69    2
    24    67    70    1
    25    59    58    2
    26    31    30    1
    27    31    34    1
    28    30    27   am
    29    26    27    1
    30    26    25    1
    31    27    28    2
    32    79    81    1
    33    58    57    1
    34   125   124    2
    35    25    19   am
    36    72    71   ar
    37    36    38   ar
    38    36    35   ar
    39    34    35    1
    40    38    40   ar
    41    35    37   ar
    42    70    71    1
    43    19    20    2
    44    19    18    1
    45    40    39   ar
    46    37    39   ar
    47    21    18    1
    48    21    22    1
    49    60    57    1
    50    60    61    1
    51    71    73   ar
    52    57    56    1
    53   124   123    1
    54    94    92   ar
    55    94    95   ar
    56    18    17    1
    57    17    12   am
    58   127   129    1
    59   127   128    1
    60   127   126    1
    61    92    89   ar
    62    14    11    1
    63    14    15    1
    64    23    22    1
    65   123   126    1
    66   123   122    1
    67    24    22    1
    68    95    93   ar
    69    56    54   am
    70    61    62   ar
    71    61    63   ar
    72    11    12    1
    73    11    10    1
    74    12    13    2
    75    82    83    1
    76    15    16    1
    77    55    54    2
    78    89    91   ar
    79    89    87   ar
    80    54    53    1
    81    62    64   ar
    82    93    91   ar
    83    63    65   ar
    84    83    86    1
    85    83    84    1
    86    86    87    1
    87    91    90   ar
    88    87    88   ar
    89    41    42    1
    90    10    16    1
    91    10     3   am
    92    53    52    1
    93    52    43   am
    94    64    65   ar
    95   112   111    2
    96     4     3    2
    97    90    88   ar
    98    84    85    2
    99   110   111    1
   100   110   109    1
   101   111   113   am
   102   109   106    1
   103     3     2    1
   104   105   106    1
   105   106   107    1
   106    43    42    1
   107    43    44    2
   108    42    45    1
   109    96    97    1
   110    45    46    1
   111    47    46    1
   112    47    48    1
   113   121   119    1
   114    50    49    1
   115    97   100    1
   116    97    98    1
   117   101   100    1
   118   101   102    1
   119     2     1    1
   120     2     5    1
   121   108   107    2
   122   119   120    1
   123   119   118    1
   124    48    49    2
   125   114   115    1
   126    49    51    1
   127    98    99    2
   128   102   103    1
   129   115   118    1
   130   115   116    1
   131     5     6    1
   132     6     7    1
   133   103   104    1
   134     7     8    1
   135     8     9    1
   136   117   116    2
