@<TRIPOS>MOLECULE
tmp/2wwwD01.pdb
 105 100 0 0 0
SMALL
GASTEIGER

@<TRIPOS>ATOM
      1  N         32.4860   19.4330   81.3440 N.3    80  PRO80      -0.2102
      2  CA        31.2170   20.0790   81.7750 C.3    80  PRO80       0.1504
      3  C         31.2190   21.5370   81.3510 C.2    80  PRO80       0.2576
      4  O         32.2700   22.1770   81.4060 O.2    80  PRO80      -0.2718
      5  CB        31.2460   19.9310   83.2950 C.3    80  PRO80       0.0282
      6  CG        32.3240   18.8680   83.5600 C.3    80  PRO80       0.0208
      7  CD        33.3260   19.0950   82.5140 C.3    80  PRO80       0.0893
      8  N         30.0920   22.0110   80.8290 N.am   81  GLY81      -0.1943
      9  CA        29.9770   23.3830   80.3310 C.3    81  GLY81       0.2014
     10  C         30.3760   23.5940   78.8830 C.2    81  GLY81       0.2639
     11  O         30.2320   24.6990   78.3790 O.2    81  GLY81      -0.2714
     12  N         30.8230   22.5200   78.1610 N.am   82  ALA82      -0.1963
     13  CA        31.2190   22.5770   76.7550 C.3    82  ALA82       0.1728
     14  C         30.0300   23.0440   75.9020 C.2    82  ALA82       0.2617
     15  O         30.2420   23.7760   74.9140 O.2    82  ALA82      -0.2715
     16  CB        31.7420   21.2220   76.2910 C.3    82  ALA82       0.0334
     17  N         28.8030   22.6290   76.3090 N.am   83  GLY83      -0.1940
     18  CA        27.5460   22.9590   75.6330 C.3    83  GLY83       0.2014
     19  C         26.8260   21.7610   75.0590 C.2    83  GLY83       0.2639
     20  O         26.0010   21.9190   74.1600 O.2    83  GLY83      -0.2714
     21  N         27.0970   20.5600   75.6120 N.am   84  LYS84      -0.1963
     22  CA        26.5270   19.2700   75.2130 C.3    84  LYS84       0.1728
     23  C         24.9990   19.1630   75.2580 C.2    84  LYS84       0.2617
     24  O         24.3720   18.8620   74.2260 O.2    84  LYS84      -0.2715
     25  CB        27.2020   18.1240   75.9520 C.3    84  LYS84       0.0311
     26  CG        28.7240   18.0050   75.7070 C.3    84  LYS84       0.0038
     27  CD        29.3270   16.7510   76.4340 C.3    84  LYS84       0.0206
     28  CE        29.0930   16.7450   77.9500 C.3    84  LYS84       0.1093
     29  NZ        29.6610   17.9600   78.6600 N.3    84  LYS84      -0.1314
     30  N         24.4010   19.4570   76.4130 N.am   85  SER85      -0.1936
     31  CA        22.9390   19.5150   76.6530 C.3    85  SER85       0.2055
     32  C         22.2500   20.4450   75.6470 C.2    85  SER85       0.2643
     33  O         21.2730   20.0420   75.0220 O.2    85  SER85      -0.2714
     34  CB        22.6400   20.0410   78.0600 C.3    85  SER85       0.2130
     35  OG        23.4690   19.4020   79.0120 O.3    85  SER85      -0.2179
     36  N         22.7730   21.6870   75.4930 N.am   86  THR86      -0.1950
     37  CA        22.2620   22.7330   74.5800 C.3    86  THR86       0.1897
     38  C         22.3330   22.2530   73.1230 C.2    86  THR86       0.2313
     39  O         21.4150   22.5040   72.3420 O.2    86  THR86      -0.2863
     40  CB        23.0700   24.0480   74.8350 C.3    86  THR86       0.1794
     41  OG1       23.0240   24.4000   76.2210 O.3    86  THR86      -0.2208
     42  CG2       22.5690   25.2140   74.0420 C.3    86  THR86       0.0378
     43  N         25.8780   10.0000   75.0490 N.3   147  GLU147     -0.1245
     44  CA        26.4540   11.1980   75.6680 C.3   147  GLU147      0.1567
     45  C         27.2610   10.8410   76.9400 C.2   147  GLU147      0.2260
     46  O         26.7810   10.0910   77.7680 O.2   147  GLU147     -0.2867
     47  CB        25.3450   12.2210   75.9550 C.3   147  GLU147      0.0388
     48  CG        25.8880   13.5220   76.5110 C.3   147  GLU147      0.1160
     49  CD        24.9300   14.3680   77.3180 C.2   147  GLU147      0.3649
     50  OE1       23.8290   13.8620   77.6430 O.co2 147  GLU147     -0.2457
     51  OE2       25.2890   15.5350   77.6210 O.co2 147  GLU147     -0.2457
     52  N         32.7680   24.4790   70.3660 N.3   187  THR187     -0.1203
     53  CA        31.4650   25.0110   70.7810 C.3   187  THR187      0.1994
     54  C         31.4410   26.5090   71.0930 C.2   187  THR187      0.2617
     55  O         32.4970   27.1120   71.2390 O.2   187  THR187     -0.2717
     56  CB        30.9460   24.2300   71.9690 C.3   187  THR187      0.1784
     57  OG1       31.9960   24.1020   72.9130 O.3   187  THR187     -0.2211
     58  CG2       30.4300   22.8880   71.6070 C.3   187  THR187      0.0376
     59  N         30.2270   27.1200   71.2020 N.am  188  LYS188     -0.1979
     60  CA        30.0820   28.5670   71.5120 C.3   188  LYS188      0.1596
     61  C         30.8370   29.5290   70.5560 C.2   188  LYS188      0.2287
     62  O         31.2640   30.6110   70.9690 O.2   188  LYS188     -0.2864
     63  CB        30.4100   28.8840   72.9990 C.3   188  LYS188      0.0298
     64  CG        30.3060   27.6820   73.9480 C.3   188  LYS188      0.0038
     65  CD        30.5150   28.1280   75.3650 C.3   188  LYS188      0.0206
     66  CE        30.1330   26.9960   76.2390 C.3   188  LYS188      0.1093
     67  NZ        30.2570   27.3580   77.6550 N.3   188  LYS188     -0.1314
     68  N         30.2940   32.0050   68.8400 N.3   190  ASP190     -0.1239
     69  CA        29.3830   33.1370   68.7060 C.3   190  ASP190      0.1674
     70  C         29.8620   34.3190   69.5630 C.2   190  ASP190      0.2266
     71  O         30.6010   34.1430   70.5370 O.2   190  ASP190     -0.2867
     72  CB        27.9400   32.7100   69.0830 C.3   190  ASP190      0.1410
     73  CG        27.7770   32.0440   70.4460 C.2   190  ASP190      0.3668
     74  OD1       27.6820   32.7750   71.4580 O.co2 190  ASP190     -0.2456
     75  OD2       27.7830   30.8000   70.5030 O.co2 190  ASP190     -0.2456
     76  N         33.4260   35.1720   71.3400 N.3   193  LEU193     -0.1245
     77  CA        34.1540   33.9130   71.4580 C.3   193  LEU193      0.1561
     78  C         34.4470   33.3560   70.0940 C.2   193  LEU193      0.2260
     79  O         34.9770   32.2590   70.0240 O.2   193  LEU193     -0.2867
     80  CB        33.4360   32.8660   72.3250 C.3   193  LEU193      0.0270
     81  CG        33.4310   33.0930   73.8290 C.3   193  LEU193      0.0019
     82  CD1       32.4690   32.0980   74.5100 C.3   193  LEU193      0.0001
     83  CD2       34.8370   32.9960   74.4170 C.3   193  LEU193      0.0001
     84  N         27.7830   26.6540   67.0640 N.3   226  SER226     -0.1202
     85  CA        27.1070   27.4870   68.0450 C.3   226  SER226      0.2020
     86  C         25.5980   27.0820   68.0830 C.2   226  SER226      0.2619
     87  O         24.8730   27.4300   67.1680 O.2   226  SER226     -0.2717
     88  CB        27.2570   28.9570   67.6570 C.3   226  SER226      0.2103
     89  OG        26.5080   29.8500   68.4650 O.3   226  SER226     -0.2182
     90  N         25.1270   26.3480   69.1020 N.am  227  ALA227     -0.1965
     91  CA        23.7160   25.9860   69.2360 C.3   227  ALA227      0.1728
     92  C         22.8840   27.2840   69.4330 C.2   227  ALA227      0.2616
     93  O         21.6610   27.3090   69.2110 O.2   227  ALA227     -0.2715
     94  CB        23.5380   25.0740   70.4250 C.3   227  ALA227      0.0334
     95  N         23.5730   28.3820   69.8180 N.am  228  ARG228     -0.1977
     96  CA        22.9560   29.6860   70.0450 C.3   228  ARG228      0.1597
     97  C         22.6330   30.3250   68.7180 C.2   228  ARG228      0.2287
     98  O         21.4730   30.6800   68.4970 O.2   228  ARG228     -0.2864
     99  CB        23.8660   30.5580   70.8790 C.3   228  ARG228      0.0334
    100  CG        23.1190   31.5520   71.7110 C.3   228  ARG228      0.0492
    101  CD        23.8880   31.9750   72.9290 C.3   228  ARG228      0.2205
    102  NE        23.5410   31.1680   74.1040 N.pl3 228  ARG228     -0.0865
    103  CZ        23.9260   31.4640   75.3380 C.cat 228  ARG228      0.5346
    104  NH1       24.6800   32.5400   75.5680 N.pl3 228  ARG228      0.1354
    105  NH2       23.5510   30.7010   76.3560 N.pl3 228  ARG228      0.1354
@<TRIPOS>BOND
     1    84    85    1
     2    87    86    2
     3    88    85    1
     4    88    89    1
     5    85    86    1
     6    86    90   am
     7    98    97    2
     8    69    68    1
     9    69    72    1
    10    69    70    1
    11    97    96    1
    12    72    73    1
    13    90    91    1
    14    93    92    2
    15    91    92    1
    16    91    94    1
    17    92    95   am
    18    70    71    2
    19    95    96    1
    20    79    78    2
    21    96    99    1
    22    78    77    1
    23    52    53    1
    24    73    75   ar
    25    73    74   ar
    26    61    62    2
    27    61    60    1
    28    53    54    1
    29    53    56    1
    30    99   100    1
    31    54    59   am
    32    54    55    2
    33    59    60    1
    34    76    77    1
    35    77    80    1
    36    60    63    1
    37    58    56    1
    38   100   101    1
    39    56    57    1
    40    80    81    1
    41    39    38    2
    42   101   102    1
    43    63    64    1
    44    38    37    1
    45    81    83    1
    46    81    82    1
    47    64    65    1
    48    42    40    1
    49   102   103    2
    50    20    19    2
    51    24    23    2
    52    37    40    1
    53    37    36    1
    54    40    41    1
    55    15    14    2
    56    33    32    2
    57    43    44    1
    58    19    21   am
    59    19    18    1
    60    22    23    1
    61    22    21    1
    62    22    25    1
    63    23    30   am
    64   103   104    1
    65   103   105    1
    66    65    66    1
    67    36    32   am
    68    18    17    1
    69    32    31    1
    70    44    47    1
    71    44    45    1
    72    26    25    1
    73    26    27    1
    74    14    17   am
    75    14    13    1
    76    47    48    1
    77    66    67    1
    78    16    13    1
    79    30    31    1
    80    27    28    1
    81    48    49    1
    82    31    34    1
    83    13    12    1
    84    45    46    2
    85    49    51   ar
    86    49    50   ar
    87    28    29    1
    88    34    35    1
    89    12    10   am
    90    11    10    2
    91    10     9    1
    92     9     8    1
    93     8     3   am
    94     1     2    1
    95     1     7    1
    96     3     4    2
    97     3     2    1
    98     2     5    1
    99     7     6    1
   100     5     6    1
