@<TRIPOS>MOLECULE
tmp/2wwwA00.pdb
 133 128 0 0 0
SMALL
GASTEIGER

@<TRIPOS>ATOM
      1  N         25.0090   85.5910  118.6950 N.3    66  LYS66      -0.1231
      2  CA        25.2910   84.1590  118.4870 C.3    66  LYS66       0.1678
      3  C         24.7930   83.6930  117.0850 C.2    66  LYS66       0.2434
      4  O         23.7000   84.0850  116.6670 O.2    66  LYS66      -0.2733
      5  CB        24.6360   83.3260  119.6110 C.3    66  LYS66       0.0284
      6  CG        25.1150   81.8980  119.6710 C.3    66  LYS66       0.0035
      7  CD        24.1180   81.0080  120.4140 C.3    66  LYS66       0.0206
      8  CE        24.3580   79.5180  120.1080 C.3    66  LYS66       0.1093
      9  NZ        24.5630   79.2610  118.6330 N.3    66  LYS66      -0.1314
     10  N         25.5830   82.8820  116.3430 N.am   67  PRO67      -0.2718
     11  CA        25.1370   82.4200  115.0130 C.3    67  PRO67       0.1535
     12  C         23.9020   81.5350  115.0920 C.2    67  PRO67       0.2598
     13  O         23.7270   80.8030  116.0810 O.2    67  PRO67      -0.2715
     14  CB        26.3460   81.6170  114.4900 C.3    67  PRO67       0.0310
     15  CG        27.4930   82.0670  115.3170 C.3    67  PRO67       0.0237
     16  CD        26.9230   82.3490  116.6610 C.3    67  PRO67       0.0939
     17  N         23.0650   81.6050  114.0280 N.am   68  LEU68      -0.1964
     18  CA        21.7950   80.8690  113.9130 C.3    68  LEU68       0.1728
     19  C         21.8900   79.5060  113.2580 C.2    68  LEU68       0.2616
     20  O         20.9780   78.6860  113.3960 O.2    68  LEU68      -0.2715
     21  CB        20.7370   81.7240  113.2290 C.3    68  LEU68       0.0311
     22  CG        20.0440   82.6980  114.1580 C.3    68  LEU68       0.0022
     23  CD1       20.6120   84.0740  113.9990 C.3    68  LEU68       0.0001
     24  CD2       18.5820   82.7420  113.8830 C.3    68  LEU68       0.0001
     25  N         22.9980   79.2820  112.5390 N.am   69  ALA69      -0.1963
     26  CA        23.2150   78.0520  111.8290 C.3    69  ALA69       0.1728
     27  C         24.6310   77.4900  112.0090 C.2    69  ALA69       0.2616
     28  O         25.5770   78.2240  112.3010 O.2    69  ALA69      -0.2715
     29  CB        22.8840   78.2400  110.3480 C.3    69  ALA69       0.0334
     30  N         24.7380   76.1750  111.8670 N.am   70  PHE70      -0.1974
     31  CA        25.9910   75.4670  111.8780 C.3    70  PHE70       0.1639
     32  C         26.2210   75.0460  110.3830 C.2    70  PHE70       0.2290
     33  O         25.4190   74.2940  109.8220 O.2    70  PHE70      -0.2864
     34  CB        25.8960   74.2600  112.8500 C.3    70  PHE70       0.0560
     35  CG        27.1370   73.4340  113.0900 C.ar   70  PHE70      -0.0200
     36  CD1       28.4100   73.9540  112.8370 C.ar   70  PHE70      -0.0042
     37  CD2       27.0450   72.1490  113.6140 C.ar   70  PHE70      -0.0042
     38  CE1       29.5700   73.1930  113.0630 C.ar   70  PHE70      -0.0003
     39  CE2       28.2060   71.3850  113.8310 C.ar   70  PHE70      -0.0003
     40  CZ        29.4650   71.9150  113.5180 C.ar   70  PHE70      -0.0000
     41  N         15.6300   69.5870  113.8690 N.3    98  HIS98      -0.1241
     42  CA        16.4020   70.4260  112.9690 C.3    98  HIS98       0.1621
     43  C         15.7740   70.6850  111.6030 C.2    98  HIS98       0.2264
     44  O         14.9880   69.8730  111.0900 O.2    98  HIS98      -0.2867
     45  CB        17.8490   69.9340  112.8460 C.3    98  HIS98       0.0745
     46  CG        18.6170   70.0060  114.1310 C.ar   98  HIS98       0.0817
     47  ND1       18.9290   71.2090  114.7120 N.ar   98  HIS98      -0.2268
     48  CD2       19.1280   69.0130  114.8960 C.ar   98  HIS98       0.1154
     49  CE1       19.5760   70.9200  115.8330 C.ar   98  HIS98       0.1986
     50  NE2       19.7440   69.6150  115.9740 N.ar   98  HIS98      -0.2212
     51  N         18.8430   75.7450  110.3820 N.3   138  ASP138     -0.1225
     52  CA        19.9070   75.8130  111.4000 C.3   138  ASP138      0.1805
     53  C         21.1400   74.8900  111.1200 C.2   138  ASP138      0.2597
     54  O         22.1570   74.9620  111.8420 O.2   138  ASP138     -0.2718
     55  CB        19.3300   75.5970  112.8080 C.3   138  ASP138      0.1424
     56  CG        18.8660   74.1830  113.1040 C.2   138  ASP138      0.3668
     57  OD1       18.2860   73.5390  112.1880 O.co2 138  ASP138     -0.2456
     58  OD2       19.0520   73.7360  114.2510 O.co2 138  ASP138     -0.2456
     59  N         21.0240   74.0150  110.0900 N.am  139  ILE139     -0.1980
     60  CA        22.0960   73.1400  109.6640 C.3   139  ILE139      0.1595
     61  C         22.1840   73.2490  108.1740 C.2   139  ILE139      0.2287
     62  O         21.2450   72.9090  107.4580 O.2   139  ILE139     -0.2864
     63  CB        22.0710   71.6440  110.2230 C.3   139  ILE139      0.0276
     64  CG1       22.0110   71.6210  111.7890 C.3   139  ILE139      0.0022
     65  CG2       23.3390   70.8830  109.7650 C.3   139  ILE139      0.0022
     66  CD1       21.9160   70.4080  112.4380 C.3   139  ILE139      0.0001
     67  N         31.8970   76.2140  108.7630 N.3   157  ASP157     -0.1239
     68  CA        32.3520   76.2050  110.1440 C.3   157  ASP157      0.1674
     69  C         33.2790   74.9560  110.3970 C.2   157  ASP157      0.2266
     70  O         34.4100   75.0910  110.8770 O.2   157  ASP157     -0.2867
     71  CB        31.1430   76.2070  111.0700 C.3   157  ASP157      0.1410
     72  CG        30.2540   77.4560  110.9940 C.2   157  ASP157      0.3668
     73  OD1       30.7880   78.5800  110.6480 O.co2 157  ASP157     -0.2456
     74  OD2       29.0340   77.3350  111.3090 O.co2 157  ASP157     -0.2456
     75  N         28.0570   63.0860  115.4160 N.3   221  TRP221     -0.1241
     76  CA        27.2800   64.2620  115.7050 C.3   221  TRP221      0.1605
     77  C         27.6840   64.9220  117.0550 C.2   221  TRP221      0.2264
     78  O         27.7220   66.1620  117.1280 O.2   221  TRP221     -0.2867
     79  CB        25.7780   63.9760  115.6440 C.3   221  TRP221      0.0550
     80  CG        24.9150   65.1900  115.8990 C.ar  221  TRP221      0.0003
     81  CD1       23.8850   65.2760  116.7810 C.ar  221  TRP221      0.0946
     82  CD2       25.0060   66.4810  115.2700 C.ar  221  TRP221      0.0152
     83  NE1       23.2780   66.5040  116.6860 N.ar  221  TRP221     -0.2442
     84  CE2       23.9840   67.2860  115.8160 C.ar  221  TRP221      0.0810
     85  CE3       25.8730   67.0480  114.3300 C.ar  221  TRP221      0.0012
     86  CZ2       23.7990   68.6230  115.4470 C.ar  221  TRP221      0.0191
     87  CZ3       25.6720   68.3660  113.9360 C.ar  221  TRP221      0.0001
     88  CH2       24.6340   69.1320  114.4760 C.ar  221  TRP221      0.0015
     89  N         29.1240   68.6980  117.6040 N.3   225  LYS225     -0.1245
     90  CA        28.6020   69.6160  118.6150 C.3   225  LYS225      0.1561
     91  C         29.7050   70.0690  119.5770 C.2   225  LYS225      0.2260
     92  O         29.6740   71.2190  119.9660 O.2   225  LYS225     -0.2867
     93  CB        27.4300   69.0000  119.3820 C.3   225  LYS225      0.0271
     94  CG        26.1450   68.8750  118.5260 C.3   225  LYS225      0.0035
     95  CD        24.9060   68.3990  119.3580 C.3   225  LYS225      0.0206
     96  CE        25.0090   66.9560  119.8110 C.3   225  LYS225      0.1093
     97  NZ        23.6860   66.3830  120.1810 N.3   225  LYS225     -0.1314
     98  N         31.7970   72.6210  117.5610 N.3   228  GLN228     -0.1245
     99  CA        30.9630   73.8170  117.5580 C.3   228  GLN228      0.1566
    100  C         31.1340   74.6300  118.8620 C.2   228  GLN228      0.2260
    101  O         31.4750   75.8160  118.8060 O.2   228  GLN228     -0.2867
    102  CB        29.4850   73.4570  117.2920 C.3   228  GLN228      0.0367
    103  CG        28.5920   74.6720  117.0400 C.3   228  GLN228      0.0905
    104  CD        27.1060   74.3610  117.0960 C.2   228  GLN228      0.2608
    105  OE1       26.2890   75.0930  116.5550 O.2   228  GLN228     -0.2717
    106  NE2       26.6970   73.2750  117.7660 N.am  228  GLN228     -0.0878
    107  N         32.9710   78.3080  119.3310 N.3   232  LEU232     -0.1245
    108  CA        32.2330   79.4630  119.8210 C.3   232  LEU232      0.1561
    109  C         32.9590   80.0740  121.0730 C.2   232  LEU232      0.2260
    110  O         33.3610   81.2520  121.0350 O.2   232  LEU232     -0.2867
    111  CB        30.7660   79.1480  120.1450 C.3   232  LEU232      0.0270
    112  CG        29.8430   78.8200  118.9810 C.3   232  LEU232      0.0019
    113  CD1       28.5690   78.1480  119.4720 C.3   232  LEU232      0.0001
    114  CD2       29.4690   80.0590  118.2130 C.3   232  LEU232      0.0001
    115  N         35.3600   80.6180  115.8260 N.3   237  LEU237     -0.1245
    116  CA        34.2730   80.5230  114.8560 C.3   237  LEU237      0.1561
    117  C         33.9830   81.8990  114.2080 C.2   237  LEU237      0.2260
    118  O         33.9010   81.9950  112.9660 O.2   237  LEU237     -0.2867
    119  CB        33.0180   79.9240  115.4950 C.3   237  LEU237      0.0270
    120  CG        31.8790   79.5830  114.5360 C.3   237  LEU237      0.0019
    121  CD1       31.2600   78.2260  114.8710 C.3   237  LEU237      0.0001
    122  CD2       30.8270   80.6380  114.5730 C.3   237  LEU237      0.0001
    123  N         34.6500   83.1250  110.4040 N.3   241  ARG241     -0.1245
    124  CA        33.5590   83.6850  109.5780 C.3   241  ARG241      0.1563
    125  C         33.9300   85.0590  109.1090 C.2   241  ARG241      0.2260
    126  O         33.8410   85.2730  107.9040 O.2   241  ARG241     -0.2867
    127  CB        32.1850   83.6980  110.2590 C.3   241  ARG241      0.0307
    128  CG        31.6020   82.3240  110.5000 C.3   241  ARG241      0.0489
    129  CD        30.2650   82.4450  111.2020 C.3   241  ARG241      0.2205
    130  NE        29.5870   81.1490  111.2770 N.pl3 241  ARG241     -0.0865
    131  CZ        28.2700   80.9550  111.2210 C.cat 241  ARG241      0.5346
    132  NH1       27.4390   81.9870  111.0750 N.pl3 241  ARG241      0.1354
    133  NH2       27.7760   79.7290  111.2610 N.pl3 241  ARG241      0.1354
@<TRIPOS>BOND
     1    62    61    2
     2   126   125    2
     3    61    60    1
     4    67    68    1
     5   125   124    1
     6   124   127    1
     7   124   123    1
     8    60    59    1
     9    60    63    1
    10    65    63    1
    11    33    32    2
    12    59    53   am
    13    68    69    1
    14    68    71    1
    15    63    64    1
    16   127   128    1
    17    29    26    1
    18    51    52    1
    19    32    31    1
    20    69    70    2
    21   128   129    1
    22    73    72   ar
    23    72    71    1
    24    72    74   ar
    25   132   131    1
    26    44    43    2
    27    53    52    1
    28    53    54    2
    29   129   130    1
    30   131   133    1
    31   131   130    2
    32    52    55    1
    33    43    42    1
    34    64    66    1
    35    26    27    1
    36    26    25    1
    37    30    31    1
    38    30    27   am
    39    31    34    1
    40    27    28    2
    41    57    56   ar
    42    25    19   am
    43    55    56    1
    44    36    38   ar
    45    36    35   ar
    46    45    42    1
    47    45    46    1
    48    34    35    1
    49   118   117    2
    50    42    41    1
    51    38    40   ar
    52    35    37   ar
    53    56    58   ar
    54    21    18    1
    55    21    22    1
    56    19    20    2
    57    19    18    1
    58    40    39   ar
    59    37    39   ar
    60    24    22    1
    61    18    17    1
    62    87    85   ar
    63    87    88   ar
    64    23    22    1
    65    17    12   am
    66    46    47   ar
    67    46    48   ar
    68   117   116    1
    69    85    82   ar
    70    88    86   ar
    71    14    11    1
    72    14    15    1
    73   120   122    1
    74   120   121    1
    75   120   119    1
    76    47    49   ar
    77   116   119    1
    78   116   115    1
    79    48    50   ar
    80    11    12    1
    81    11    10    1
    82    12    13    2
    83    82    84   ar
    84    82    80   ar
    85    15    16    1
    86    75    76    1
    87    86    84   ar
    88    79    76    1
    89    79    80    1
    90    76    77    1
    91    84    83   ar
    92    49    50   ar
    93    80    81   ar
    94    10    16    1
    95    10     3   am
    96   105   104    2
    97     4     3    2
    98    83    81   ar
    99   103   104    1
   100   103   102    1
   101    77    78    2
   102     3     2    1
   103   104   106   am
   104   102    99    1
   105    99    98    1
   106    99   100    1
   107    89    90    1
   108   114   112    1
   109     2     1    1
   110     2     5    1
   111    94    95    1
   112    94    93    1
   113    90    93    1
   114    90    91    1
   115     9     8    1
   116   101   100    2
   117   112   113    1
   118   112   111    1
   119   107   108    1
   120    95    96    1
   121    91    92    2
   122     5     6    1
   123     6     7    1
   124    96    97    1
   125   108   111    1
   126   108   109    1
   127     8     7    1
   128   110   109    2
