@<TRIPOS>MOLECULE
tmp/2wx5B04.pdb
 121 116 0 0 0
SMALL
GASTEIGER

@<TRIPOS>ATOM
      1  N        -36.1670  -40.1250   26.5970 N.3   189  LEU189     -0.1231
      2  CA       -35.2060  -41.2270   26.4970 C.3   189  LEU189      0.1693
      3  C        -35.6580  -42.3310   25.4860 C.2   189  LEU189      0.2592
      4  O        -34.9550  -42.5510   24.4800 O.2   189  LEU189     -0.2718
      5  CB       -34.8200  -41.7820   27.8840 C.3   189  LEU189      0.0284
      6  CG       -34.0020  -40.8420   28.7860 C.3   189  LEU189      0.0019
      7  CD1      -33.8110  -41.4680   30.1480 C.3   189  LEU189      0.0001
      8  CD2      -32.6820  -40.3380   28.2470 C.3   189  LEU189      0.0001
      9  N        -36.8270  -42.9470   25.6770 N.am  190  HIS190     -0.1976
     10  CA       -37.3080  -43.9530   24.7060 C.3   190  HIS190      0.1656
     11  C        -37.2020  -43.4920   23.2560 C.2   190  HIS190      0.2291
     12  O        -36.4420  -44.0110   22.4720 O.2   190  HIS190     -0.2864
     13  CB       -38.7380  -44.3730   25.0190 C.3   190  HIS190      0.0771
     14  CG       -39.2760  -45.4450   24.1180 C.ar  190  HIS190      0.0820
     15  ND1      -38.9060  -46.7690   24.2250 N.ar  190  HIS190     -0.2267
     16  CD2      -40.2060  -45.3940   23.1350 C.ar  190  HIS190      0.1154
     17  CE1      -39.5930  -47.4830   23.3540 C.ar  190  HIS190      0.1986
     18  NE2      -40.3850  -46.6720   22.6770 N.ar  190  HIS190     -0.2212
     19  N        -33.6560  -43.1260   22.1110 N.3   193  LEU193     -0.1231
     20  CA       -32.9490  -44.4080   22.0460 C.3   193  LEU193      0.1693
     21  C        -33.3060  -45.2050   20.7710 C.2   193  LEU193      0.2591
     22  O        -32.4200  -45.6080   20.0040 O.2   193  LEU193     -0.2718
     23  CB       -33.2030  -45.2470   23.3060 C.3   193  LEU193      0.0284
     24  CG       -32.2260  -46.4350   23.4720 C.3   193  LEU193      0.0019
     25  CD1      -30.7020  -46.0020   23.5430 C.3   193  LEU193      0.0001
     26  CD2      -32.6030  -47.3260   24.6800 C.3   193  LEU193      0.0001
     27  N        -34.6060  -45.4350   20.5740 N.am  194  VAL194     -0.1980
     28  CA       -35.0910  -46.0960   19.4090 C.3   194  VAL194      0.1595
     29  C        -34.5600  -45.3880   18.1600 C.2   194  VAL194      0.2287
     30  O        -34.1690  -46.0450   17.2190 O.2   194  VAL194     -0.2864
     31  CB       -36.6170  -46.2660   19.4420 C.3   194  VAL194      0.0276
     32  CG1      -37.1750  -46.7740   18.1030 C.3   194  VAL194      0.0022
     33  CG2      -37.0250  -47.2610   20.5420 C.3   194  VAL194      0.0022
     34  N        -29.1350  -51.1750   22.2150 N.3   212  GLU212     -0.1231
     35  CA       -29.9910  -50.3040   22.9960 C.3   212  GLU212      0.1699
     36  C        -29.7930  -50.6270   24.4800 C.2   212  GLU212      0.2592
     37  O        -29.5760  -49.7140   25.2710 O.2   212  GLU212     -0.2718
     38  CB       -31.4590  -50.5340   22.6220 C.3   212  GLU212      0.0402
     39  CG       -31.9460  -49.9320   21.3040 C.3   212  GLU212      0.1161
     40  CD       -33.4550  -50.1910   21.0640 C.2   212  GLU212      0.3649
     41  OE1      -33.9310  -51.3600   21.1650 O.co2 212  GLU212     -0.2457
     42  OE2      -34.1780  -49.1990   20.8100 O.co2 212  GLU212     -0.2457
     43  N        -29.8850  -51.9150   24.8500 N.am  213  ASP213     -0.1974
     44  CA       -29.5300  -52.3890   26.2040 C.3   213  ASP213      0.1709
     45  C        -28.0710  -51.9890   26.4920 C.2   213  ASP213      0.2293
     46  O        -27.7520  -51.5990   27.5960 O.2   213  ASP213     -0.2864
     47  CB       -29.6570  -53.9150   26.3620 C.3   213  ASP213      0.1436
     48  CG       -31.1430  -54.4590   26.3700 C.2   213  ASP213      0.3671
     49  OD1      -32.1160  -53.6550   26.2870 O.co2 213  ASP213     -0.2456
     50  OD2      -31.3250  -55.7350   26.4730 O.co2 213  ASP213     -0.2456
     51  N        -27.6570  -48.2500   27.4050 N.3   216  PHE216     -0.1241
     52  CA       -28.1170  -47.8870   28.7580 C.3   216  PHE216      0.1605
     53  C        -27.2440  -48.3230   29.9070 C.2   216  PHE216      0.2264
     54  O        -26.9340  -47.5280   30.8060 O.2   216  PHE216     -0.2867
     55  CB       -29.6370  -48.0950   29.0250 C.3   216  PHE216      0.0534
     56  CG       -30.3820  -46.8110   29.0340 C.ar  216  PHE216     -0.0203
     57  CD1      -30.9470  -46.3330   30.1970 C.ar  216  PHE216     -0.0042
     58  CD2      -30.4150  -46.0130   27.8750 C.ar  216  PHE216     -0.0042
     59  CE1      -31.6090  -45.0870   30.1920 C.ar  216  PHE216     -0.0003
     60  CE2      -31.0550  -44.7750   27.8460 C.ar  216  PHE216     -0.0003
     61  CZ       -31.6500  -44.3020   28.9970 C.ar  216  PHE216     -0.0000
     62  N        -25.8600  -45.8650   32.7460 N.3   220  VAL220     -0.1245
     63  CA       -26.3710  -45.7320   34.1170 C.3   220  VAL220      0.1561
     64  C        -26.4270  -47.1020   34.7940 C.2   220  VAL220      0.2260
     65  O        -26.9010  -47.2770   35.9520 O.2   220  VAL220     -0.2867
     66  CB       -27.8160  -45.0330   34.1940 C.3   220  VAL220      0.0252
     67  CG1      -27.8710  -43.7310   33.4100 C.3   220  VAL220      0.0019
     68  CG2      -28.9600  -45.9730   33.7060 C.3   220  VAL220      0.0019
     69  N        -28.0450  -49.7780   34.0520 N.3   222  TYR222     -0.1227
     70  CA       -29.2600  -50.5820   34.0430 C.3   222  TYR222      0.1736
     71  C        -30.0020  -50.4210   32.7300 C.2   222  TYR222      0.2596
     72  O        -29.8930  -49.3750   32.0850 O.2   222  TYR222     -0.2718
     73  CB       -30.1850  -50.2120   35.2230 C.3   222  TYR222      0.0548
     74  CG       -31.4860  -50.9840   35.1520 C.ar  222  TYR222     -0.0200
     75  CD1      -31.4900  -52.3700   35.2370 C.ar  222  TYR222     -0.0009
     76  CD2      -32.7050  -50.3490   34.9650 C.ar  222  TYR222     -0.0009
     77  CE1      -32.6510  -53.1030   35.1850 C.ar  222  TYR222      0.0417
     78  CE2      -33.8980  -51.1050   34.8860 C.ar  222  TYR222      0.0417
     79  CZ       -33.8450  -52.4860   34.9900 C.ar  222  TYR222      0.1957
     80  OH       -34.9710  -53.2730   34.8990 O.3   222  TYR222     -0.2866
     81  N        -30.7470  -51.4380   32.3050 N.am  223  SER223     -0.1938
     82  CA       -31.6920  -51.1780   31.2240 C.3   223  SER223      0.2055
     83  C        -33.0060  -51.8840   31.4020 C.2   223  SER223      0.2643
     84  O        -33.0390  -53.0910   31.6470 O.2   223  SER223     -0.2714
     85  CB       -31.1810  -51.5520   29.8620 C.3   223  SER223      0.2130
     86  OG       -32.3190  -51.5040   28.9930 O.3   223  SER223     -0.2179
     87  N        -34.0870  -51.1440   31.2140 N.am  224  ILE224     -0.1963
     88  CA       -35.3630  -51.7210   31.5760 C.3   224  ILE224      0.1727
     89  C        -35.8340  -52.7020   30.5230 C.2   224  ILE224      0.2617
     90  O        -36.5940  -53.6330   30.8170 O.2   224  ILE224     -0.2715
     91  CB       -36.4530  -50.6300   31.9730 C.3   224  ILE224      0.0290
     92  CG1      -37.5910  -51.2810   32.7450 C.3   224  ILE224      0.0022
     93  CG2      -36.9370  -49.8230   30.7730 C.3   224  ILE224      0.0023
     94  CD1      -38.5510  -50.2860   33.3740 C.3   224  ILE224      0.0001
     95  N        -35.3660  -52.5210   29.3000 N.am  225  GLY225     -0.1940
     96  CA       -35.8350  -53.4060   28.2290 C.3   225  GLY225      0.2014
     97  C        -37.0240  -52.9000   27.4410 C.2   225  GLY225      0.2639
     98  O        -37.7890  -52.0080   27.8760 O.2   225  GLY225     -0.2714
     99  N        -37.2040  -53.4710   26.2730 N.am  226  THR226     -0.1950
    100  CA       -38.1670  -52.9090   25.3350 C.3   226  THR226      0.1897
    101  C        -39.5810  -53.2350   25.7460 C.2   226  THR226      0.2313
    102  O        -40.4610  -52.4680   25.3980 O.2   226  THR226     -0.2863
    103  CB       -37.9400  -53.3650   23.8610 C.3   226  THR226      0.1794
    104  OG1      -38.2590  -54.7770   23.7520 O.3   226  THR226     -0.2208
    105  CG2      -36.4600  -53.0610   23.4180 C.3   226  THR226      0.0378
    106  N        -40.0290  -50.5650   29.0410 N.3   229  ILE229     -0.1245
    107  CA       -40.1560  -49.1280   28.8790 C.3   229  ILE229      0.1561
    108  C        -41.5130  -48.7120   28.3720 C.2   229  ILE229      0.2260
    109  O        -41.8220  -47.5350   28.3620 O.2   229  ILE229     -0.2867
    110  CB       -39.1770  -48.5820   27.8850 C.3   229  ILE229      0.0252
    111  CG1      -39.2580  -47.0520   27.9130 C.3   229  ILE229      0.0019
    112  CG2      -39.4770  -49.1530   26.4600 C.3   229  ILE229      0.0019
    113  CD1      -38.3050  -46.3530   28.8920 C.3   229  ILE229      0.0001
    114  N        -43.4750  -48.9630   31.4680 N.3   232  LEU232     -0.1245
    115  CA       -43.1180  -47.8050   32.2470 C.3   232  LEU232      0.1561
    116  C        -43.8650  -46.5450   31.8000 C.2   232  LEU232      0.2260
    117  O        -44.4970  -45.8600   32.6160 O.2   232  LEU232     -0.2867
    118  CB       -41.6480  -47.5210   32.1090 C.3   232  LEU232      0.0270
    119  CG       -41.0680  -46.5410   33.1110 C.3   232  LEU232      0.0019
    120  CD1      -41.5130  -46.8970   34.5490 C.3   232  LEU232      0.0001
    121  CD2      -39.5460  -46.4010   33.0560 C.3   232  LEU232      0.0001
@<TRIPOS>BOND
     1    30    29    2
     2    32    31    1
     3    29    28    1
     4    28    31    1
     5    28    27    1
     6    31    33    1
     7    22    21    2
     8    27    21   am
     9    21    20    1
    10    42    40   ar
    11    40    41   ar
    12    40    39    1
    13    39    38    1
    14    20    19    1
    15    20    23    1
    16    34    35    1
    17    12    11    2
    18    38    35    1
    19    18    16   ar
    20    18    17   ar
    21    35    36    1
    22    16    14   ar
    23    11    10    1
    24    23    24    1
    25    17    15   ar
    26   105   103    1
    27    24    25    1
    28    24    26    1
    29   104   103    1
    30   103   100    1
    31    14    15   ar
    32    14    13    1
    33    36    43   am
    34    36    37    2
    35     4     3    2
    36    10    13    1
    37    10     9    1
    38    43    44    1
    39   100   101    1
    40   100    99    1
    41   102   101    2
    42     3     9   am
    43     3     2    1
    44    44    47    1
    45    44    45    1
    46    99    97   am
    47    49    48   ar
    48    47    48    1
    49    48    50   ar
    50   112   110    1
    51    45    46    2
    52     2     1    1
    53     2     5    1
    54    51    52    1
    55    97    98    2
    56    97    96    1
    57    60    58   ar
    58    60    61   ar
    59    58    56   ar
    60     5     6    1
    61   110   111    1
    62   110   107    1
    63   111   113    1
    64    96    95    1
    65     8     6    1
    66   109   108    2
    67   108   107    1
    68    52    55    1
    69    52    53    1
    70     6     7    1
    71   107   106    1
    72    86    85    1
    73    61    59   ar
    74    55    56    1
    75    56    57   ar
    76    95    89   am
    77    85    82    1
    78    53    54    2
    79    59    57   ar
    80    89    90    2
    81    89    88    1
    82    93    91    1
    83    87    83   am
    84    87    88    1
    85    82    83    1
    86    82    81    1
    87    83    84    2
    88   114   115    1
    89    88    91    1
    90   116   115    1
    91   116   117    2
    92    91    92    1
    93    72    71    2
    94   118   115    1
    95   118   119    1
    96    81    71   am
    97    71    70    1
    98    92    94    1
    99    62    63    1
   100   121   119    1
   101   119   120    1
   102    67    66    1
   103    68    66    1
   104    70    69    1
   105    70    73    1
   106    63    66    1
   107    63    64    1
   108    64    65    2
   109    78    76   ar
   110    78    79   ar
   111    80    79    1
   112    76    74   ar
   113    79    77   ar
   114    74    73    1
   115    74    75   ar
   116    77    75   ar
