@<TRIPOS>MOLECULE
tmp/2wxbB00.pdb
 73 67 0 0 0
SMALL
GASTEIGER

@<TRIPOS>ATOM
      1  N         28.3190   48.6860   88.1190 N.3     8  LYS8       -0.1245
      2  CA        29.0420   49.2480   89.2510 C.3     8  LYS8        0.1561
      3  C         29.8900   50.3890   88.7150 C.2     8  LYS8        0.2260
      4  O         30.5520   50.2520   87.6840 O.2     8  LYS8       -0.2867
      5  CB        29.8920   48.1910   89.9580 C.3     8  LYS8        0.0271
      6  CG        30.7610   48.6860   91.1160 C.3     8  LYS8        0.0035
      7  CD        32.1320   49.2050   90.6940 C.3     8  LYS8        0.0206
      8  CE        32.9210   49.7030   91.8980 C.3     8  LYS8        0.1093
      9  NZ        34.3900   49.8870   91.6630 N.3     8  LYS8       -0.1314
     10  N         32.5280   53.8460   89.6790 N.3    10  GLY10      -0.1210
     11  CA        33.4660   54.3940   90.6140 C.3    10  GLY10       0.1956
     12  C         34.4990   55.2470   89.9050 C.2    10  GLY10       0.2612
     13  O         34.4190   55.4990   88.6930 O.2    10  GLY10      -0.2717
     14  N         35.4710   55.6850   90.6840 N.am   11  GLY11      -0.1956
     15  CA        36.6240   56.3870   90.1510 C.3    11  GLY11       0.1869
     16  C         36.2500   57.7480   89.6160 C.2    11  GLY11       0.2309
     17  O         35.3950   58.4360   90.1870 O.2    11  GLY11      -0.2863
     18  N         30.8000   53.4110   94.2500 N.3    43  GLY43      -0.1210
     19  CA        31.6650   53.8410   95.3160 C.3    43  GLY43       0.1956
     20  C         31.7120   55.3530   95.3440 C.2    43  GLY43       0.2612
     21  O         30.8190   56.0300   94.8240 O.2    43  GLY43      -0.2717
     22  N         32.7880   55.8760   95.9300 N.am   44  GLY44      -0.1942
     23  CA        32.9150   57.3070   96.1800 C.3    44  GLY44       0.2014
     24  C         33.9210   58.0720   95.3460 C.2    44  GLY44       0.2639
     25  O         34.0100   59.2860   95.4860 O.2    44  GLY44      -0.2714
     26  N         34.7050   57.3800   94.5250 N.am   45  GLY45      -0.1954
     27  CA        35.5630   58.0220   93.5180 C.3    45  GLY45       0.1869
     28  C         36.4050   59.1680   94.0500 C.2    45  GLY45       0.2309
     29  O         37.0160   59.0780   95.1210 O.2    45  GLY45      -0.2863
     30  N         33.5180   48.7580   97.0020 N.3   161  ALA161     -0.1231
     31  CA        32.3450   48.8520   96.1140 C.3   161  ALA161      0.1694
     32  C         32.2440   47.6630   95.1790 C.2   161  ALA161      0.2592
     33  O         31.1370   47.2630   94.8030 O.2   161  ALA161     -0.2718
     34  CB        32.3550   50.1610   95.3050 C.3   161  ALA161      0.0304
     35  N         33.3950   47.1210   94.7850 N.am  162  ASP162     -0.1974
     36  CA        33.4340   45.9240   93.9530 C.3   162  ASP162      0.1709
     37  C         32.8470   44.7380   94.7200 C.2   162  ASP162      0.2293
     38  O         32.0760   43.9780   94.1710 O.2   162  ASP162     -0.2864
     39  CB        34.8700   45.5950   93.5370 C.3   162  ASP162      0.1436
     40  CG        35.4190   46.5340   92.4630 C.2   162  ASP162      0.3671
     41  OD1       34.6490   47.0470   91.6090 O.co2 162  ASP162     -0.2456
     42  OD2       36.6510   46.7230   92.4670 O.co2 162  ASP162     -0.2456
     43  N         32.3760   48.8410   85.8750 N.3   179  LEU179     -0.1231
     44  CA        32.8920   49.9120   85.0380 C.3   179  LEU179      0.1693
     45  C         33.9840   50.6820   85.7830 C.2   179  LEU179      0.2593
     46  O         33.7620   51.1900   86.9000 O.2   179  LEU179     -0.2718
     47  CB        31.7970   50.9000   84.6320 C.3   179  LEU179      0.0284
     48  CG        30.7420   50.4810   83.6180 C.3   179  LEU179      0.0019
     49  CD1       29.9150   51.7150   83.1960 C.3   179  LEU179      0.0001
     50  CD2       31.3840   49.7890   82.4130 C.3   179  LEU179      0.0001
     51  N         35.1390   50.7990   85.1450 N.am  180  SER180     -0.1938
     52  CA        36.2540   51.5570   85.6880 C.3   180  SER180      0.2055
     53  C         37.0270   52.1230   84.5140 C.2   180  SER180      0.2643
     54  O         36.7610   51.7670   83.3620 O.2   180  SER180     -0.2714
     55  CB        37.1690   50.6570   86.5190 C.3   180  SER180      0.2130
     56  OG        36.4510   50.0430   87.5820 O.3   180  SER180     -0.2179
     57  N         37.9860   52.9940   84.8070 N.am  181  ASP181     -0.1971
     58  CA        38.8310   53.5820   83.7770 C.3   181  ASP181      0.1709
     59  C         39.9400   52.5710   83.4340 C.2   181  ASP181      0.2293
     60  O         41.0960   52.7130   83.8600 O.2   181  ASP181     -0.2864
     61  CB        39.3980   54.9190   84.2760 C.3   181  ASP181      0.1436
     62  CG        39.9150   55.8060   83.1550 C.2   181  ASP181      0.3671
     63  OD1       40.4100   56.9060   83.4730 O.co2 181  ASP181     -0.2456
     64  OD2       39.8270   55.4300   81.9640 O.co2 181  ASP181     -0.2456
     65  N         41.9010   45.2400   89.5780 N.3   217  LYS217     -0.1245
     66  CA        40.6140   45.2070   88.8830 C.3   217  LYS217      0.1561
     67  C         40.2780   43.7890   88.3940 C.2   217  LYS217      0.2260
     68  O         39.1680   43.2910   88.6150 O.2   217  LYS217     -0.2867
     69  CB        40.6220   46.2080   87.7210 C.3   217  LYS217      0.0271
     70  CG        41.0770   47.6090   88.1460 C.3   217  LYS217      0.0035
     71  CD        40.6130   48.7050   87.2010 C.3   217  LYS217      0.0206
     72  CE        40.9250   50.0790   87.7770 C.3   217  LYS217      0.1093
     73  NZ        40.3930   51.1830   86.9320 N.3   217  LYS217     -0.1314
@<TRIPOS>BOND
     1    64    62   ar
     2    50    48    1
     3    62    63   ar
     4    62    61    1
     5    49    48    1
     6    54    53    2
     7    59    58    1
     8    59    60    2
     9    48    47    1
    10    58    61    1
    11    58    57    1
    12    53    57   am
    13    53    52    1
    14    47    44    1
    15    44    45    1
    16    44    43    1
    17    51    52    1
    18    51    45   am
    19    52    55    1
    20    45    46    2
    21    55    56    1
    22    73    72    1
    23    71    72    1
    24    71    70    1
    25     4     3    2
    26    69    70    1
    27    69    66    1
    28     1     2    1
    29    67    68    2
    30    67    66    1
    31    13    12    2
    32     3     2    1
    33    66    65    1
    34     2     5    1
    35    16    15    1
    36    16    17    2
    37    10    11    1
    38    12    11    1
    39    12    14   am
    40     5     6    1
    41    15    14    1
    42     7     6    1
    43     7     8    1
    44    41    40   ar
    45     9     8    1
    46    40    42   ar
    47    40    39    1
    48    27    28    1
    49    27    26    1
    50    39    36    1
    51    36    37    1
    52    36    35    1
    53    28    29    2
    54    38    37    2
    55    18    19    1
    56    26    24   am
    57    35    32   am
    58    33    32    2
    59    21    20    2
    60    32    31    1
    61    34    31    1
    62    19    20    1
    63    20    22   am
    64    24    25    2
    65    24    23    1
    66    22    23    1
    67    31    30    1
