@<TRIPOS>MOLECULE
tmp/2wxdA06.pdb
 83 83 0 0 0
SMALL
GASTEIGER

@<TRIPOS>ATOM
      1  N         34.4400  118.7040   33.4210 N.2   261  PRO261     -0.2571
      2  CA        35.0300  118.6410   32.0920 C.3   261  PRO261      0.2026
      3  C         35.5160  120.0430   31.6440 C.2   261  PRO261      0.2683
      4  O         34.7720  121.0160   31.7500 O.2   261  PRO261     -0.2709
      5  CB        33.8700  118.1830   31.2050 C.2   261  PRO261      0.0085
      6  CG        32.7750  118.0270   32.0820 C.2   261  PRO261      0.0180
      7  CD        32.9960  118.4840   33.4810 C.2   261  PRO261      0.0938
      8  N         36.7260  120.0270   31.1010 N.am  262  TYR262     -0.1955
      9  CA        37.2810  121.1630   30.3840 C.3   262  TYR262      0.1771
     10  C         36.3590  121.6710   29.2980 C.2   262  TYR262      0.2620
     11  O         36.1810  122.8340   29.0260 O.2   262  TYR262     -0.2715
     12  CB        38.5850  120.8090   29.8370 C.3   262  TYR262      0.0574
     13  CG        39.3120  121.8350   28.9630 C.ar  262  TYR262     -0.0198
     14  CD1       39.9370  122.9450   29.5510 C.ar  262  TYR262     -0.0009
     15  CD2       39.3860  121.6550   27.6190 C.ar  262  TYR262     -0.0009
     16  CE1       40.5940  123.8340   28.7520 C.ar  262  TYR262      0.0417
     17  CE2       40.1150  122.6260   26.8170 C.ar  262  TYR262      0.0417
     18  CZ        40.6750  123.6350   27.4710 C.ar  262  TYR262      0.1957
     19  OH        41.3700  124.6190   26.6970 O.3   262  TYR262     -0.2866
     20  N         35.6790  120.7280   28.6060 N.am  263  ASN263     -0.1958
     21  CA        34.6590  121.0740   27.5780 C.3   263  ASN263      0.1819
     22  C         33.4450  120.1570   27.8980 C.2   263  ASN263      0.2621
     23  O         33.6050  118.9000   27.6670 O.2   263  ASN263     -0.2715
     24  CB        35.1940  120.8620   26.1890 C.3   263  ASN263      0.1195
     25  CG        34.1770  121.2140   25.1400 C.2   263  ASN263      0.2630
     26  OD1       32.9950  121.1210   25.3940 O.2   263  ASN263     -0.2716
     27  ND2       34.6960  121.5770   23.9740 N.am  263  ASN263     -0.0877
     28  N         32.3580  120.6960   28.3980 N.am  264  ASP264     -0.1957
     29  CA        31.2640  119.8870   28.8630 C.3   264  ASP264      0.1840
     30  C         30.3620  119.3130   27.7860 C.2   264  ASP264      0.2622
     31  O         29.4210  118.6160   28.1680 O.2   264  ASP264     -0.2715
     32  CB        30.5190  120.5790   29.9580 C.3   264  ASP264      0.1450
     33  CG        29.7560  121.7410   29.5020 C.2   264  ASP264      0.3671
     34  OD1       29.7150  122.0890   28.3140 O.co2 264  ASP264     -0.2456
     35  OD2       29.2730  122.4030   30.4560 O.co2 264  ASP264     -0.2456
     36  N         30.6730  119.6000   26.5400 N.am  265  THR265     -0.1951
     37  CA        29.9870  118.9220   25.4360 C.3   265  THR265      0.1897
     38  C         30.8960  118.0530   24.6360 C.2   265  THR265      0.2313
     39  O         30.4960  117.5970   23.5440 O.2   265  THR265     -0.2863
     40  CB        29.2850  119.9400   24.5050 C.3   265  THR265      0.1794
     41  OG1       30.2220  120.6840   23.7630 O.3   265  THR265     -0.2208
     42  CG2       28.3270  120.7180   25.2840 C.3   265  THR265      0.0378
     43  N         39.3620  121.4720   36.1040 N.3   332  TYR332     -0.1241
     44  CA        38.8450  120.9940   34.8410 C.3   332  TYR332      0.1605
     45  C         39.7680  119.9340   34.3060 C.2   332  TYR332      0.2264
     46  O         41.0000  120.0050   34.3970 O.2   332  TYR332     -0.2867
     47  CB        38.7950  122.1340   33.7930 C.3   332  TYR332      0.0534
     48  CG        37.7620  123.2020   34.0670 C.ar  332  TYR332     -0.0201
     49  CD1       36.4000  122.9370   34.1010 C.ar  332  TYR332     -0.0009
     50  CD2       38.1420  124.4910   34.4310 C.ar  332  TYR332     -0.0009
     51  CE1       35.4670  123.8680   34.4290 C.ar  332  TYR332      0.0417
     52  CE2       37.2060  125.3980   34.6560 C.ar  332  TYR332      0.0417
     53  CZ        35.8640  125.1650   34.6910 C.ar  332  TYR332      0.1957
     54  OH        34.8970  126.1300   34.9940 O.3   332  TYR332     -0.2866
     55  N         38.4550  126.6870   31.5710 N.3   359  ASN359     -0.1225
     56  CA        37.8320  125.7810   30.6380 C.3   359  ASN359      0.1785
     57  C         38.0140  126.1690   29.2010 C.2   359  ASN359      0.2597
     58  O         38.7770  127.0770   28.8900 O.2   359  ASN359     -0.2718
     59  CB        36.4120  125.4830   31.0860 C.3   359  ASN359      0.1169
     60  CG        35.3940  126.4600   30.6550 C.2   359  ASN359      0.2627
     61  OD1       35.7550  127.4980   30.0890 O.2   359  ASN359     -0.2716
     62  ND2       34.1030  126.1390   30.9710 N.am  359  ASN359     -0.0877
     63  N         37.4170  125.3830   28.2850 N.am  360  ALA360     -0.1966
     64  CA        37.7870  125.5610   26.8940 C.3   360  ALA360      0.1728
     65  C         37.2270  126.8770   26.3630 C.2   360  ALA360      0.2616
     66  O         37.7150  127.3000   25.2940 O.2   360  ALA360     -0.2715
     67  CB        37.1180  124.3860   26.0930 C.3   360  ALA360      0.0334
     68  N         36.2490  127.4450   26.9900 N.am  361  SER361     -0.1950
     69  CA        35.6950  128.7460   26.5980 C.3   361  SER361      0.1924
     70  C         36.3590  129.9350   27.2830 C.2   361  SER361      0.2314
     71  O         35.8790  131.0360   27.1030 O.2   361  SER361     -0.2863
     72  CB        34.2080  128.7500   26.5020 C.3   361  SER361      0.2116
     73  OG        33.5110  128.4260   27.6620 O.3   361  SER361     -0.2180
     74  N         36.6850  130.3580   30.6990 N.3   363  HIS363     -0.1241
     75  CA        36.1620  130.6530   32.0010 C.3   363  HIS363      0.1621
     76  C         37.0700  130.1360   33.0620 C.2   363  HIS363      0.2264
     77  O         37.3780  128.9050   33.1470 O.2   363  HIS363     -0.2867
     78  CB        34.8300  129.9160   32.1690 C.3   363  HIS363      0.0745
     79  CG        34.1560  130.1130   33.4410 C.ar  363  HIS363      0.0817
     80  ND1       34.0140  129.1550   34.4400 N.ar  363  HIS363     -0.2268
     81  CD2       33.6550  131.2710   33.9530 C.ar  363  HIS363      0.1154
     82  CE1       33.4030  129.7220   35.4750 C.ar  363  HIS363      0.1986
     83  NE2       33.1240  130.9860   35.1610 N.ar  363  HIS363     -0.2212
@<TRIPOS>BOND
     1    39    38    2
     2    41    40    1
     3    27    25   am
     4    40    42    1
     5    40    37    1
     6    38    37    1
     7    25    26    2
     8    25    24    1
     9    66    65    2
    10    37    36    1
    11    67    64    1
    12    24    21    1
    13    65    64    1
    14    65    68   am
    15    72    69    1
    16    72    73    1
    17    36    30   am
    18    69    68    1
    19    69    70    1
    20    19    18    1
    21    17    18   ar
    22    17    15   ar
    23    64    63    1
    24    71    70    2
    25    18    16   ar
    26    21    22    1
    27    21    20    1
    28    15    13   ar
    29    23    22    2
    30    30    31    2
    31    30    29    1
    32    22    28   am
    33    63    57   am
    34    34    33   ar
    35    28    29    1
    36    20    10   am
    37    16    14   ar
    38    29    32    1
    39    58    57    2
    40    13    14   ar
    41    13    12    1
    42    11    10    2
    43    57    56    1
    44    10     9    1
    45    33    32    1
    46    33    35   ar
    47    12     9    1
    48    61    60    2
    49     9     8    1
    50    56    59    1
    51    56    55    1
    52    60    62   am
    53    60    59    1
    54    74    75    1
    55     8     3   am
    56     5     6    2
    57     5     2    1
    58     3     4    2
    59     3     2    1
    60    75    78    1
    61    75    76    1
    62     6     7    1
    63     2     1    1
    64    78    79    1
    65    76    77    2
    66     1     7    2
    67    79    81   ar
    68    79    80   ar
    69    47    48    1
    70    47    44    1
    71    81    83   ar
    72    48    49   ar
    73    48    50   ar
    74    49    51   ar
    75    45    46    2
    76    45    44    1
    77    51    53   ar
    78    50    52   ar
    79    80    82   ar
    80    52    53   ar
    81    53    54    1
    82    44    43    1
    83    83    82   ar
