@<TRIPOS>MOLECULE
tmp/2wxdA07.pdb
 223 219 0 0 0
SMALL
GASTEIGER

@<TRIPOS>ATOM
      1  N         54.8880  120.7350   60.8850 N.3    37  GLN37      -0.1245
      2  CA        54.6310  122.1080   60.5300 C.3    37  GLN37       0.1566
      3  C         54.6460  123.0760   61.6840 C.2    37  GLN37       0.2260
      4  O         54.9100  124.3060   61.4440 O.2    37  GLN37      -0.2867
      5  CB        53.3240  122.2340   59.7470 C.3    37  GLN37       0.0367
      6  CG        53.3420  121.4080   58.5000 C.3    37  GLN37       0.0905
      7  CD        52.0760  121.4970   57.6850 C.2    37  GLN37       0.2608
      8  OE1       51.1650  120.6900   57.8230 O.2    37  GLN37      -0.2717
      9  NE2       52.0060  122.5140   56.8330 N.am   37  GLN37      -0.0878
     10  N         51.2310  112.1720   59.7500 N.3   139  HIS139     -0.1226
     11  CA        51.1790  113.3000   58.8500 C.3   139  HIS139      0.1752
     12  C         52.5450  113.5370   58.1460 C.2   139  HIS139      0.2596
     13  O         53.1120  114.6020   58.2250 O.2   139  HIS139     -0.2718
     14  CB        50.6530  114.5310   59.5520 C.3   139  HIS139      0.0759
     15  CG        50.0530  115.5680   58.6670 C.ar  139  HIS139      0.0818
     16  ND1       48.7530  116.0600   58.8670 N.ar  139  HIS139     -0.2268
     17  CD2       50.5690  116.2760   57.6630 C.ar  139  HIS139      0.1154
     18  CE1       48.5430  117.0200   58.0050 C.ar  139  HIS139      0.1986
     19  NE2       49.6090  117.1650   57.2280 N.ar  139  HIS139     -0.2212
     20  N         52.9930  112.4760   57.5180 N.am  140  TRP140     -0.1976
     21  CA        54.0950  112.4540   56.5480 C.3   140  TRP140      0.1640
     22  C         55.5040  112.3620   57.1780 C.2   140  TRP140      0.2290
     23  O         56.4980  112.1290   56.4370 O.2   140  TRP140     -0.2864
     24  CB        54.0380  113.6080   55.6040 C.3   140  TRP140      0.0576
     25  CG        52.7040  113.7230   54.8110 C.ar  140  TRP140      0.0006
     26  CD1       51.7200  112.7720   54.6930 C.ar  140  TRP140      0.0946
     27  CD2       52.3630  114.8000   53.9560 C.ar  140  TRP140      0.0152
     28  NE1       50.7450  113.2850   53.8230 N.ar  140  TRP140     -0.2442
     29  CE2       51.1260  114.4770   53.3480 C.ar  140  TRP140      0.0810
     30  CE3       52.9750  115.9880   53.6130 C.ar  140  TRP140      0.0012
     31  CZ2       50.4950  115.3770   52.5030 C.ar  140  TRP140      0.0191
     32  CZ3       52.3810  116.8350   52.6880 C.ar  140  TRP140      0.0001
     33  CH2       51.1510  116.5000   52.1530 C.ar  140  TRP140      0.0015
     34  N         47.5930  110.8910   56.7460 N.3   184  ASN184     -0.1225
     35  CA        47.1690  112.1010   56.0680 C.3   184  ASN184      0.1785
     36  C         47.2380  112.0800   54.5670 C.2   184  ASN184      0.2597
     37  O         48.2950  111.8320   54.0130 O.2   184  ASN184     -0.2718
     38  CB        47.9400  113.3620   56.5250 C.3   184  ASN184      0.1169
     39  CG        47.4440  114.5330   55.9350 C.2   184  ASN184      0.2627
     40  OD1       46.2850  114.9490   56.2300 O.2   184  ASN184     -0.2716
     41  ND2       48.2510  115.2390   55.1480 N.am  184  ASN184     -0.0877
     42  N         46.1010  112.3560   53.8930 N.am  185  GLN185     -0.1979
     43  CA        45.9880  112.4790   52.4330 C.3   185  GLN185      0.1601
     44  C         46.6750  111.3330   51.7170 C.2   185  GLN185      0.2287
     45  O         47.7930  111.4930   51.1690 O.2   185  GLN185     -0.2864
     46  CB        46.5540  113.7950   51.9570 C.3   185  GLN185      0.0394
     47  CG        45.7980  114.9550   52.4830 C.3   185  GLN185      0.0908
     48  CD        46.1440  116.3130   51.9060 C.2   185  GLN185      0.2608
     49  OE1       45.5310  117.3530   52.2620 O.2   185  GLN185     -0.2717
     50  NE2       47.0830  116.3940   50.9000 N.am  185  GLN185     -0.0878
     51  N         46.6320  110.0760   48.8220 N.3   187  TYR187     -0.1227
     52  CA        47.1990  110.3190   47.4750 C.3   187  TYR187      0.1736
     53  C         48.5760  111.0070   47.4340 C.2   187  TYR187      0.2596
     54  O         49.3180  110.8370   46.4740 O.2   187  TYR187     -0.2718
     55  CB        46.1830  111.1540   46.7120 C.3   187  TYR187      0.0548
     56  CG        46.4960  111.5520   45.3290 C.ar  187  TYR187     -0.0200
     57  CD1       46.1210  110.7780   44.2570 C.ar  187  TYR187     -0.0009
     58  CD2       47.1700  112.7680   45.0680 C.ar  187  TYR187     -0.0009
     59  CE1       46.4360  111.1970   42.9310 C.ar  187  TYR187      0.0417
     60  CE2       47.5010  113.1340   43.7780 C.ar  187  TYR187      0.0417
     61  CZ        47.1430  112.3340   42.7370 C.ar  187  TYR187      0.1957
     62  OH        47.4060  112.7260   41.4160 O.3   187  TYR187     -0.2866
     63  N         48.8560  111.8570   48.4620 N.am  188  SER188     -0.1952
     64  CA        49.9670  112.7510   48.4030 C.3   188  SER188      0.1924
     65  C         51.3470  112.1400   48.4320 C.2   188  SER188      0.2314
     66  O         52.1970  112.5080   47.6160 O.2   188  SER188     -0.2863
     67  CB        49.8140  113.8310   49.5280 C.3   188  SER188      0.2116
     68  OG        48.5870  114.5350   49.3420 O.3   188  SER188     -0.2180
     69  N         53.5630  112.8340   45.2140 N.3   192  ARG192     -0.1245
     70  CA        54.5610  113.8590   45.4190 C.3   192  ARG192      0.1563
     71  C         55.8740  113.3690   45.9820 C.2   192  ARG192      0.2260
     72  O         56.9310  113.9120   45.6440 O.2   192  ARG192     -0.2867
     73  CB        54.0370  114.9690   46.2860 C.3   192  ARG192      0.0307
     74  CG        52.7250  115.4830   45.7970 C.3   192  ARG192      0.0489
     75  CD        52.1760  116.5600   46.7210 C.3   192  ARG192      0.2205
     76  NE        53.0320  117.7420   46.7530 N.pl3 192  ARG192     -0.0865
     77  CZ        53.0550  118.7320   45.8800 C.cat 192  ARG192      0.5346
     78  NH1       52.2760  118.7640   44.8120 N.pl3 192  ARG192      0.1354
     79  NH2       53.8970  119.7070   46.0380 N.pl3 192  ARG192      0.1354
     80  N         42.7490  113.4160   50.5420 N.3   255  ILE255     -0.1245
     81  CA        42.6500  114.6590   49.7890 C.3   255  ILE255      0.1561
     82  C         41.5380  114.4660   48.7710 C.2   255  ILE255      0.2260
     83  O         41.5220  113.4510   48.0120 O.2   255  ILE255     -0.2867
     84  CB        43.9710  115.1600   49.2570 C.3   255  ILE255      0.0252
     85  CG1       43.7980  116.4540   48.4810 C.3   255  ILE255      0.0019
     86  CG2       44.7090  114.1210   48.3720 C.3   255  ILE255      0.0019
     87  CD1       43.3620  117.6310   49.3740 C.3   255  ILE255      0.0001
     88  N         39.3000  116.4930   45.6350 N.3   257  ARG257     -0.1245
     89  CA        39.0470  117.5540   44.6580 C.3   257  ARG257      0.1563
     90  C         37.7490  117.1700   44.0000 C.2   257  ARG257      0.2260
     91  O         37.4500  115.9750   43.9610 O.2   257  ARG257     -0.2867
     92  CB        40.1540  117.6460   43.6110 C.3   257  ARG257      0.0307
     93  CG        41.5500  117.9840   44.1460 C.3   257  ARG257      0.0489
     94  CD        42.5760  117.9780   43.0310 C.3   257  ARG257      0.2205
     95  NE        43.8960  118.0720   43.5970 N.pl3 257  ARG257     -0.0865
     96  CZ        44.9830  117.7670   42.9140 C.cat 257  ARG257      0.5346
     97  NH1       44.9280  117.5410   41.6430 N.pl3 257  ARG257      0.1354
     98  NH2       46.1650  117.7210   43.5520 N.pl3 257  ARG257      0.1354
     99  N         42.0600  109.6140   41.1460 N.3   280  PHE280     -0.1241
    100  CA        42.4270  110.5040   42.2810 C.3   280  PHE280      0.1605
    101  C         41.7360  109.9910   43.5220 C.2   280  PHE280      0.2264
    102  O         42.3730  109.9480   44.5640 O.2   280  PHE280     -0.2867
    103  CB        42.0620  111.9270   41.9220 C.3   280  PHE280      0.0534
    104  CG        42.5600  112.9540   42.8880 C.ar  280  PHE280     -0.0203
    105  CD1       43.8190  113.4750   42.7100 C.ar  280  PHE280     -0.0042
    106  CD2       41.7950  113.3910   43.9540 C.ar  280  PHE280     -0.0042
    107  CE1       44.2910  114.3960   43.6140 C.ar  280  PHE280     -0.0003
    108  CE2       42.2850  114.3260   44.8370 C.ar  280  PHE280     -0.0003
    109  CZ        43.5170  114.8270   44.6280 C.ar  280  PHE280     -0.0000
    110  N         40.2690  121.4550   49.1430 N.3   328  TYR328     -0.1227
    111  CA        40.7200  122.8090   48.7700 C.3   328  TYR328      0.1736
    112  C         40.1940  123.3610   47.4580 C.2   328  TYR328      0.2595
    113  O         39.7980  124.5450   47.4570 O.2   328  TYR328     -0.2718
    114  CB        42.2450  122.8240   48.8050 C.3   328  TYR328      0.0548
    115  CG        42.8390  122.6140   50.1580 C.ar  328  TYR328     -0.0200
    116  CD1       43.0560  123.6880   51.0390 C.ar  328  TYR328     -0.0009
    117  CD2       43.1900  121.3220   50.5840 C.ar  328  TYR328     -0.0009
    118  CE1       43.6010  123.4720   52.2510 C.ar  328  TYR328      0.0417
    119  CE2       43.7580  121.1390   51.8660 C.ar  328  TYR328      0.0417
    120  CZ        43.9750  122.2570   52.6620 C.ar  328  TYR328      0.1957
    121  OH        44.5680  122.1780   53.9350 O.3   328  TYR328     -0.2866
    122  N         40.1690  122.5540   46.4050 N.am  329  PHE329     -0.1976
    123  CA        39.8440  123.1210   45.0900 C.3   329  PHE329      0.1639
    124  C         39.4210  121.9990   44.1020 C.2   329  PHE329      0.2290
    125  O         39.4460  120.7910   44.4010 O.2   329  PHE329     -0.2864
    126  CB        41.0110  123.9670   44.5160 C.3   329  PHE329      0.0560
    127  CG        42.3220  123.2540   44.4360 C.ar  329  PHE329     -0.0200
    128  CD1       42.5770  122.3350   43.4580 C.ar  329  PHE329     -0.0042
    129  CD2       43.3830  123.6170   45.2660 C.ar  329  PHE329     -0.0042
    130  CE1       43.8300  121.7040   43.3300 C.ar  329  PHE329     -0.0003
    131  CE2       44.5950  122.9730   45.1490 C.ar  329  PHE329     -0.0003
    132  CZ        44.7910  122.0170   44.2000 C.ar  329  PHE329     -0.0000
    133  N         42.9880  131.4310   44.2790 N.3   369  PHE369     -0.1227
    134  CA        43.3690  130.6220   45.4140 C.3   369  PHE369      0.1736
    135  C         44.8300  130.8080   45.7320 C.2   369  PHE369      0.2595
    136  O         45.1560  130.9440   46.9240 O.2   369  PHE369     -0.2718
    137  CB        43.0550  129.1630   45.1900 C.3   369  PHE369      0.0547
    138  CG        43.3690  128.2660   46.3890 C.ar  369  PHE369     -0.0202
    139  CD1       42.4910  128.1580   47.4600 C.ar  369  PHE369     -0.0042
    140  CD2       44.4320  127.4600   46.3130 C.ar  369  PHE369     -0.0042
    141  CE1       42.8080  127.3490   48.5030 C.ar  369  PHE369     -0.0003
    142  CE2       44.7820  126.6350   47.3870 C.ar  369  PHE369     -0.0003
    143  CZ        43.9310  126.6290   48.4920 C.ar  369  PHE369     -0.0000
    144  N         45.7340  130.6340   44.7750 N.am  370  GLU370     -0.1979
    145  CA        47.1840  130.7040   45.0830 C.3   370  GLU370      0.1602
    146  C         47.8200  131.2220   43.8520 C.2   370  GLU370      0.2287
    147  O         47.7860  130.5860   42.7700 O.2   370  GLU370     -0.2864
    148  CB        47.7260  129.3760   45.4590 C.3   370  GLU370      0.0415
    149  CG        49.0790  129.4190   46.2240 C.3   370  GLU370      0.1163
    150  CD        49.2740  128.1200   46.9740 C.2   370  GLU370      0.3649
    151  OE1       48.6580  127.8360   48.1160 O.co2 370  GLU370     -0.2457
    152  OE2       49.9950  127.3450   46.3090 O.co2 370  GLU370     -0.2457
    153  N         46.3310  128.9270   40.8850 N.3   380  ILE380     -0.1245
    154  CA        45.2670  128.0160   41.3100 C.3   380  ILE380      0.1561
    155  C         44.0960  128.9340   41.6310 C.2   380  ILE380      0.2260
    156  O         44.2380  130.0130   42.2060 O.2   380  ILE380     -0.2867
    157  CB        45.6810  127.2090   42.5180 C.3   380  ILE380      0.0252
    158  CG1       46.8640  126.3090   42.2000 C.3   380  ILE380      0.0019
    159  CG2       44.5090  126.3400   43.0100 C.3   380  ILE380      0.0019
    160  CD1       47.4220  125.5940   43.4800 C.3   380  ILE380      0.0001
    161  N         40.3850  119.3320   56.7180 N.3   407  GLU407     -0.1196
    162  CA        41.1310  120.4840   56.3270 C.3   407  GLU407      0.1783
    163  C         40.3060  121.2030   55.2680 C.2   407  GLU407      0.2306
    164  O         39.7670  120.5600   54.3540 O.2   407  GLU407     -0.2863
    165  CB        42.5110  120.2180   55.6590 C.2   407  GLU407      0.0071
    166  CG        43.5090  119.5780   56.5170 C.2   407  GLU407      0.0834
    167  CD        44.8860  119.2860   55.9190 C.2   407  GLU407      0.3877
    168  OE1       45.2400  119.9210   54.9070 O.co2 407  GLU407     -0.2406
    169  OE2       45.5810  118.3680   56.5100 O.co2 407  GLU407     -0.2406
    170  N         41.9600  124.6660   57.9770 N.3   455  TRP455     -0.1241
    171  CA        43.4410  124.7030   57.9230 C.3   455  TRP455      0.1605
    172  C         43.7850  126.1970   57.8400 C.2   455  TRP455      0.2264
    173  O         43.3200  126.8280   56.9130 O.2   455  TRP455     -0.2867
    174  CB        44.0040  123.9660   56.7010 C.3   455  TRP455      0.0550
    175  CG        45.4850  123.9680   56.8210 C.ar  455  TRP455      0.0003
    176  CD1       46.3420  124.8120   56.2010 C.ar  455  TRP455      0.0946
    177  CD2       46.2620  123.0260   57.5010 C.ar  455  TRP455      0.0152
    178  NE1       47.6350  124.5060   56.5420 N.ar  455  TRP455     -0.2442
    179  CE2       47.6200  123.4210   57.3710 C.ar  455  TRP455      0.0810
    180  CE3       45.9400  121.9010   58.2900 C.ar  455  TRP455      0.0012
    181  CZ2       48.6380  122.7470   58.0320 C.ar  455  TRP455      0.0191
    182  CZ3       46.9840  121.2360   58.9010 C.ar  455  TRP455      0.0001
    183  CH2       48.3080  121.6500   58.7320 C.ar  455  TRP455      0.0015
    184  N         54.7390  125.5180   55.6390 N.3   462  GLU462     -0.1231
    185  CA        53.9460  124.8060   54.6790 C.3   462  GLU462      0.1699
    186  C         54.8620  123.9450   53.7800 C.2   462  GLU462      0.2592
    187  O         55.8420  124.4370   53.1610 O.2   462  GLU462     -0.2718
    188  CB        53.1680  125.7490   53.7950 C.3   462  GLU462      0.0402
    189  CG        52.3740  125.1280   52.6500 C.3   462  GLU462      0.1161
    190  CD        51.3150  124.1200   53.1480 C.2   462  GLU462      0.3649
    191  OE1       50.9410  124.0610   54.3710 O.co2 462  GLU462     -0.2457
    192  OE2       50.7930  123.3990   52.1910 O.co2 462  GLU462     -0.2457
    193  N         54.5460  122.6690   53.6620 N.am  463  PHE463     -0.1976
    194  CA        55.3170  121.7050   52.8540 C.3   463  PHE463      0.1639
    195  C         55.5820  122.2480   51.4650 C.2   463  PHE463      0.2290
    196  O         54.6280  122.8090   50.8380 O.2   463  PHE463     -0.2864
    197  CB        54.6140  120.3320   52.8200 C.3   463  PHE463      0.0560
    198  CG        54.4160  119.7010   54.1140 C.ar  463  PHE463     -0.0200
    199  CD1       55.4920  119.1320   54.7690 C.ar  463  PHE463     -0.0042
    200  CD2       53.1290  119.6240   54.6810 C.ar  463  PHE463     -0.0042
    201  CE1       55.3490  118.4520   55.8950 C.ar  463  PHE463     -0.0003
    202  CE2       52.9830  118.9480   55.8750 C.ar  463  PHE463     -0.0003
    203  CZ        54.0730  118.3210   56.4770 C.ar  463  PHE463     -0.0000
    204  N         56.7450  125.0190   50.5100 N.3   465  LYS465     -0.1245
    205  CA        56.5810  126.4480   50.4000 C.3   465  LYS465      0.1561
    206  C         57.2890  127.2400   51.4310 C.2   465  LYS465      0.2260
    207  O         57.3370  128.4350   51.4590 O.2   465  LYS465     -0.2867
    208  CB        55.1120  126.8280   50.3840 C.3   465  LYS465      0.0271
    209  CG        54.2810  126.1860   49.3080 C.3   465  LYS465      0.0035
    210  CD        54.8280  126.4620   48.0140 C.3   465  LYS465      0.0206
    211  CE        53.7890  126.0510   46.9200 C.3   465  LYS465      0.1093
    212  NZ        52.4850  126.7040   47.2040 N.3   465  LYS465     -0.1314
    213  N         48.7470  130.2610   56.0400 N.3   471  PHE471     -0.1241
    214  CA        47.4080  129.7210   56.0360 C.3   471  PHE471      0.1605
    215  C         46.6580  129.9500   57.3220 C.2   471  PHE471      0.2264
    216  O         45.5040  129.5070   57.4590 O.2   471  PHE471     -0.2867
    217  CB        47.4800  128.2210   55.8100 C.3   471  PHE471      0.0534
    218  CG        47.5760  127.7420   54.3820 C.ar  471  PHE471     -0.0203
    219  CD1       46.4090  127.4460   53.6500 C.ar  471  PHE471     -0.0042
    220  CD2       48.8080  127.5020   53.7580 C.ar  471  PHE471     -0.0042
    221  CE1       46.5090  127.0010   52.3360 C.ar  471  PHE471     -0.0003
    222  CE2       48.8450  127.0430   52.4710 C.ar  471  PHE471     -0.0003
    223  CZ        47.7190  126.8170   51.7680 C.ar  471  PHE471     -0.0000
@<TRIPOS>BOND
     1   153   154    1
     2    99   100    1
     3   154   155    1
     4   154   157    1
     5    62    61    1
     6   155   156    2
     7    97    96    1
     8   103   100    1
     9   103   104    1
    10   158   157    1
    11   158   160    1
    12   100   101    1
    13   157   159    1
    14   105   104   ar
    15   105   107   ar
    16    61    59   ar
    17    61    60   ar
    18   147   146    2
    19   104   106   ar
    20    96    98    1
    21    96    95    2
    22    59    57   ar
    23    94    95    1
    24    94    93    1
    25   130   128   ar
    26   130   132   ar
    27   128   127   ar
    28   101   102    2
    29    92    93    1
    30    92    89    1
    31   107   109   ar
    32    60    58   ar
    33   146   145    1
    34   106   108   ar
    35    91    90    2
    36    90    89    1
    37   124   125    2
    38   124   123    1
    39   132   131   ar
    40    57    56   ar
    41   133   134    1
    42   127   126    1
    43   127   129   ar
    44   126   123    1
    45   109   108   ar
    46    89    88    1
    47   144   145    1
    48   144   135   am
    49    78    77    1
    50    58    56   ar
    51   145   148    1
    52   123   122    1
    53   131   129   ar
    54   137   134    1
    55   137   138    1
    56    69    70    1
    57    56    55    1
    58   134   135    1
    59    70    71    1
    60    70    73    1
    61   148   149    1
    62    72    71    2
    63   135   136    2
    64    74    73    1
    65    74    75    1
    66    77    79    1
    67    77    76    2
    68   149   150    1
    69   152   150   ar
    70   140   138   ar
    71   140   142   ar
    72   138   139   ar
    73   122   112   am
    74    54    53    2
    75    55    52    1
    76    75    76    1
    77   211   212    1
    78   211   210    1
    79   150   151   ar
    80   142   143   ar
    81    53    52    1
    82    53    63   am
    83   113   112    2
    84   112   111    1
    85   139   141   ar
    86    52    51    1
    87    66    65    2
    88    83    82    2
    89   210   209    1
    90    86    84    1
    91    64    65    1
    92    64    63    1
    93    64    67    1
    94    85    84    1
    95    85    87    1
    96   143   141   ar
    97   111   114    1
    98   111   110    1
    99    82    81    1
   100   114   115    1
   101    84    81    1
   102   209   208    1
   103    68    67    1
   104    81    80    1
   105   115   117   ar
   106   115   116   ar
   107   208   205    1
   108   205   204    1
   109   205   206    1
   110   117   119   ar
   111   196   195    2
   112    50    48   am
   113   116   118   ar
   114    45    44    2
   115   206   207    2
   116   195   194    1
   117    44    43    1
   118   223   221   ar
   119   223   222   ar
   120   119   120   ar
   121    48    49    2
   122    48    47    1
   123    46    43    1
   124    46    47    1
   125    33    31   ar
   126    33    32   ar
   127   192   190   ar
   128   118   120   ar
   129   221   219   ar
   130    43    42    1
   131   222   220   ar
   132    31    29   ar
   133   189   190    1
   134   189   188    1
   135   120   121    1
   136    32    30   ar
   137   197   194    1
   138   197   198    1
   139   194   193    1
   140   190   191   ar
   141   187   186    2
   142    29    28   ar
   143    29    27   ar
   144    30    27   ar
   145   219   218   ar
   146   193   186   am
   147   220   218   ar
   148   186   185    1
   149   188   185    1
   150    28    26   ar
   151    42    36   am
   152    27    25   ar
   153    37    36    2
   154   198   200   ar
   155   198   199   ar
   156   164   163    2
   157   218   217    1
   158    36    35    1
   159   185   184    1
   160   200   202   ar
   161    26    25   ar
   162   199   201   ar
   163    25    24    1
   164   168   167   ar
   165    41    39   am
   166   163   162    1
   167    24    21    1
   168   165   162    1
   169   165   166    2
   170   217   214    1
   171   202   203   ar
   172   201   203   ar
   173   167   169   ar
   174   167   166    1
   175    39    40    2
   176    39    38    1
   177   214   213    1
   178   214   215    1
   179    35    38    1
   180    35    34    1
   181   176   178   ar
   182   176   175   ar
   183   162   161    1
   184    23    22    2
   185   178   179   ar
   186    21    22    1
   187    21    20    1
   188   174   175    1
   189   174   171    1
   190   175   177   ar
   191     9     7   am
   192   173   172    2
   193    19    17   ar
   194    19    18   ar
   195   215   216    2
   196   179   177   ar
   197   179   181   ar
   198   177   180   ar
   199    20    12   am
   200    17    15   ar
   201     7     8    2
   202     7     6    1
   203   172   171    1
   204   171   170    1
   205    18    16   ar
   206   181   183   ar
   207    12    13    2
   208    12    11    1
   209   180   182   ar
   210     6     5    1
   211    15    16   ar
   212    15    14    1
   213   183   182   ar
   214    11    14    1
   215    11    10    1
   216     5     2    1
   217     2     1    1
   218     2     3    1
   219     4     3    2
