@<TRIPOS>MOLECULE
tmp/2wxfA00.pdb
 179 174 0 0 0
SMALL
GASTEIGER

@<TRIPOS>ATOM
      1  N         -1.6840   -7.5980    8.1220 N.3   512  LYS512     -0.1245
      2  CA        -1.4850   -6.4740    9.0250 C.3   512  LYS512      0.1561
      3  C         -0.0780   -5.8720    8.9270 C.2   512  LYS512      0.2260
      4  O          0.0430   -4.6690    8.8330 O.2   512  LYS512     -0.2867
      5  CB        -1.8140   -6.8240   10.4880 C.3   512  LYS512      0.0271
      6  CG        -1.7870   -5.5880   11.3700 C.3   512  LYS512      0.0035
      7  CD        -1.7380   -5.8860   12.8510 C.3   512  LYS512      0.0206
      8  CE        -1.5480   -4.5730   13.6150 C.3   512  LYS512      0.1093
      9  NZ        -1.8610   -4.7300   15.0450 N.3   512  LYS512     -0.1314
     10  N          0.3150    2.3460   14.7090 N.3   554  THR554     -0.1203
     11  CA        -0.2230    1.1150   14.1720 C.3   554  THR554      0.1994
     12  C         -1.7370    1.2110   14.1050 C.2   554  THR554      0.2618
     13  O         -2.2950    2.3180   14.1790 O.2   554  THR554     -0.2717
     14  CB         0.2990   -0.1470   14.9800 C.3   554  THR554      0.1784
     15  OG1       -0.1590   -1.3270   14.3240 O.3   554  THR554     -0.2211
     16  CG2       -0.1780   -0.1390   16.4660 C.3   554  THR554      0.0376
     17  N         -2.4080    0.0770   13.9620 N.am  555  PHE555     -0.1961
     18  CA        -3.8440    0.0520   13.9850 C.3   555  PHE555      0.1771
     19  C         -4.3170   -1.2880   14.5510 C.2   555  PHE555      0.2619
     20  O         -3.5660   -2.2750   14.5330 O.2   555  PHE555     -0.2715
     21  CB        -4.4490    0.2690   12.5710 C.3   555  PHE555      0.0574
     22  CG        -4.2440   -0.8860   11.6330 C.ar  555  PHE555     -0.0200
     23  CD1       -5.2580   -1.8100   11.4170 C.ar  555  PHE555     -0.0042
     24  CD2       -3.0320   -1.0500   10.9460 C.ar  555  PHE555     -0.0042
     25  CE1       -5.0700   -2.9010   10.5320 C.ar  555  PHE555     -0.0003
     26  CE2       -2.8370   -2.1450   10.0790 C.ar  555  PHE555     -0.0003
     27  CZ        -3.8580   -3.0580    9.8700 C.ar  555  PHE555     -0.0000
     28  N         -5.5490   -1.3050   15.0620 N.am  556  MET556     -0.1977
     29  CA        -6.1900   -2.5520   15.5050 C.3   556  MET556      0.1605
     30  C         -6.8590   -3.2200   14.3140 C.2   556  MET556      0.2287
     31  O         -7.7470   -2.6530   13.6500 O.2   556  MET556     -0.2864
     32  CB        -7.2010   -2.2960   16.6330 C.3   556  MET556      0.0413
     33  CG        -7.7910   -3.5980   17.2940 C.3   556  MET556      0.0598
     34  SD        -8.6470   -3.1240   18.8490 S.3   556  MET556     -0.1393
     35  CE       -10.2910   -2.8420   18.1970 C.3   556  MET556      0.0692
     36  N         -9.3950    1.0560   14.4160 N.3   562  PRO562     -0.2102
     37  CA        -8.9000    2.3210   14.9910 C.3   562  PRO562      0.1504
     38  C         -7.3710    2.4560   14.9330 C.2   562  PRO562      0.2576
     39  O         -6.6430    1.4500   14.9700 O.2   562  PRO562     -0.2718
     40  CB        -9.4140    2.2700   16.4320 C.3   562  PRO562      0.0282
     41  CG        -9.5520    0.7660   16.7350 C.3   562  PRO562      0.0208
     42  CD       -10.0860    0.2230   15.4280 C.3   562  PRO562      0.0893
     43  N         -6.8920    3.7030   14.8790 N.am  563  LEU563     -0.1966
     44  CA        -5.4750    4.0020   14.7120 C.3   563  LEU563      0.1728
     45  C         -4.8770    4.2860   16.0640 C.2   563  LEU563      0.2616
     46  O         -5.5520    4.8270   16.9220 O.2   563  LEU563     -0.2715
     47  CB        -5.2540    5.2550   13.8190 C.3   563  LEU563      0.0311
     48  CG        -5.8630    5.2510   12.4070 C.3   563  LEU563      0.0022
     49  CD1       -5.3900    6.4700   11.6090 C.3   563  LEU563      0.0001
     50  CD2       -5.5310    3.9340   11.6310 C.3   563  LEU563      0.0001
     51  N         -3.6280    3.8680   16.2460 N.am  564  TRP564     -0.1974
     52  CA        -2.8460    4.1350   17.4660 C.3   564  TRP564      0.1640
     53  C         -1.7500    5.1020   17.0450 C.2   564  TRP564      0.2290
     54  O         -0.8820    4.7320   16.2720 O.2   564  TRP564     -0.2864
     55  CB        -2.2360    2.8100   17.8950 C.3   564  TRP564      0.0576
     56  CG        -1.3710    2.8280   19.1060 C.ar  564  TRP564      0.0006
     57  CD1       -0.0270    3.1020   19.1660 C.ar  564  TRP564      0.0946
     58  CD2       -1.7680    2.4380   20.4260 C.ar  564  TRP564      0.0152
     59  NE1        0.4250    2.9420   20.4780 N.ar  564  TRP564     -0.2442
     60  CE2       -0.6230    2.5380   21.2610 C.ar  564  TRP564      0.0810
     61  CE3       -2.9840    2.0230   20.9870 C.ar  564  TRP564      0.0012
     62  CZ2       -0.6590    2.2120   22.6340 C.ar  564  TRP564      0.0191
     63  CZ3       -3.0190    1.7230   22.3560 C.ar  564  TRP564      0.0001
     64  CH2       -1.8670    1.8240   23.1590 C.ar  564  TRP564      0.0015
     65  N         -5.7070    7.6040   20.2360 N.3   581  ILE581     -0.1245
     66  CA        -6.4050    6.6180   19.4400 C.3   581  ILE581      0.1561
     67  C         -7.4500    7.3760   18.6010 C.2   581  ILE581      0.2260
     68  O         -8.2660    8.1150   19.1550 O.2   581  ILE581     -0.2867
     69  CB        -7.0990    5.5930   20.3660 C.3   581  ILE581      0.0252
     70  CG1       -6.0360    4.6520   20.9850 C.3   581  ILE581      0.0019
     71  CG2       -8.1110    4.7650   19.5490 C.3   581  ILE581      0.0019
     72  CD1       -6.5460    3.9720   22.2890 C.3   581  ILE581      0.0001
     73  N         -9.2490    8.5140   31.5380 N.3   617  TYR617     -0.1241
     74  CA        -8.6190    8.8070   30.2520 C.3   617  TYR617      0.1605
     75  C         -9.5880    9.6420   29.3750 C.2   617  TYR617      0.2264
     76  O        -10.8180    9.4960   29.4450 O.2   617  TYR617     -0.2867
     77  CB        -8.1720    7.5200   29.5330 C.3   617  TYR617      0.0534
     78  CG        -9.2810    6.5470   29.2050 C.ar  617  TYR617     -0.0201
     79  CD1      -10.0570    6.7240   28.0600 C.ar  617  TYR617     -0.0009
     80  CD2       -9.5550    5.4290   30.0220 C.ar  617  TYR617     -0.0009
     81  CE1      -11.0790    5.8360   27.7240 C.ar  617  TYR617      0.0417
     82  CE2      -10.5930    4.5310   29.6940 C.ar  617  TYR617      0.0417
     83  CZ       -11.3380    4.7300   28.5380 C.ar  617  TYR617      0.1957
     84  OH       -12.3620    3.8760   28.1820 O.3   617  TYR617     -0.2866
     85  N         -9.4530    9.0090   21.5960 N.3   629  ILE629     -0.1231
     86  CA        -9.3530    8.4290   22.9360 C.3   629  ILE629      0.1692
     87  C         -7.8840    8.5140   23.3750 C.2   629  ILE629      0.2592
     88  O         -6.9730    8.2810   22.5650 O.2   629  ILE629     -0.2718
     89  CB        -9.7850    6.9460   22.9160 C.3   629  ILE629      0.0266
     90  CG1      -11.2710    6.8950   22.5700 C.3   629  ILE629      0.0019
     91  CG2       -9.5450    6.2510   24.2780 C.3   629  ILE629      0.0020
     92  CD1      -11.6660    5.6010   21.8910 C.3   629  ILE629      0.0001
     93  N         -7.6650    8.9090   24.6180 N.am  630  GLU630     -0.1966
     94  CA        -6.3040    9.0470   25.1360 C.3   630  GLU630      0.1733
     95  C         -5.6560    7.6930   25.4330 C.2   630  GLU630      0.2616
     96  O         -6.2330    6.8730   26.1400 O.2   630  GLU630     -0.2715
     97  CB        -6.3230    9.8960   26.4240 C.3   630  GLU630      0.0429
     98  CG        -4.9750   10.0310   27.0700 C.3   630  GLU630      0.1163
     99  CD        -5.0360   10.7470   28.4250 C.2   630  GLU630      0.3649
    100  OE1       -6.1460   10.9240   28.9720 O.co2 630  GLU630     -0.2457
    101  OE2       -3.9580   11.1540   28.9090 O.co2 630  GLU630     -0.2457
    102  N         -4.4720    7.4700   24.8730 N.am  631  VAL631     -0.1963
    103  CA        -3.6870    6.2560   25.1230 C.3   631  VAL631      0.1727
    104  C         -3.2330    6.2050   26.5860 C.2   631  VAL631      0.2616
    105  O         -2.7310    7.1870   27.1260 O.2   631  VAL631     -0.2715
    106  CB        -2.4660    6.1340   24.1700 C.3   631  VAL631      0.0290
    107  CG1       -1.4520    5.0420   24.6790 C.3   631  VAL631      0.0023
    108  CG2       -2.9260    5.7510   22.7130 C.3   631  VAL631      0.0023
    109  N         -3.4330    5.0420   27.2030 N.am  632  VAL632     -0.1977
    110  CA        -2.8480    4.7560   28.5010 C.3   632  VAL632      0.1596
    111  C         -1.7150    3.7720   28.2300 C.2   632  VAL632      0.2287
    112  O         -1.9490    2.6160   27.8370 O.2   632  VAL632     -0.2864
    113  CB        -3.9090    4.1960   29.4880 C.3   632  VAL632      0.0276
    114  CG1       -3.2440    3.8110   30.8100 C.3   632  VAL632      0.0022
    115  CG2       -4.9880    5.2870   29.7690 C.3   632  VAL632      0.0022
    116  N         -0.1840   -0.5960   29.7240 N.3   635  SER635     -0.1202
    117  CA        -1.3730   -1.3320   30.1530 C.3   635  SER635      0.2020
    118  C         -1.6820   -2.4260   29.1790 C.2   635  SER635      0.2619
    119  O         -1.2380   -2.4030   28.0300 O.2   635  SER635     -0.2717
    120  CB        -2.6050   -0.3690   30.3290 C.3   635  SER635      0.2103
    121  OG        -2.9470    0.2430   29.0830 O.3   635  SER635     -0.2182
    122  N         -2.4370   -3.4200   29.6290 N.am  636  ASP636     -0.1959
    123  CA        -2.8230   -4.5030   28.7310 C.3   636  ASP636      0.1840
    124  C         -4.2370   -4.9350   29.0980 C.2   636  ASP636      0.2622
    125  O         -4.6960   -4.6180   30.1870 O.2   636  ASP636     -0.2715
    126  CB        -1.8650   -5.6990   28.9100 C.3   636  ASP636      0.1450
    127  CG        -1.8440   -6.6110   27.6950 C.2   636  ASP636      0.3671
    128  OD1       -2.6210   -6.3820   26.7590 O.co2 636  ASP636     -0.2456
    129  OD2       -1.0630   -7.5780   27.6760 O.co2 636  ASP636     -0.2456
    130  N         -4.9260   -5.6480   28.2060 N.am  637  THR637     -0.1951
    131  CA        -6.2360   -6.1910   28.5810 C.3   637  THR637      0.1897
    132  C         -6.0520   -7.4020   29.5060 C.2   637  THR637      0.2313
    133  O         -5.0330   -8.1270   29.4560 O.2   637  THR637     -0.2863
    134  CB        -7.0620   -6.6330   27.3720 C.3   637  THR637      0.1794
    135  OG1       -6.3290   -7.6280   26.6380 O.3   637  THR637     -0.2208
    136  CG2       -7.3490   -5.4000   26.4660 C.3   637  THR637      0.0378
    137  N         -5.7760  -10.5820   27.3190 N.3   640  ASN640     -0.1240
    138  CA        -4.4200  -10.8840   26.8170 C.3   640  ASN640      0.1653
    139  C         -3.5210  -11.5170   27.8680 C.2   640  ASN640      0.2266
    140  O         -2.7730  -12.4330   27.5810 O.2   640  ASN640     -0.2867
    141  CB        -3.7560   -9.6040   26.3170 C.3   640  ASN640      0.1155
    142  CG        -3.8930   -9.4290   24.8240 C.2   640  ASN640      0.2627
    143  OD1       -4.2190  -10.3770   24.1100 O.2   640  ASN640     -0.2716
    144  ND2       -3.5740   -8.2260   24.3340 N.am  640  ASN640     -0.0877
    145  N         -8.8880   -3.3630   31.3290 N.3   704  MET704     -0.1245
    146  CA        -7.4500   -3.2290   31.1520 C.3   704  MET704      0.1570
    147  C         -6.7850   -3.0690   32.5080 C.2   704  MET704      0.2261
    148  O         -7.4240   -2.6980   33.4800 O.2   704  MET704     -0.2867
    149  CB        -7.1200   -2.0230   30.2420 C.3   704  MET704      0.0387
    150  CG        -7.5980   -2.3060   28.8080 C.3   704  MET704      0.0595
    151  SD        -6.8850   -1.1690   27.6280 S.3   704  MET704     -0.1393
    152  CE        -5.2570   -1.9490   27.3950 C.3   704  MET704      0.0692
    153  N         -8.8660   -0.4320   34.7590 N.3   712  PHE712     -0.1241
    154  CA        -9.8500    0.5030   34.1930 C.3   712  PHE712      0.1605
    155  C        -10.6500   -0.1390   33.0620 C.2   712  PHE712      0.2264
    156  O        -10.2850   -1.2060   32.5190 O.2   712  PHE712     -0.2867
    157  CB        -9.1850    1.8350   33.7610 C.3   712  PHE712      0.0534
    158  CG        -8.2230    1.7030   32.6090 C.ar  712  PHE712     -0.0203
    159  CD1       -8.6830    1.8720   31.2940 C.ar  712  PHE712     -0.0042
    160  CD2       -6.8580    1.4400   32.8360 C.ar  712  PHE712     -0.0042
    161  CE1       -7.7910    1.7490   30.1970 C.ar  712  PHE712     -0.0003
    162  CE2       -5.9530    1.3220   31.7550 C.ar  712  PHE712     -0.0003
    163  CZ        -6.4330    1.4900   30.4300 C.ar  712  PHE712     -0.0000
    164  N        -12.9510   -0.1870   29.3340 N.3   714  ILE714     -0.1231
    165  CA       -13.0400    0.3170   27.9800 C.3   714  ILE714      0.1692
    166  C        -14.3080   -0.2030   27.3120 C.2   714  ILE714      0.2592
    167  O        -15.0020   -1.0720   27.8480 O.2   714  ILE714     -0.2718
    168  CB       -11.7740   -0.0750   27.1240 C.3   714  ILE714      0.0266
    169  CG1      -11.6610   -1.5970   27.0170 C.3   714  ILE714      0.0019
    170  CG2      -10.4900    0.5420   27.7210 C.3   714  ILE714      0.0020
    171  CD1      -10.6410   -2.1050   25.9640 C.3   714  ILE714      0.0001
    172  N        -14.6140    0.3430   26.1420 N.am  715  ASP715     -0.1974
    173  CA       -15.6850   -0.1780   25.3070 C.3   715  ASP715      0.1709
    174  C        -17.0050   -0.2990   26.0440 C.2   715  ASP715      0.2293
    175  O        -17.6270   -1.3700   26.1140 O.2   715  ASP715     -0.2864
    176  CB       -15.2350   -1.4760   24.6400 C.3   715  ASP715      0.1436
    177  CG       -14.0750   -1.2370   23.6880 C.2   715  ASP715      0.3671
    178  OD1      -14.0080   -0.1180   23.1460 O.co2 715  ASP715     -0.2456
    179  OD2      -13.2370   -2.1270   23.4910 O.co2 715  ASP715     -0.2456
@<TRIPOS>BOND
     1     1     2    1
     2     4     3    2
     3     3     2    1
     4     2     5    1
     5    27    26   ar
     6    27    25   ar
     7    26    24   ar
     8     5     6    1
     9    25    23   ar
    10    24    22   ar
    11     6     7    1
    12    23    22   ar
    13    49    48    1
    14    50    48    1
    15    22    21    1
    16    48    47    1
    17    21    18    1
    18     7     8    1
    19     8     9    1
    20    31    30    2
    21    47    44    1
    22    17    18    1
    23    17    12   am
    24    18    19    1
    25    12    11    1
    26    12    13    2
    27    11    10    1
    28    11    14    1
    29    30    29    1
    30    15    14    1
    31    36    37    1
    32    36    42    1
    33    20    19    2
    34    19    28   am
    35    44    43    1
    36    44    45    1
    37    43    38   am
    38    38    39    2
    39    38    37    1
    40    14    16    1
    41    37    40    1
    42    28    29    1
    43    42    41    1
    44    29    32    1
    45    45    51   am
    46    45    46    2
    47    51    52    1
    48    54    53    2
    49    40    41    1
    50    32    33    1
    51    53    52    1
    52    33    34    1
    53    52    55    1
    54    55    56    1
    55    35    34    1
    56    67    68    2
    57    67    66    1
    58    56    57   ar
    59    56    58   ar
    60    57    59   ar
    61    66    65    1
    62    66    69    1
    63    71    69    1
    64    69    70    1
    65    58    61   ar
    66    58    60   ar
    67    59    60   ar
    68    70    72    1
    69    61    63   ar
    70    60    62   ar
    71    85    86    1
    72    92    90    1
    73    63    64   ar
    74    88    87    2
    75    90    89    1
    76    62    64   ar
    77   108   106    1
    78    89    86    1
    79    89    91    1
    80    86    87    1
    81   178   177   ar
    82    87    93   am
    83   179   177   ar
    84   177   176    1
    85   143   142    2
    86   106   107    1
    87   106   103    1
    88   144   142   am
    89    93    94    1
    90   176   173    1
    91   142   141    1
    92   102   103    1
    93   102    95   am
    94   103   104    1
    95    94    95    1
    96    94    97    1
    97   173   174    1
    98   173   172    1
    99    95    96    2
   100   171   169    1
   101   174   175    2
   102   172   166   am
   103   141   138    1
   104    97    98    1
   105   136   134    1
   106   104   105    2
   107   104   109   am
   108   135   134    1
   109   128   127   ar
   110   138   137    1
   111   138   139    1
   112   169   168    1
   113    98    99    1
   114   168   170    1
   115   168   165    1
   116   109   110    1
   117   166   167    2
   118   166   165    1
   119   134   131    1
   120   152   151    1
   121   140   139    2
   122   151   150    1
   123   129   127   ar
   124   127   126    1
   125    81    79   ar
   126    81    83   ar
   127   112   111    2
   128   165   164    1
   129   119   118    2
   130    79    78   ar
   131    84    83    1
   132   130   131    1
   133   130   124   am
   134   111   110    1
   135    99   101   ar
   136    99   100   ar
   137   110   113    1
   138    83    82   ar
   139   131   132    1
   140   123   126    1
   141   123   124    1
   142   123   122    1
   143   150   149    1
   144   121   120    1
   145   124   125    2
   146   118   122   am
   147   118   117    1
   148    78    77    1
   149    78    80   ar
   150    75    76    2
   151    75    74    1
   152   133   132    2
   153   113   115    1
   154   113   114    1
   155    77    74    1
   156    82    80   ar
   157   116   117    1
   158   117   120    1
   159   161   163   ar
   160   161   159   ar
   161   149   146    1
   162    74    73    1
   163   163   162   ar
   164   146   145    1
   165   146   147    1
   166   159   158   ar
   167   162   160   ar
   168   147   148    2
   169   156   155    2
   170   158   160   ar
   171   158   157    1
   172   155   154    1
   173   157   154    1
   174   154   153    1
