@<TRIPOS>MOLECULE
tmp/2wxgA00.pdb
 212 203 0 0 0
SMALL
GASTEIGER

@<TRIPOS>ATOM
      1  N          1.5880  -40.2400   -8.2680 N.3   521  LYS521     -0.1245
      2  CA         1.3960  -39.0720   -9.1370 C.3   521  LYS521      0.1561
      3  C         -0.0150  -38.4890   -8.9970 C.2   521  LYS521      0.2260
      4  O         -0.1500  -37.2850   -8.7840 O.2   521  LYS521     -0.2867
      5  CB         1.7270  -39.3670  -10.6100 C.3   521  LYS521      0.0271
      6  CG         1.1870  -38.2920  -11.5590 C.3   521  LYS521      0.0035
      7  CD         1.7000  -38.4090  -12.9770 C.3   521  LYS521      0.0206
      8  CE         1.3600  -37.1430  -13.7670 C.3   521  LYS521      0.1093
      9  NZ         1.6950  -37.3130  -15.2030 N.3   521  LYS521     -0.1314
     10  N         -0.3850  -30.2710  -14.6830 N.3   563  THR563     -0.1203
     11  CA         0.1840  -31.4970  -14.1700 C.3   563  THR563      0.1994
     12  C          1.6900  -31.4070  -14.1230 C.2   563  THR563      0.2618
     13  O          2.2270  -30.3100  -14.2030 O.2   563  THR563     -0.2717
     14  CB        -0.3160  -32.7590  -14.9850 C.3   563  THR563      0.1784
     15  OG1        0.1080  -33.9420  -14.2990 O.3   563  THR563     -0.2211
     16  CG2        0.2390  -32.7430  -16.4080 C.3   563  THR563      0.0376
     17  N          2.3760  -32.5430  -13.9920 N.am  564  PHE564     -0.1961
     18  CA         3.8240  -32.5500  -13.9950 C.3   564  PHE564      0.1771
     19  C          4.3290  -33.8710  -14.5660 C.2   564  PHE564      0.2619
     20  O          3.5850  -34.8490  -14.6090 O.2   564  PHE564     -0.2715
     21  CB         4.4050  -32.3130  -12.5780 C.3   564  PHE564      0.0574
     22  CG         4.2030  -33.4740  -11.6360 C.ar  564  PHE564     -0.0200
     23  CD1        5.2650  -34.3230  -11.3440 C.ar  564  PHE564     -0.0042
     24  CD2        2.9470  -33.7440  -11.0770 C.ar  564  PHE564     -0.0042
     25  CE1        5.0920  -35.4360  -10.4740 C.ar  564  PHE564     -0.0003
     26  CE2        2.7650  -34.8590  -10.2060 C.ar  564  PHE564     -0.0003
     27  CZ         3.8400  -35.6950   -9.9130 C.ar  564  PHE564     -0.0000
     28  N          5.5700  -33.8780  -15.0400 N.am  565  MET565     -0.1977
     29  CA         6.1760  -35.0850  -15.5520 C.3   565  MET565      0.1605
     30  C          6.8840  -35.7560  -14.3790 C.2   565  MET565      0.2287
     31  O          7.7820  -35.1590  -13.7260 O.2   565  MET565     -0.2864
     32  CB         7.1670  -34.7770  -16.6880 C.3   565  MET565      0.0413
     33  CG         7.9370  -36.0170  -17.1710 C.3   565  MET565      0.0598
     34  SD         8.9740  -35.7520  -18.6400 S.3   565  MET565     -0.1393
     35  CE         7.7100  -35.5760  -19.8850 C.3   565  MET565      0.0692
     36  N          9.3790  -31.4640  -14.4400 N.3   571  PRO571     -0.2102
     37  CA         8.8580  -30.1920  -14.9270 C.3   571  PRO571      0.1504
     38  C          7.3310  -30.1000  -14.8760 C.2   571  PRO571      0.2576
     39  O          6.6220  -31.1180  -14.9630 O.2   571  PRO571     -0.2718
     40  CB         9.3690  -30.1290  -16.3850 C.3   571  PRO571      0.0282
     41  CG         9.5410  -31.5890  -16.8100 C.3   571  PRO571      0.0208
     42  CD        10.0560  -32.2400  -15.5110 C.3   571  PRO571      0.0893
     43  N          6.8330  -28.8720  -14.7740 N.am  572  LEU572     -0.1966
     44  CA         5.3900  -28.6010  -14.7080 C.3   572  LEU572      0.1728
     45  C          4.7720  -28.3000  -16.0700 C.2   572  LEU572      0.2616
     46  O          5.3810  -27.6560  -16.9080 O.2   572  LEU572     -0.2715
     47  CB         5.1090  -27.3870  -13.7800 C.3   572  LEU572      0.0311
     48  CG         5.7660  -27.4390  -12.3930 C.3   572  LEU572      0.0022
     49  CD1        5.4370  -26.1650  -11.5390 C.3   572  LEU572      0.0001
     50  CD2        5.3460  -28.7130  -11.6120 C.3   572  LEU572      0.0001
     51  N          3.5080  -28.7150  -16.2290 N.am  573  TRP573     -0.1974
     52  CA         2.7360  -28.4690  -17.4220 C.3   573  TRP573      0.1640
     53  C          1.6030  -27.5550  -16.9900 C.2   573  TRP573      0.2290
     54  O          0.7690  -27.9530  -16.1980 O.2   573  TRP573     -0.2864
     55  CB         2.2110  -29.8190  -17.9280 C.3   573  TRP573      0.0576
     56  CG         1.3980  -29.8410  -19.1540 C.ar  573  TRP573      0.0006
     57  CD1        0.0380  -29.6580  -19.2570 C.ar  573  TRP573      0.0946
     58  CD2        1.8580  -30.1840  -20.4750 C.ar  573  TRP573      0.0152
     59  NE1       -0.3650  -29.8390  -20.5750 N.ar  573  TRP573     -0.2442
     60  CE2        0.7260  -30.1610  -21.3360 C.ar  573  TRP573      0.0810
     61  CE3        3.1170  -30.4920  -21.0170 C.ar  573  TRP573      0.0012
     62  CZ2        0.8110  -30.4600  -22.7170 C.ar  573  TRP573      0.0191
     63  CZ3        3.1930  -30.7640  -22.4200 C.ar  573  TRP573      0.0001
     64  CH2        2.0530  -30.7230  -23.2280 C.ar  573  TRP573      0.0015
     65  N          5.6710  -24.8920  -20.2010 N.3   590  ILE590     -0.1245
     66  CA         6.3720  -25.8360  -19.3700 C.3   590  ILE590      0.1561
     67  C          7.3790  -25.0690  -18.5080 C.2   590  ILE590      0.2260
     68  O          8.1730  -24.3160  -19.0330 O.2   590  ILE590     -0.2867
     69  CB         7.1120  -26.8960  -20.2380 C.3   590  ILE590      0.0252
     70  CG1        6.0750  -27.8620  -20.8800 C.3   590  ILE590      0.0019
     71  CG2        8.1140  -27.7090  -19.3480 C.3   590  ILE590      0.0019
     72  CD1        6.6650  -28.6260  -22.0950 C.3   590  ILE590      0.0001
     73  N         10.5590  -25.5930  -16.0230 N.3   592  LYS592     -0.1245
     74  CA        11.5220  -26.6190  -15.6210 C.3   592  LYS592      0.1561
     75  C         12.6160  -25.9370  -14.8270 C.2   592  LYS592      0.2260
     76  O         13.1300  -24.8810  -15.2340 O.2   592  LYS592     -0.2867
     77  CB        12.1330  -27.3420  -16.8390 C.3   592  LYS592      0.0271
     78  CG        13.0390  -28.5550  -16.4610 C.3   592  LYS592      0.0035
     79  CD        13.4290  -29.5080  -17.6450 C.3   592  LYS592      0.0206
     80  CE        14.0910  -28.7730  -18.7820 C.3   592  LYS592      0.1093
     81  NZ        14.8450  -29.6980  -19.6620 N.3   592  LYS592     -0.1314
     82  N         18.9550  -24.2390  -19.6580 N.3   597  LEU597     -0.1245
     83  CA        18.1160  -24.2610  -20.8620 C.3   597  LEU597      0.1561
     84  C         18.7620  -23.5760  -22.0710 C.2   597  LEU597      0.2260
     85  O         18.1500  -23.4950  -23.1350 O.2   597  LEU597     -0.2867
     86  CB        16.7680  -23.5870  -20.5860 C.3   597  LEU597      0.0270
     87  CG        15.7450  -24.4660  -19.8550 C.3   597  LEU597      0.0019
     88  CD1       14.5120  -23.6280  -19.6590 C.3   597  LEU597      0.0001
     89  CD2       15.3900  -25.7220  -20.6510 C.3   597  LEU597      0.0001
     90  N         19.2450  -25.7150  -25.3680 N.3   600  ASP600     -0.1239
     91  CA        17.9350  -25.9800  -25.9820 C.3   600  ASP600      0.1674
     92  C         17.4970  -24.7250  -26.7380 C.2   600  ASP600      0.2266
     93  O         17.1700  -24.8060  -27.9230 O.2   600  ASP600     -0.2867
     94  CB        16.9060  -26.3360  -24.9010 C.3   600  ASP600      0.1410
     95  CG        15.7320  -27.1420  -25.4230 C.2   600  ASP600      0.3668
     96  OD1       15.8390  -27.8040  -26.4950 O.co2 600  ASP600     -0.2456
     97  OD2       14.6780  -27.1240  -24.7350 O.co2 600  ASP600     -0.2456
     98  N          9.3910  -24.0310  -31.6390 N.3   626  TYR626     -0.1241
     99  CA         8.6230  -23.5230  -30.4930 C.3   626  TYR626      0.1605
    100  C          9.5560  -22.7080  -29.5450 C.2   626  TYR626      0.2264
    101  O         10.7890  -22.8380  -29.5610 O.2   626  TYR626     -0.2867
    102  CB         7.9250  -24.6940  -29.7450 C.3   626  TYR626      0.0534
    103  CG         8.9520  -25.7230  -29.2910 C.ar  626  TYR626     -0.0201
    104  CD1        9.6170  -25.5750  -28.0630 C.ar  626  TYR626     -0.0009
    105  CD2        9.2440  -26.8630  -30.0710 C.ar  626  TYR626     -0.0009
    106  CE1       10.6050  -26.4910  -27.6440 C.ar  626  TYR626      0.0417
    107  CE2       10.2300  -27.8130  -29.6440 C.ar  626  TYR626      0.0417
    108  CZ        10.8970  -27.6120  -28.4400 C.ar  626  TYR626      0.1957
    109  OH        11.8860  -28.4750  -28.0040 O.3   626  TYR626     -0.2866
    110  N          9.2820  -23.3260  -21.3900 N.3   638  ILE638     -0.1231
    111  CA         9.2850  -23.8970  -22.7460 C.3   638  ILE638      0.1692
    112  C          7.8210  -23.8500  -23.2590 C.2   638  ILE638      0.2592
    113  O          6.8850  -24.0710  -22.4930 O.2   638  ILE638     -0.2718
    114  CB         9.8310  -25.3660  -22.7940 C.3   638  ILE638      0.0266
    115  CG1       11.2330  -25.4990  -22.1430 C.3   638  ILE638      0.0019
    116  CG2        9.9160  -25.8590  -24.2830 C.3   638  ILE638      0.0020
    117  CD1       11.2080  -25.8670  -20.6960 C.3   638  ILE638      0.0001
    118  N          7.6340  -23.4490  -24.5100 N.am  639  GLU639     -0.1966
    119  CA         6.2940  -23.3440  -25.1080 C.3   639  GLU639      0.1733
    120  C          5.7410  -24.7290  -25.4060 C.2   639  GLU639      0.2616
    121  O          6.4220  -25.5790  -26.0130 O.2   639  GLU639     -0.2715
    122  CB         6.3140  -22.4720  -26.3990 C.3   639  GLU639      0.0429
    123  CG         4.9970  -22.5460  -27.1840 C.3   639  GLU639      0.1163
    124  CD         5.0910  -21.7980  -28.5180 C.2   639  GLU639      0.3649
    125  OE1        6.2090  -21.5160  -28.9720 O.co2 639  GLU639     -0.2457
    126  OE2        4.0340  -21.4750  -29.0660 O.co2 639  GLU639     -0.2457
    127  N          4.5120  -24.9690  -24.9500 N.am  640  VAL640     -0.1963
    128  CA         3.9020  -26.2630  -25.1940 C.3   640  VAL640      0.1727
    129  C          3.3730  -26.3120  -26.6290 C.2   640  VAL640      0.2616
    130  O          2.6790  -25.3820  -27.0790 O.2   640  VAL640     -0.2715
    131  CB         2.7390  -26.5460  -24.2190 C.3   640  VAL640      0.0290
    132  CG1        1.8440  -27.7270  -24.7420 C.3   640  VAL640      0.0023
    133  CG2        3.2850  -26.8080  -22.7860 C.3   640  VAL640      0.0023
    134  N          3.7440  -27.3700  -27.3460 N.am  641  VAL641     -0.1977
    135  CA         3.1370  -27.6290  -28.6430 C.3   641  VAL641      0.1596
    136  C          1.9500  -28.5730  -28.3620 C.2   641  VAL641      0.2287
    137  O          2.1310  -29.7430  -28.0120 O.2   641  VAL641     -0.2864
    138  CB         4.1440  -28.2690  -29.6410 C.3   641  VAL641      0.0276
    139  CG1        3.4810  -28.5210  -31.0430 C.3   641  VAL641      0.0022
    140  CG2        5.4050  -27.4030  -29.7820 C.3   641  VAL641      0.0022
    141  N          0.0190  -32.9110  -29.8540 N.3   644  SER644     -0.1202
    142  CA         1.2050  -33.6180  -30.3330 C.3   644  SER644      0.2020
    143  C          1.4720  -34.7310  -29.3580 C.2   644  SER644      0.2619
    144  O          1.0660  -34.6470  -28.2100 O.2   644  SER644     -0.2717
    145  CB         2.4320  -32.6670  -30.5190 C.3   644  SER644      0.2103
    146  OG         2.7840  -32.0330  -29.2990 O.3   644  SER644     -0.2182
    147  N          2.1280  -35.7910  -29.8070 N.am  645  ASP645     -0.1959
    148  CA         2.4720  -36.8940  -28.8840 C.3   645  ASP645      0.1840
    149  C          3.8920  -37.3090  -29.2290 C.2   645  ASP645      0.2622
    150  O          4.3940  -36.9520  -30.3070 O.2   645  ASP645     -0.2715
    151  CB         1.4590  -38.0520  -29.0570 C.3   645  ASP645      0.1450
    152  CG         1.3660  -38.9680  -27.8340 C.2   645  ASP645      0.3671
    153  OD1        2.1850  -38.8730  -26.9160 O.co2 645  ASP645     -0.2456
    154  OD2        0.4860  -39.8460  -27.8210 O.co2 645  ASP645     -0.2456
    155  N          4.5630  -38.0260  -28.3370 N.am  646  THR646     -0.1951
    156  CA         5.8880  -38.5500  -28.6740 C.3   646  THR646      0.1897
    157  C          5.7790  -39.7850  -29.5220 C.2   646  THR646      0.2313
    158  O          4.8020  -40.5480  -29.4380 O.2   646  THR646     -0.2863
    159  CB         6.7030  -38.9490  -27.4140 C.3   646  THR646      0.1794
    160  OG1        5.9170  -39.8660  -26.6340 O.3   646  THR646     -0.2208
    161  CG2        7.0520  -37.6830  -26.6040 C.3   646  THR646      0.0378
    162  N          5.4400  -42.8290  -27.2670 N.3   649  ASN649     -0.1240
    163  CA         4.0630  -43.0790  -26.8610 C.3   649  ASN649      0.1653
    164  C          3.2450  -43.7620  -27.9520 C.2   649  ASN649      0.2266
    165  O          2.6030  -44.7710  -27.6840 O.2   649  ASN649     -0.2867
    166  CB         3.3840  -41.7710  -26.4250 C.3   649  ASN649      0.1155
    167  CG         2.3180  -41.9930  -25.3890 C.2   649  ASN649      0.2627
    168  OD1        2.5480  -42.6930  -24.3820 O.2   649  ASN649     -0.2716
    169  ND2        1.1120  -41.4390  -25.6400 N.am  649  ASN649     -0.0877
    170  N         11.5350  -40.7300  -27.3570 N.3   710  ASP710     -0.1239
    171  CA        10.8910  -39.8550  -26.4230 C.3   710  ASP710      0.1674
    172  C         11.2610  -38.3680  -26.6230 C.2   710  ASP710      0.2266
    173  O         10.6670  -37.4950  -25.9910 O.2   710  ASP710     -0.2867
    174  CB        11.1730  -40.2940  -24.9840 C.3   710  ASP710      0.1410
    175  CG        12.6020  -40.0470  -24.5650 C.2   710  ASP710      0.3668
    176  OD1       13.5320  -40.2140  -25.3810 O.co2 710  ASP710     -0.2456
    177  OD2       12.7890  -39.7070  -23.3860 O.co2 710  ASP710     -0.2456
    178  N          8.5590  -35.8060  -31.5210 N.3   713  MET713     -0.1245
    179  CA         7.1130  -35.7530  -31.3800 C.3   713  MET713      0.1570
    180  C          6.4530  -35.5600  -32.7400 C.2   713  MET713      0.2261
    181  O          7.0960  -35.2000  -33.7260 O.2   713  MET713     -0.2867
    182  CB         6.6920  -34.5990  -30.4350 C.3   713  MET713      0.0387
    183  CG         7.2390  -34.7340  -29.0210 C.3   713  MET713      0.0595
    184  SD         6.5640  -33.5370  -27.8440 S.3   713  MET713     -0.1393
    185  CE         4.9180  -34.1980  -27.5350 C.3   713  MET713      0.0692
    186  N          8.4970  -33.1640  -35.1860 N.3   721  PHE721     -0.1241
    187  CA         9.4820  -32.1790  -34.6930 C.3   721  PHE721      0.1605
    188  C         10.3220  -32.7450  -33.5360 C.2   721  PHE721      0.2264
    189  O          9.8500  -33.5940  -32.7540 O.2   721  PHE721     -0.2867
    190  CB         8.8150  -30.8240  -34.3300 C.3   721  PHE721      0.0534
    191  CG         7.8360  -30.9070  -33.1670 C.ar  721  PHE721     -0.0203
    192  CD1        8.2090  -30.4600  -31.8760 C.ar  721  PHE721     -0.0042
    193  CD2        6.5500  -31.4230  -33.3510 C.ar  721  PHE721     -0.0042
    194  CE1        7.2790  -30.5510  -30.7940 C.ar  721  PHE721     -0.0003
    195  CE2        5.6390  -31.5270  -32.2650 C.ar  721  PHE721     -0.0003
    196  CZ         6.0210  -31.0790  -30.9960 C.ar  721  PHE721     -0.0000
    197  N         12.4330  -32.2940  -29.9270 N.3   723  ILE723     -0.1231
    198  CA        12.3390  -31.5120  -28.6930 C.3   723  ILE723      0.1692
    199  C         13.5690  -31.7520  -27.8030 C.2   723  ILE723      0.2592
    200  O         14.3100  -32.7170  -27.9960 O.2   723  ILE723     -0.2718
    201  CB        11.0710  -31.8860  -27.8640 C.3   723  ILE723      0.0266
    202  CG1       11.0630  -33.4000  -27.5180 C.3   723  ILE723      0.0019
    203  CG2        9.7530  -31.4770  -28.6070 C.3   723  ILE723      0.0020
    204  CD1       10.2200  -33.7340  -26.2910 C.3   723  ILE723      0.0001
    205  N         13.7710  -30.8580  -26.8340 N.am  724  ASP724     -0.1974
    206  CA        14.6680  -31.0840  -25.7250 C.3   724  ASP724      0.1709
    207  C         16.0970  -31.3980  -26.1600 C.2   724  ASP724      0.2293
    208  O         16.6040  -32.5060  -25.9350 O.2   724  ASP724     -0.2864
    209  CB        14.1110  -32.2040  -24.8210 C.3   724  ASP724      0.1436
    210  CG        14.8180  -32.2660  -23.4740 C.2   724  ASP724      0.3671
    211  OD1       15.5680  -31.3320  -23.1410 O.co2 724  ASP724     -0.2456
    212  OD2       14.6280  -33.2500  -22.7480 O.co2 724  ASP724     -0.2456
@<TRIPOS>BOND
     1   186   187    1
     2   187   190    1
     3   187   188    1
     4   190   191    1
     5   181   180    2
     6   188   189    2
     7   193   191   ar
     8   193   195   ar
     9   191   192   ar
    10   180   179    1
    11   195   196   ar
    12   192   194   ar
    13    98    99    1
    14   178   179    1
    15   179   182    1
    16   139   138    1
    17   196   194   ar
    18   145   142    1
    19   145   146    1
    20    99   102    1
    21    99   100    1
    22   182   183    1
    23   142   141    1
    24   142   143    1
    25   150   149    2
    26   105   107   ar
    27   105   103   ar
    28   197   198    1
    29   147   143   am
    30   147   148    1
    31   140   138    1
    32   102   103    1
    33   107   108   ar
    34   138   135    1
    35   101   100    2
    36   157   158    2
    37   157   156    1
    38   143   144    2
    39   103   104   ar
    40   149   148    1
    41   149   155   am
    42   126   124   ar
    43   151   148    1
    44   151   152    1
    45   183   184    1
    46   125   124   ar
    47   198   201    1
    48   198   199    1
    49   156   155    1
    50   156   159    1
    51   135   136    1
    52   135   134    1
    53   203   201    1
    54   124   123    1
    55   108   109    1
    56   108   106   ar
    57   136   137    2
    58   104   106   ar
    59   200   199    2
    60   164   165    2
    61   164   163    1
    62    93    92    2
    63   201   202    1
    64   184   185    1
    65   152   154   ar
    66   152   153   ar
    67   199   205   am
    68   202   204    1
    69   159   160    1
    70   159   161    1
    71   170   171    1
    72   134   129   am
    73   162   163    1
    74   123   122    1
    75   130   129    2
    76   163   166    1
    77   205   206    1
    78    92    91    1
    79   129   128    1
    80   172   171    1
    81   172   173    2
    82    96    95   ar
    83   166   167    1
    84   171   174    1
    85   122   119    1
    86   207   208    2
    87   207   206    1
    88   121   120    2
    89    91    90    1
    90    91    94    1
    91   206   209    1
    92   169   167   am
    93    95    94    1
    94    95    97   ar
    95   120   119    1
    96   120   127   am
    97   167   168    2
    98   176   175   ar
    99   128   127    1
   100   128   131    1
   101   119   118    1
   102   174   175    1
   103   209   210    1
   104   132   131    1
   105   175   177   ar
   106   118   112   am
   107   116   114    1
   108   131   133    1
   109   210   211   ar
   110   210   212   ar
   111   112   111    1
   112   112   113    2
   113    64    62   ar
   114    64    63   ar
   115    85    84    2
   116   114   111    1
   117   114   115    1
   118   111   110    1
   119    62    60   ar
   120    63    61   ar
   121   115   117    1
   122    72    70    1
   123    84    83    1
   124    60    59   ar
   125    60    58   ar
   126    61    58   ar
   127    70    69    1
   128    83    86    1
   129    83    82    1
   130    89    87    1
   131    86    87    1
   132    59    57   ar
   133    58    56   ar
   134    69    66    1
   135    69    71    1
   136    65    66    1
   137    35    34    1
   138    87    88    1
   139    81    80    1
   140    66    67    1
   141    57    56   ar
   142    56    55    1
   143    68    67    2
   144    80    79    1
   145    34    33    1
   146    55    52    1
   147    79    78    1
   148    52    53    1
   149    52    51    1
   150    33    32    1
   151    53    54    2
   152    46    45    2
   153    77    78    1
   154    77    74    1
   155    41    40    1
   156    41    42    1
   157    32    29    1
   158    16    14    1
   159    40    37    1
   160    51    45   am
   161    45    44    1
   162    73    74    1
   163    74    75    1
   164    29    28    1
   165    29    30    1
   166    42    36    1
   167    76    75    2
   168     9     8    1
   169    28    19   am
   170    14    15    1
   171    14    11    1
   172    39    38    2
   173    37    38    1
   174    37    36    1
   175    38    43   am
   176    43    44    1
   177    44    47    1
   178    10    11    1
   179    20    19    2
   180    19    18    1
   181    30    31    2
   182    13    12    2
   183    11    12    1
   184    12    17   am
   185    18    17    1
   186    18    21    1
   187    47    48    1
   188     8     7    1
   189     7     6    1
   190    21    22    1
   191    48    50    1
   192    48    49    1
   193    22    23   ar
   194    22    24   ar
   195     6     5    1
   196    23    25   ar
   197    24    26   ar
   198     5     2    1
   199    25    27   ar
   200    26    27   ar
   201     2     3    1
   202     2     1    1
   203     3     4    2
