@<TRIPOS>MOLECULE
tmp/2wxhA00.pdb
 212 203 0 0 0
SMALL
GASTEIGER

@<TRIPOS>ATOM
      1  N         -1.8190  -39.7060    8.1040 N.3   512  LYS512     -0.1245
      2  CA        -1.6000  -38.6030    9.0230 C.3   512  LYS512      0.1561
      3  C         -0.1720  -38.0250    8.9700 C.2   512  LYS512      0.2260
      4  O         -0.0200  -36.8050    8.9810 O.2   512  LYS512     -0.2867
      5  CB        -1.9730  -38.9790   10.4670 C.3   512  LYS512      0.0271
      6  CG        -1.4750  -37.9480   11.4680 C.3   512  LYS512      0.0035
      7  CD        -2.1420  -38.0130   12.8150 C.3   512  LYS512      0.0206
      8  CE        -1.8150  -36.7440   13.5910 C.3   512  LYS512      0.1093
      9  NZ        -1.9760  -36.9520   15.0460 N.3   512  LYS512     -0.1314
     10  N          0.1960  -29.8070   14.8270 N.3   554  THR554     -0.1203
     11  CA        -0.3540  -31.0260   14.2780 C.3   554  THR554      0.1994
     12  C         -1.8670  -30.8970   14.1490 C.2   554  THR554      0.2618
     13  O         -2.4060  -29.7760   14.2390 O.2   554  THR554     -0.2717
     14  CB         0.1000  -32.2990   15.1130 C.3   554  THR554      0.1784
     15  OG1       -0.3070  -33.4830   14.4230 O.3   554  THR554     -0.2211
     16  CG2       -0.4660  -32.2790   16.5380 C.3   554  THR554      0.0376
     17  N         -2.5370  -32.0250   13.9120 N.am  555  PHE555     -0.1961
     18  CA        -3.9800  -32.0850   13.9150 C.3   555  PHE555      0.1771
     19  C         -4.4510  -33.4200   14.4900 C.2   555  PHE555      0.2619
     20  O         -3.6930  -34.3880   14.5620 O.2   555  PHE555     -0.2715
     21  CB        -4.5730  -31.8660   12.5040 C.3   555  PHE555      0.0574
     22  CG        -4.3770  -33.0330   11.5690 C.ar  555  PHE555     -0.0200
     23  CD1       -5.4240  -33.9080   11.3000 C.ar  555  PHE555     -0.0042
     24  CD2       -3.1500  -33.2580   10.9650 C.ar  555  PHE555     -0.0042
     25  CE1       -5.2450  -35.0020   10.4160 C.ar  555  PHE555     -0.0003
     26  CE2       -2.9620  -34.3640   10.0910 C.ar  555  PHE555     -0.0003
     27  CZ        -4.0140  -35.2240    9.8300 C.ar  555  PHE555     -0.0000
     28  N         -5.7050  -33.4510   14.9050 N.am  556  MET556     -0.1977
     29  CA        -6.3240  -34.6710   15.3970 C.3   556  MET556      0.1605
     30  C         -6.9850  -35.3140   14.1890 C.2   556  MET556      0.2287
     31  O         -7.8990  -34.7360   13.5810 O.2   556  MET556     -0.2864
     32  CB        -7.3650  -34.3520   16.4690 C.3   556  MET556      0.0413
     33  CG        -8.2390  -35.5470   16.8520 C.3   556  MET556      0.0598
     34  SD        -9.2550  -35.2380   18.3080 S.3   556  MET556     -0.1393
     35  CE        -7.9840  -35.3380   19.5780 C.3   556  MET556      0.0692
     36  N         -9.5720  -31.0030   14.4310 N.3   562  PRO562     -0.2102
     37  CA        -9.0350  -29.7260   14.9650 C.3   562  PRO562      0.1504
     38  C         -7.5010  -29.6220   14.8920 C.2   562  PRO562      0.2576
     39  O         -6.8060  -30.6430   14.9410 O.2   562  PRO562     -0.2718
     40  CB        -9.5110  -29.7320   16.4200 C.3   562  PRO562      0.0282
     41  CG        -9.6560  -31.2360   16.7810 C.3   562  PRO562      0.0208
     42  CD       -10.1860  -31.8430   15.4890 C.3   562  PRO562      0.0893
     43  N         -7.0010  -28.3810   14.7930 N.am  563  LEU563     -0.1966
     44  CA        -5.5780  -28.0910   14.7050 C.3   563  LEU563      0.1728
     45  C         -4.9940  -27.8280   16.0850 C.2   563  LEU563      0.2616
     46  O         -5.6610  -27.2270   16.9350 O.2   563  LEU563     -0.2715
     47  CB        -5.3050  -26.8600   13.8250 C.3   563  LEU563      0.0311
     48  CG        -5.9570  -26.8590   12.4180 C.3   563  LEU563      0.0022
     49  CD1       -5.4320  -25.7410   11.5770 C.3   563  LEU563      0.0001
     50  CD2       -5.7220  -28.2100   11.6800 C.3   563  LEU563      0.0001
     51  N         -3.7510  -28.2570   16.2700 N.am  564  TRP564     -0.1974
     52  CA        -2.9930  -28.0050   17.4920 C.3   564  TRP564      0.1640
     53  C         -1.8540  -27.0670   17.0850 C.2   564  TRP564      0.2290
     54  O         -0.9590  -27.4640   16.3210 O.2   564  TRP564     -0.2864
     55  CB        -2.4540  -29.3390   17.9870 C.3   564  TRP564      0.0576
     56  CG        -1.6420  -29.3450   19.2320 C.ar  564  TRP564      0.0006
     57  CD1       -0.2910  -29.1090   19.3540 C.ar  564  TRP564      0.0946
     58  CD2       -2.1010  -29.7350   20.5390 C.ar  564  TRP564      0.0152
     59  NE1        0.1000  -29.2820   20.6780 N.ar  564  TRP564     -0.2442
     60  CE2       -0.9940  -29.6500   21.4200 C.ar  564  TRP564      0.0810
     61  CE3       -3.3560  -30.0950   21.0580 C.ar  564  TRP564      0.0012
     62  CZ2       -1.0920  -29.9780   22.7940 C.ar  564  TRP564      0.0191
     63  CZ3       -3.4640  -30.3730   22.4270 C.ar  564  TRP564      0.0001
     64  CH2       -2.3340  -30.3170   23.2770 C.ar  564  TRP564      0.0015
     65  N         -5.8850  -24.4810   20.2340 N.3   581  ILE581     -0.1245
     66  CA        -6.5560  -25.4650   19.3940 C.3   581  ILE581      0.1561
     67  C         -7.5610  -24.6680   18.5680 C.2   581  ILE581      0.2260
     68  O         -8.3030  -23.8490   19.1150 O.2   581  ILE581     -0.2867
     69  CB        -7.2940  -26.5200   20.2500 C.3   581  ILE581      0.0252
     70  CG1       -6.2870  -27.4640   20.9460 C.3   581  ILE581      0.0019
     71  CG2       -8.2740  -27.3320   19.3480 C.3   581  ILE581      0.0019
     72  CD1       -6.8770  -28.1900   22.1940 C.3   581  ILE581      0.0001
     73  N        -10.8000  -25.1750   16.1260 N.3   583  LYS583     -0.1245
     74  CA       -11.7690  -26.1940   15.7190 C.3   583  LYS583      0.1561
     75  C        -12.8700  -25.5410   14.8950 C.2   583  LYS583      0.2260
     76  O        -13.4470  -24.4940   15.2790 O.2   583  LYS583     -0.2867
     77  CB       -12.3570  -26.9650   16.9230 C.3   583  LYS583      0.0271
     78  CG       -13.1670  -28.2100   16.4860 C.3   583  LYS583      0.0035
     79  CD       -13.5190  -29.1450   17.6400 C.3   583  LYS583      0.0206
     80  CE       -14.3020  -28.4780   18.7230 C.3   583  LYS583      0.1093
     81  NZ       -14.5410  -29.5330   19.7410 N.3   583  LYS583     -0.1314
     82  N        -19.3560  -24.2920   19.6380 N.3   588  LEU588     -0.1245
     83  CA       -18.5570  -24.1610   20.8710 C.3   588  LEU588      0.1561
     84  C        -19.2480  -23.4410   22.0390 C.2   588  LEU588      0.2260
     85  O        -18.6540  -23.3220   23.1160 O.2   588  LEU588     -0.2867
     86  CB       -17.2130  -23.4750   20.5860 C.3   588  LEU588      0.0270
     87  CG       -16.1670  -24.3420   19.8670 C.3   588  LEU588      0.0019
     88  CD1      -14.9240  -23.4970   19.5470 C.3   588  LEU588      0.0001
     89  CD2      -15.7820  -25.5270   20.7510 C.3   588  LEU588      0.0001
     90  N        -19.7100  -25.5360   25.3300 N.3   591  ASP591     -0.1239
     91  CA       -18.3820  -25.6740   25.9310 C.3   591  ASP591      0.1674
     92  C        -18.0370  -24.3860   26.6680 C.2   591  ASP591      0.2266
     93  O        -17.6650  -24.4250   27.8300 O.2   591  ASP591     -0.2867
     94  CB       -17.3480  -25.8520   24.8390 C.3   591  ASP591      0.1410
     95  CG       -16.4570  -27.0450   25.0400 C.2   591  ASP591      0.3668
     96  OD1      -16.5960  -27.7920   26.0430 O.co2 591  ASP591     -0.2456
     97  OD2      -15.5850  -27.2470   24.1540 O.co2 591  ASP591     -0.2456
     98  N        -17.5910  -24.1480   30.7680 N.3   595  LEU595     -0.1245
     99  CA       -16.3200  -23.6770   31.3120 C.3   595  LEU595      0.1561
    100  C        -16.4220  -22.3720   32.1070 C.2   595  LEU595      0.2260
    101  O        -15.7280  -22.1980   33.1180 O.2   595  LEU595     -0.2867
    102  CB       -15.2520  -23.5640   30.2120 C.3   595  LEU595      0.0270
    103  CG       -14.7750  -24.9250   29.6890 C.3   595  LEU595      0.0019
    104  CD1      -14.1350  -24.7490   28.2790 C.3   595  LEU595      0.0001
    105  CD2      -13.7810  -25.5370   30.7000 C.3   595  LEU595      0.0001
    106  N         -9.3060  -23.4140   31.7170 N.3   617  TYR617     -0.1241
    107  CA        -8.7010  -23.0660   30.4220 C.3   617  TYR617      0.1605
    108  C         -9.7010  -22.3210   29.5060 C.2   617  TYR617      0.2264
    109  O        -10.9100  -22.4980   29.6140 O.2   617  TYR617     -0.2867
    110  CB        -8.1400  -24.3240   29.7370 C.3   617  TYR617      0.0534
    111  CG        -9.2120  -25.3490   29.3870 C.ar  617  TYR617     -0.0201
    112  CD1       -9.9060  -25.2890   28.1640 C.ar  617  TYR617     -0.0009
    113  CD2       -9.5050  -26.4120   30.2660 C.ar  617  TYR617     -0.0009
    114  CE1      -10.8980  -26.2480   27.8370 C.ar  617  TYR617      0.0417
    115  CE2      -10.4880  -27.3700   29.9570 C.ar  617  TYR617      0.0417
    116  CZ       -11.1750  -27.2890   28.7680 C.ar  617  TYR617      0.1957
    117  OH       -12.1340  -28.2150   28.4740 O.3   617  TYR617     -0.2866
    118  N         -9.6090  -22.9830   21.5440 N.3   629  ILE629     -0.1231
    119  CA        -9.5540  -23.5150   22.8930 C.3   629  ILE629      0.1692
    120  C         -8.0950  -23.4470   23.3450 C.2   629  ILE629      0.2592
    121  O         -7.1610  -23.7690   22.5790 O.2   629  ILE629     -0.2718
    122  CB       -10.0430  -25.0040   22.9680 C.3   629  ILE629      0.0266
    123  CG1      -11.4490  -25.1690   22.3810 C.3   629  ILE629      0.0019
    124  CG2      -10.0460  -25.4820   24.4390 C.3   629  ILE629      0.0020
    125  CD1      -11.5120  -25.6580   20.9290 C.3   629  ILE629      0.0001
    126  N         -7.8980  -23.0130   24.5800 N.am  630  GLU630     -0.1966
    127  CA        -6.5570  -22.9190   25.1390 C.3   630  GLU630      0.1733
    128  C         -5.9800  -24.3260   25.4260 C.2   630  GLU630      0.2616
    129  O         -6.6470  -25.1480   26.0560 O.2   630  GLU630     -0.2715
    130  CB        -6.5840  -22.1000   26.4430 C.3   630  GLU630      0.0429
    131  CG        -5.2080  -22.0220   27.1420 C.3   630  GLU630      0.1163
    132  CD        -5.2790  -21.3140   28.5130 C.2   630  GLU630      0.3649
    133  OE1       -6.3950  -21.0080   28.9900 O.co2 630  GLU630     -0.2457
    134  OE2       -4.1970  -21.0610   29.0970 O.co2 630  GLU630     -0.2457
    135  N         -4.7550  -24.5690   24.9710 N.am  631  VAL631     -0.1963
    136  CA        -4.0900  -25.8500   25.2490 C.3   631  VAL631      0.1727
    137  C         -3.6240  -25.9150   26.7070 C.2   631  VAL631      0.2616
    138  O         -2.9500  -25.0170   27.1700 O.2   631  VAL631     -0.2715
    139  CB        -2.8860  -26.1310   24.3090 C.3   631  VAL631      0.0290
    140  CG1       -2.0070  -27.3170   24.8740 C.3   631  VAL631      0.0023
    141  CG2       -3.3760  -26.4790   22.8490 C.3   631  VAL631      0.0023
    142  N         -3.9930  -27.0000   27.3910 N.am  632  VAL632     -0.1977
    143  CA        -3.4050  -27.3550   28.6770 C.3   632  VAL632      0.1596
    144  C         -2.2190  -28.2860   28.3950 C.2   632  VAL632      0.2287
    145  O         -2.3890  -29.4610   27.9910 O.2   632  VAL632     -0.2864
    146  CB        -4.4610  -28.0070   29.6100 C.3   632  VAL632      0.0276
    147  CG1       -3.8220  -28.4360   30.9510 C.3   632  VAL632      0.0022
    148  CG2       -5.6530  -27.0570   29.8240 C.3   632  VAL632      0.0022
    149  N         -0.3790  -32.6120   29.7840 N.3   635  SER635     -0.1202
    150  CA        -1.5560  -33.3520   30.2310 C.3   635  SER635      0.2020
    151  C         -1.8230  -34.4980   29.2660 C.2   635  SER635      0.2619
    152  O         -1.3650  -34.4760   28.1180 O.2   635  SER635     -0.2717
    153  CB        -2.8030  -32.4210   30.3560 C.3   635  SER635      0.2103
    154  OG        -3.1220  -31.7820   29.1130 O.3   635  SER635     -0.2182
    155  N         -2.5660  -35.5010   29.7150 N.am  636  ASP636     -0.1959
    156  CA        -2.9210  -36.6230   28.8410 C.3   636  ASP636      0.1840
    157  C         -4.3270  -37.0730   29.1980 C.2   636  ASP636      0.2622
    158  O         -4.7980  -36.7530   30.2840 O.2   636  ASP636     -0.2715
    159  CB        -1.9280  -37.7850   29.0370 C.3   636  ASP636      0.1450
    160  CG        -1.8790  -38.7210   27.8390 C.2   636  ASP636      0.3671
    161  OD1       -2.7220  -38.5920   26.9230 O.co2 636  ASP636     -0.2456
    162  OD2       -0.9940  -39.6140   27.8010 O.co2 636  ASP636     -0.2456
    163  N         -5.0030  -37.7960   28.3050 N.am  637  THR637     -0.1951
    164  CA        -6.3180  -38.3340   28.6550 C.3   637  THR637      0.1897
    165  C         -6.1620  -39.5440   29.5770 C.2   637  THR637      0.2313
    166  O         -5.1740  -40.2810   29.4870 O.2   637  THR637     -0.2863
    167  CB        -7.1380  -38.8060   27.4390 C.3   637  THR637      0.1794
    168  OG1       -6.3670  -39.7640   26.6950 O.3   637  THR637     -0.2208
    169  CG2       -7.5290  -37.5900   26.5630 C.3   637  THR637      0.0378
    170  N         -5.8530  -42.6380   27.3970 N.3   640  ASN640     -0.1240
    171  CA        -4.5000  -42.9390   26.8910 C.3   640  ASN640      0.1653
    172  C         -3.6180  -43.5670   27.9800 C.2   640  ASN640      0.2266
    173  O         -2.8740  -44.5120   27.7310 O.2   640  ASN640     -0.2867
    174  CB        -3.8170  -41.6710   26.3780 C.3   640  ASN640      0.1155
    175  CG        -2.5530  -41.9740   25.5940 C.2   640  ASN640      0.2627
    176  OD1       -2.5510  -42.8240   24.6950 O.2   640  ASN640     -0.2716
    177  ND2       -1.4610  -41.2930   25.9360 N.am  640  ASN640     -0.0877
    178  N         -9.0010  -35.4720   31.4190 N.3   704  MET704     -0.1245
    179  CA        -7.5670  -35.4210   31.2930 C.3   704  MET704      0.1570
    180  C         -6.9510  -35.1780   32.6530 C.2   704  MET704      0.2261
    181  O         -7.6280  -34.7900   33.6030 O.2   704  MET704     -0.2867
    182  CB        -7.1210  -34.3010   30.3390 C.3   704  MET704      0.0387
    183  CG        -7.6640  -34.4590   28.9430 C.3   704  MET704      0.0595
    184  SD        -6.9080  -33.3240   27.7510 S.3   704  MET704     -0.1393
    185  CE        -5.2790  -34.0740   27.5270 C.3   704  MET704      0.0692
    186  N         -8.9700  -32.6190   34.9350 N.3   712  PHE712     -0.1241
    187  CA        -9.9360  -31.6670   34.3820 C.3   712  PHE712      0.1605
    188  C        -10.7140  -32.3160   33.2350 C.2   712  PHE712      0.2264
    189  O        -10.3510  -33.4060   32.7560 O.2   712  PHE712     -0.2867
    190  CB        -9.2370  -30.3480   33.9570 C.3   712  PHE712      0.0534
    191  CG        -8.2580  -30.5130   32.8260 C.ar  712  PHE712     -0.0203
    192  CD1       -8.6540  -30.2590   31.5170 C.ar  712  PHE712     -0.0042
    193  CD2       -6.9470  -30.9600   33.0620 C.ar  712  PHE712     -0.0042
    194  CE1       -7.7660  -30.4210   30.4420 C.ar  712  PHE712     -0.0003
    195  CE2       -6.0270  -31.1270   31.9720 C.ar  712  PHE712     -0.0003
    196  CZ        -6.4580  -30.8510   30.6660 C.ar  712  PHE712     -0.0000
    197  N        -12.7600  -32.2200   29.3370 N.3   714  ILE714     -0.1231
    198  CA       -12.7010  -31.6130   28.0100 C.3   714  ILE714      0.1692
    199  C        -13.9710  -31.9640   27.2380 C.2   714  ILE714      0.2592
    200  O        -14.7850  -32.7580   27.7120 O.2   714  ILE714     -0.2718
    201  CB       -11.4130  -32.0530   27.2240 C.3   714  ILE714      0.0266
    202  CG1      -11.3960  -33.5740   27.0020 C.3   714  ILE714      0.0019
    203  CG2      -10.1390  -31.5220   27.9340 C.3   714  ILE714      0.0020
    204  CD1      -10.3780  -34.0660   25.9740 C.3   714  ILE714      0.0001
    205  N        -14.1590  -31.3520   26.0700 N.am  715  ASP715     -0.1974
    206  CA       -15.2450  -31.7530   25.1790 C.3   715  ASP715      0.1709
    207  C        -16.6040  -31.8810   25.8760 C.2   715  ASP715      0.2293
    208  O        -17.1790  -32.9600   25.9340 O.2   715  ASP715     -0.2864
    209  CB       -14.8950  -33.0810   24.5030 C.3   715  ASP715      0.1436
    210  CG       -13.6690  -32.9730   23.6100 C.2   715  ASP715      0.3671
    211  OD1      -13.3900  -31.8610   23.0990 O.co2 715  ASP715     -0.2456
    212  OD2      -12.9860  -33.9980   23.4180 O.co2 715  ASP715     -0.2456
@<TRIPOS>BOND
     1     1     2    1
     2     3     4    2
     3     3     2    1
     4     2     5    1
     5    27    26   ar
     6    27    25   ar
     7    26    24   ar
     8    25    23   ar
     9     5     6    1
    10    24    22   ar
    11    23    22   ar
    12     6     7    1
    13    22    21    1
    14    49    48    1
    15    50    48    1
    16    48    47    1
    17    21    18    1
    18     7     8    1
    19    31    30    2
    20     8     9    1
    21    47    44    1
    22    17    18    1
    23    17    12   am
    24    18    19    1
    25    12    13    2
    26    12    11    1
    27    30    29    1
    28    11    10    1
    29    11    14    1
    30    15    14    1
    31    36    37    1
    32    36    42    1
    33    19    20    2
    34    19    28   am
    35    44    43    1
    36    44    45    1
    37    43    38   am
    38    38    39    2
    39    38    37    1
    40    75    76    2
    41    75    74    1
    42    28    29    1
    43    37    40    1
    44    14    16    1
    45    29    32    1
    46    42    41    1
    47    74    73    1
    48    74    77    1
    49    45    51   am
    50    45    46    2
    51    51    52    1
    52    54    53    2
    53    40    41    1
    54    32    33    1
    55    78    77    1
    56    78    79    1
    57    33    34    1
    58    53    52    1
    59    52    55    1
    60    79    80    1
    61    55    56    1
    62    34    35    1
    63    67    68    2
    64    67    66    1
    65    80    81    1
    66    56    57   ar
    67    56    58   ar
    68    71    69    1
    69    57    59   ar
    70    66    65    1
    71    66    69    1
    72    88    87    1
    73    82    83    1
    74    87    86    1
    75    87    89    1
    76    69    70    1
    77    58    61   ar
    78    58    60   ar
    79    86    83    1
    80    59    60   ar
    81    83    84    1
    82   125   123    1
    83    70    72    1
    84    61    63   ar
    85    60    62   ar
    86   118   119    1
    87    84    85    2
    88   123   122    1
    89    63    64   ar
    90   121   120    2
    91    62    64   ar
    92   141   139    1
    93   119   122    1
    94   119   120    1
    95   122   124    1
    96   211   210   ar
    97   120   126   am
    98   212   210   ar
    99   210   209    1
   100    97    95   ar
   101   139   140    1
   102   139   136    1
   103   209   206    1
   104   126   127    1
   105   176   175    2
   106    94    95    1
   107    94    91    1
   108   135   136    1
   109   135   128   am
   110    95    96   ar
   111   127   128    1
   112   127   130    1
   113   206   207    1
   114   206   205    1
   115   136   137    1
   116    90    91    1
   117   128   129    2
   118   175   177   am
   119   175   174    1
   120   207   208    2
   121    91    92    1
   122   204   202    1
   123   205   199   am
   124   174   171    1
   125   130   131    1
   126   169   167    1
   127    92    93    2
   128   168   167    1
   129   137   138    2
   130   137   142   am
   131   171   170    1
   132   171   172    1
   133   161   160   ar
   134   202   201    1
   135   131   132    1
   136   201   203    1
   137   201   198    1
   138   199   200    2
   139   199   198    1
   140   142   143    1
   141   167   164    1
   142   185   184    1
   143   173   172    2
   144   184   183    1
   145   162   160   ar
   146   114   112   ar
   147   114   116   ar
   148   160   159    1
   149   145   144    2
   150   198   197    1
   151   152   151    2
   152   112   111   ar
   153   104   103    1
   154   163   164    1
   155   163   157   am
   156   144   143    1
   157   117   116    1
   158   132   133   ar
   159   132   134   ar
   160   164   165    1
   161   143   146    1
   162   116   115   ar
   163   156   159    1
   164   156   157    1
   165   156   155    1
   166   183   182    1
   167   154   153    1
   168   157   158    2
   169   151   155   am
   170   151   150    1
   171   111   110    1
   172   111   113   ar
   173   166   165    2
   174   108   109    2
   175   108   107    1
   176   146   148    1
   177   146   147    1
   178   103   102    1
   179   103   105    1
   180   110   107    1
   181   149   150    1
   182   115   113   ar
   183   102    99    1
   184   150   153    1
   185   182   179    1
   186   107   106    1
   187   194   196   ar
   188   194   192   ar
   189   196   195   ar
   190    98    99    1
   191   179   178    1
   192   179   180    1
   193    99   100    1
   194   192   191   ar
   195   195   193   ar
   196   100   101    2
   197   180   181    2
   198   189   188    2
   199   191   193   ar
   200   191   190    1
   201   188   187    1
   202   190   187    1
   203   187   186    1
