@<TRIPOS>MOLECULE
tmp/2wxiA00.pdb
 204 196 0 0 0
SMALL
GASTEIGER

@<TRIPOS>ATOM
      1  N         -1.8400   -6.7830    8.2550 N.3   505  LYS505     -0.1245
      2  CA        -1.5390   -5.6500    9.1220 C.3   505  LYS505      0.1561
      3  C         -0.1240   -5.1060    8.8690 C.2   505  LYS505      0.2260
      4  O          0.0140   -3.9270    8.5500 O.2   505  LYS505     -0.2867
      5  CB        -1.7470   -5.9730   10.6040 C.3   505  LYS505      0.0271
      6  CG        -1.4350   -4.7700   11.4990 C.3   505  LYS505      0.0035
      7  CD        -2.1480   -4.8040   12.8180 C.3   505  LYS505      0.0206
      8  CE        -1.7200   -3.6070   13.5870 C.3   505  LYS505      0.1093
      9  NZ        -1.8920   -3.8130   15.0450 N.3   505  LYS505     -0.1314
     10  N          0.3420    3.2230   14.6170 N.3   547  THR547     -0.1203
     11  CA        -0.2050    1.9750   14.1050 C.3   547  THR547      0.1994
     12  C         -1.7250    2.1140   14.1170 C.2   547  THR547      0.2618
     13  O         -2.2150    3.2470   14.1540 O.2   547  THR547     -0.2717
     14  CB         0.2940    0.7640   14.9690 C.3   547  THR547      0.1784
     15  OG1       -0.1590   -0.4810   14.3950 O.3   547  THR547     -0.2211
     16  CG2       -0.1520    0.9060   16.4180 C.3   547  THR547      0.0376
     17  N         -2.4500    0.9970   14.1120 N.am  548  PHE548     -0.1961
     18  CA        -3.9000    0.9700   14.1080 C.3   548  PHE548      0.1771
     19  C         -4.4220   -0.3870   14.5840 C.2   548  PHE548      0.2619
     20  O         -3.7990   -1.4530   14.3780 O.2   548  PHE548     -0.2715
     21  CB        -4.4790    1.2450   12.7100 C.3   548  PHE548      0.0574
     22  CG        -4.2830    0.1110   11.7270 C.ar  548  PHE548     -0.0200
     23  CD1       -5.3000   -0.7760   11.4660 C.ar  548  PHE548     -0.0042
     24  CD2       -3.0690   -0.0730   11.0920 C.ar  548  PHE548     -0.0042
     25  CE1       -5.1160   -1.8420   10.5870 C.ar  548  PHE548     -0.0003
     26  CE2       -2.8570   -1.1310   10.2230 C.ar  548  PHE548     -0.0003
     27  CZ        -3.8750   -2.0270    9.9650 C.ar  548  PHE548     -0.0000
     28  N         -5.5920   -0.3470   15.2010 N.am  549  MET549     -0.1977
     29  CA        -6.2240   -1.5410   15.6420 C.3   549  MET549      0.1605
     30  C         -6.8280   -2.2140   14.4240 C.2   549  MET549      0.2287
     31  O         -7.6160   -1.6120   13.6830 O.2   549  MET549     -0.2864
     32  CB        -7.2680   -1.1970   16.6700 C.3   549  MET549      0.0413
     33  CG        -8.1720   -2.3320   16.9870 C.3   549  MET549      0.0598
     34  SD        -8.7520   -2.0890   18.6590 S.3   549  MET549     -0.1393
     35  CE        -7.3700   -2.8510   19.5380 C.3   549  MET549      0.0692
     36  N         -9.4770    2.0690   14.4300 N.3   555  PRO555     -0.2102
     37  CA        -8.9960    3.3080   14.9970 C.3   555  PRO555      0.1504
     38  C         -7.4760    3.4410   14.9150 C.2   555  PRO555      0.2576
     39  O         -6.7790    2.4430   14.8280 O.2   555  PRO555     -0.2718
     40  CB        -9.4410    3.1940   16.4600 C.3   555  PRO555      0.0282
     41  CG        -9.6070    1.7100   16.6780 C.3   555  PRO555      0.0208
     42  CD       -10.2440    1.3100   15.4270 C.3   555  PRO555      0.0893
     43  N         -6.9750    4.6610   14.9830 N.am  556  LEU556     -0.1966
     44  CA        -5.5540    4.9310   14.7840 C.3   556  LEU556      0.1728
     45  C         -4.9170    5.2430   16.0950 C.2   556  LEU556      0.2616
     46  O         -5.5640    5.8260   16.9980 O.2   556  LEU556     -0.2715
     47  CB        -5.3560    6.1530   13.8760 C.3   556  LEU556      0.0311
     48  CG        -5.9270    5.9770   12.4850 C.3   556  LEU556      0.0022
     49  CD1       -5.5040    7.1800   11.6760 C.3   556  LEU556      0.0001
     50  CD2       -5.3590    4.7200   11.8870 C.3   556  LEU556      0.0001
     51  N         -3.6350    4.9120   16.1840 N.am  557  TRP557     -0.1974
     52  CA        -2.8850    5.0900   17.4180 C.3   557  TRP557      0.1640
     53  C         -1.7580    6.0370   17.0700 C.2   557  TRP557      0.2290
     54  O         -0.8390    5.6910   16.3090 O.2   557  TRP557     -0.2864
     55  CB        -2.3530    3.7320   17.8900 C.3   557  TRP557      0.0576
     56  CG        -1.4750    3.7410   19.1170 C.ar  557  TRP557      0.0006
     57  CD1       -0.1220    4.0080   19.1860 C.ar  557  TRP557      0.0946
     58  CD2       -1.8900    3.4230   20.4540 C.ar  557  TRP557      0.0152
     59  NE1        0.3060    3.9240   20.4870 N.ar  557  TRP557     -0.2442
     60  CE2       -0.7450    3.5250   21.2810 C.ar  557  TRP557      0.0810
     61  CE3       -3.1150    3.0270   21.0240 C.ar  557  TRP557      0.0012
     62  CZ2       -0.7900    3.2580   22.6690 C.ar  557  TRP557      0.0191
     63  CZ3       -3.1620    2.7920   22.3980 C.ar  557  TRP557      0.0001
     64  CH2       -1.9960    2.9070   23.2010 C.ar  557  TRP557      0.0015
     65  N         -5.6560    8.6560   20.1470 N.3   574  ILE574     -0.1245
     66  CA        -6.3340    7.6630   19.3670 C.3   574  ILE574      0.1561
     67  C         -7.3050    8.4520   18.5430 C.2   574  ILE574      0.2260
     68  O         -7.9170    9.4050   19.0470 O.2   574  ILE574     -0.2867
     69  CB        -7.0650    6.6710   20.2460 C.3   574  ILE574      0.0252
     70  CG1       -6.0700    5.6550   20.7640 C.3   574  ILE574      0.0019
     71  CG2       -8.1520    5.8850   19.4680 C.3   574  ILE574      0.0019
     72  CD1       -6.5010    5.0270   22.0590 C.3   574  ILE574      0.0001
     73  N        -10.5710    7.8200   16.1530 N.3   576  LYS576     -0.1245
     74  CA       -11.5800    6.8720   15.8100 C.3   576  LYS576      0.1561
     75  C        -12.5820    7.5770   14.8830 C.2   576  LYS576      0.2260
     76  O        -13.0160    8.6900   15.1750 O.2   576  LYS576     -0.2867
     77  CB       -12.2230    6.3350   17.0900 C.3   576  LYS576      0.0271
     78  CG       -13.3420    5.3220   16.8440 C.3   576  LYS576      0.0035
     79  CD       -13.2230    4.1020   17.7310 C.3   576  LYS576      0.0206
     80  CE       -13.7070    4.3320   19.1480 C.3   576  LYS576      0.1093
     81  NZ       -13.1760    3.2380   20.0490 N.3   576  LYS576     -0.1314
     82  N        -19.5140    7.4470   25.1230 N.3   584  ASP584     -0.1239
     83  CA       -18.1920    7.3750   25.7400 C.3   584  ASP584      0.1674
     84  C        -17.8160    8.6230   26.4700 C.2   584  ASP584      0.2266
     85  O        -17.4280    8.5440   27.6260 O.2   584  ASP584     -0.2867
     86  CB       -17.1160    7.0530   24.7120 C.3   584  ASP584      0.1410
     87  CG       -16.4600    5.6780   24.9560 C.2   584  ASP584      0.3668
     88  OD1      -16.8300    4.9790   25.9350 O.co2 584  ASP584     -0.2456
     89  OD2      -15.5620    5.2890   24.1730 O.co2 584  ASP584     -0.2456
     90  N        -17.3030    8.9430   30.6500 N.3   588  LEU588     -0.1245
     91  CA       -16.0350    9.3590   31.1960 C.3   588  LEU588      0.1561
     92  C        -16.1050   10.6540   32.0310 C.2   588  LEU588      0.2260
     93  O        -15.4200   10.7890   33.0410 O.2   588  LEU588     -0.2867
     94  CB       -15.0410    9.4950   30.0720 C.3   588  LEU588      0.0270
     95  CG       -14.5100    8.1680   29.5470 C.3   588  LEU588      0.0019
     96  CD1      -13.9000    8.3120   28.1160 C.3   588  LEU588      0.0001
     97  CD2      -13.5490    7.4470   30.5260 C.3   588  LEU588      0.0001
     98  N         -9.0470    9.6130   31.5170 N.3   610  TYR610     -0.1241
     99  CA        -8.4080   10.0020   30.2290 C.3   610  TYR610      0.1605
    100  C         -9.4040   10.8050   29.3640 C.2   610  TYR610      0.2264
    101  O        -10.6020   10.5370   29.3820 O.2   610  TYR610     -0.2867
    102  CB        -7.9010    8.7590   29.4760 C.3   610  TYR610      0.0534
    103  CG        -8.9890    7.6910   29.1960 C.ar  610  TYR610     -0.0201
    104  CD1       -9.7180    7.6990   27.9960 C.ar  610  TYR610     -0.0009
    105  CD2       -9.2820    6.6820   30.1330 C.ar  610  TYR610     -0.0009
    106  CE1      -10.7080    6.7210   27.7270 C.ar  610  TYR610      0.0417
    107  CE2      -10.2730    5.6790   29.8810 C.ar  610  TYR610      0.0417
    108  CZ       -10.9980    5.7250   28.6850 C.ar  610  TYR610      0.1957
    109  OH       -11.9990    4.8010   28.4190 O.3   610  TYR610     -0.2866
    110  N         -9.4020   10.0270   21.4780 N.3   622  ILE622     -0.1231
    111  CA        -9.3490    9.4570   22.8110 C.3   622  ILE622      0.1692
    112  C         -7.9270    9.5560   23.3160 C.2   622  ILE622      0.2592
    113  O         -6.9850    9.2460   22.6020 O.2   622  ILE622     -0.2718
    114  CB        -9.7170    7.9660   22.8100 C.3   622  ILE622      0.0266
    115  CG1      -11.1860    7.7370   22.4240 C.3   622  ILE622      0.0019
    116  CG2       -9.4110    7.3390   24.1760 C.3   622  ILE622      0.0020
    117  CD1      -11.4750    6.4280   21.7490 C.3   622  ILE622      0.0001
    118  N         -7.7410    9.9560   24.5520 N.am  623  GLU623     -0.1966
    119  CA        -6.3630   10.1340   25.0050 C.3   623  GLU623      0.1733
    120  C         -5.6660    8.8070   25.4050 C.2   623  GLU623      0.2616
    121  O         -6.2280    7.9770   26.1310 O.2   623  GLU623     -0.2715
    122  CB        -6.2810   11.1970   26.1010 C.3   623  GLU623      0.0429
    123  CG        -4.9320   11.2450   26.7480 C.3   623  GLU623      0.1163
    124  CD        -4.9690   11.7410   28.1870 C.2   623  GLU623      0.3649
    125  OE1       -6.0640   11.8350   28.7730 O.co2 623  GLU623     -0.2457
    126  OE2       -3.8860   12.0140   28.7440 O.co2 623  GLU623     -0.2457
    127  N         -4.4640    8.5880   24.8800 N.am  624  VAL624     -0.1963
    128  CA        -3.8250    7.3250   25.1320 C.3   624  VAL624      0.1727
    129  C         -3.3180    7.2590   26.5810 C.2   624  VAL624      0.2616
    130  O         -2.6600    8.1860   27.0720 O.2   624  VAL624     -0.2715
    131  CB        -2.6540    7.0410   24.1750 C.3   624  VAL624      0.0290
    132  CG1       -1.7900    5.9220   24.7530 C.3   624  VAL624      0.0023
    133  CG2       -3.1370    6.6560   22.7610 C.3   624  VAL624      0.0023
    134  N         -3.6670    6.1770   27.2720 N.am  625  VAL625     -0.1977
    135  CA        -3.0090    5.8500   28.5300 C.3   625  VAL625      0.1596
    136  C         -1.8740    4.8390   28.2860 C.2   625  VAL625      0.2287
    137  O         -2.0980    3.6740   27.9360 O.2   625  VAL625     -0.2864
    138  CB        -3.9830    5.3370   29.5920 C.3   625  VAL625      0.0276
    139  CG1       -3.2210    5.0300   30.8930 C.3   625  VAL625      0.0022
    140  CG2       -5.1800    6.3560   29.7760 C.3   625  VAL625      0.0022
    141  N         -0.1010    0.4640   29.6720 N.3   628  SER628     -0.1202
    142  CA        -1.2480   -0.2420   30.1250 C.3   628  SER628      0.2020
    143  C         -1.5160   -1.3550   29.1780 C.2   628  SER628      0.2619
    144  O         -0.8290   -1.4900   28.1950 O.2   628  SER628     -0.2717
    145  CB        -2.4660    0.7140   30.3930 C.3   628  SER628      0.2103
    146  OG        -3.0780    1.2360   29.2280 O.3   628  SER628     -0.2182
    147  N         -2.4690   -2.2040   29.5070 N.am  629  ASP629     -0.1959
    148  CA        -2.7710   -3.4000   28.6970 C.3   629  ASP629      0.1840
    149  C         -4.1120   -3.9330   29.1800 C.2   629  ASP629      0.2622
    150  O         -4.5320   -3.6200   30.2790 O.2   629  ASP629     -0.2715
    151  CB        -1.7110   -4.4780   28.8850 C.3   629  ASP629      0.1450
    152  CG        -1.6610   -5.4150   27.7250 C.2   629  ASP629      0.3671
    153  OD1       -2.5580   -5.3040   26.8820 O.co2 629  ASP629     -0.2456
    154  OD2       -0.7390   -6.2580   27.6090 O.co2 629  ASP629     -0.2456
    155  N         -4.7850   -4.7390   28.3930 N.am  630  THR630     -0.1951
    156  CA        -6.0300   -5.3100   28.8420 C.3   630  THR630      0.1897
    157  C         -5.8330   -6.5670   29.7260 C.2   630  THR630      0.2313
    158  O         -4.9000   -7.4100   29.5280 O.2   630  THR630     -0.2863
    159  CB        -6.9080   -5.7100   27.6350 C.3   630  THR630      0.1794
    160  OG1       -6.1550   -6.6000   26.8000 O.3   630  THR630     -0.2208
    161  CG2       -7.4090   -4.4600   26.8090 C.3   630  THR630      0.0378
    162  N         -5.5470   -9.5100   27.3960 N.3   633  ASN633     -0.1240
    163  CA        -4.2040   -9.7300   26.9360 C.3   633  ASN633      0.1653
    164  C         -3.3920  -10.4300   27.9810 C.2   633  ASN633      0.2266
    165  O         -2.7130  -11.3860   27.7240 O.2   633  ASN633     -0.2867
    166  CB        -3.5530   -8.3840   26.6940 C.3   633  ASN633      0.1155
    167  CG        -3.0280   -8.2650   25.3120 C.2   633  ASN633      0.2627
    168  OD1       -3.2830   -9.1300   24.4750 O.2   633  ASN633     -0.2716
    169  ND2       -2.2990   -7.1920   25.0430 N.am  633  ASN633     -0.0877
    170  N         -8.6700   -2.4030   31.4930 N.3   697  MET697     -0.1245
    171  CA        -7.2480   -2.3040   31.3560 C.3   697  MET697      0.1570
    172  C         -6.6290   -2.0230   32.6800 C.2   697  MET697      0.2261
    173  O         -7.2380   -1.3740   33.5280 O.2   697  MET697     -0.2867
    174  CB        -6.9090   -1.1740   30.4020 C.3   697  MET697      0.0387
    175  CG        -7.3860   -1.3810   28.9550 C.3   697  MET697      0.0595
    176  SD        -6.7250   -0.1290   27.8200 S.3   697  MET697     -0.1393
    177  CE        -5.0330   -0.6800   27.5060 C.3   697  MET697      0.0692
    178  N         -8.6870    0.3920   34.9240 N.3   705  PHE705     -0.1241
    179  CA        -9.6850    1.3390   34.3520 C.3   705  PHE705      0.1605
    180  C        -10.4330    0.7620   33.1480 C.2   705  PHE705      0.2264
    181  O        -10.1190   -0.3360   32.6610 O.2   705  PHE705     -0.2867
    182  CB        -9.0540    2.6930   33.9860 C.3   705  PHE705      0.0534
    183  CG        -8.1230    2.6240   32.8260 C.ar  705  PHE705     -0.0203
    184  CD1       -8.5950    2.6970   31.5200 C.ar  705  PHE705     -0.0042
    185  CD2       -6.7570    2.4360   33.0240 C.ar  705  PHE705     -0.0042
    186  CE1       -7.7140    2.6080   30.4400 C.ar  705  PHE705     -0.0003
    187  CE2       -5.8660    2.3520   31.9390 C.ar  705  PHE705     -0.0003
    188  CZ        -6.3440    2.4430   30.6660 C.ar  705  PHE705     -0.0000
    189  N        -12.6030    0.9360   29.3280 N.3   707  ILE707     -0.1231
    190  CA       -12.6190    1.4500   27.9880 C.3   707  ILE707      0.1692
    191  C        -13.8510    0.8810   27.2580 C.2   707  ILE707      0.2592
    192  O        -14.5630    0.0080   27.8130 O.2   707  ILE707     -0.2718
    193  CB       -11.3430    1.0070   27.2360 C.3   707  ILE707      0.0266
    194  CG1      -11.2630   -0.5290   27.0860 C.3   707  ILE707      0.0019
    195  CG2      -10.1190    1.5960   27.8810 C.3   707  ILE707      0.0020
    196  CD1      -10.1040   -0.9860   26.2920 C.3   707  ILE707      0.0001
    197  N        -14.0710    1.3550   26.0230 N.am  708  ASP708     -0.1974
    198  CA       -15.2220    1.0380   25.1680 C.3   708  ASP708      0.1709
    199  C        -16.5650    0.9280   25.8570 C.2   708  ASP708      0.2293
    200  O        -17.1640   -0.1370   25.8800 O.2   708  ASP708     -0.2864
    201  CB       -14.9680   -0.2110   24.3090 C.3   708  ASP708      0.1436
    202  CG       -13.6160   -0.1730   23.6040 C.2   708  ASP708      0.3671
    203  OD1      -13.0780    0.9550   23.3310 O.co2 708  ASP708     -0.2456
    204  OD2      -13.0820   -1.2870   23.3220 O.co2 708  ASP708     -0.2456
@<TRIPOS>BOND
     1     1     2    1
     2     4     3    2
     3     3     2    1
     4     2     5    1
     5    27    26   ar
     6    27    25   ar
     7    26    24   ar
     8    25    23   ar
     9     5     6    1
    10    24    22   ar
    11    23    22   ar
    12     6     7    1
    13    49    48    1
    14    22    21    1
    15    50    48    1
    16    48    47    1
    17    21    18    1
    18     7     8    1
    19     8     9    1
    20    31    30    2
    21    47    44    1
    22    11    12    1
    23    11    10    1
    24    11    14    1
    25    18    17    1
    26    18    19    1
    27    17    12   am
    28    12    13    2
    29    20    19    2
    30    15    14    1
    31    30    29    1
    32    36    37    1
    33    36    42    1
    34    19    28   am
    35    44    43    1
    36    44    45    1
    37    39    38    2
    38    75    76    2
    39    75    74    1
    40    38    43   am
    41    38    37    1
    42    14    16    1
    43    37    40    1
    44    28    29    1
    45    42    41    1
    46    29    32    1
    47    74    73    1
    48    74    77    1
    49    45    51   am
    50    45    46    2
    51    51    52    1
    52    54    53    2
    53    40    41    1
    54    32    33    1
    55    78    77    1
    56    78    79    1
    57    33    34    1
    58    53    52    1
    59    52    55    1
    60    79    80    1
    61    55    56    1
    62    67    68    2
    63    67    66    1
    64    34    35    1
    65    56    57   ar
    66    56    58   ar
    67    80    81    1
    68    57    59   ar
    69    66    65    1
    70    66    69    1
    71    71    69    1
    72    69    70    1
    73    58    61   ar
    74    58    60   ar
    75    59    60   ar
    76    70    72    1
    77    61    63   ar
    78    60    62   ar
    79   110   111    1
    80   117   115    1
    81    63    64   ar
    82   115   114    1
    83   113   112    2
    84    62    64   ar
    85   133   131    1
    86   114   111    1
    87   114   116    1
    88   111   112    1
    89   112   118   am
    90   204   202   ar
    91   203   202   ar
    92   202   201    1
    93    89    87   ar
    94   131   132    1
    95   131   128    1
    96   201   198    1
    97   168   167    2
    98   118   119    1
    99    86    87    1
   100    86    83    1
   101   127   128    1
   102   127   120   am
   103    87    88   ar
   104   119   120    1
   105   119   122    1
   106   169   167   am
   107    82    83    1
   108   128   129    1
   109   198   199    1
   110   198   197    1
   111   167   166    1
   112   120   121    2
   113    83    84    1
   114   199   200    2
   115   197   191   am
   116   122   123    1
   117   196   194    1
   118    84    85    2
   119   129   130    2
   120   129   134   am
   121   166   163    1
   122   123   124    1
   123   160   159    1
   124   161   159    1
   125   153   152   ar
   126   163   162    1
   127   163   164    1
   128   194   193    1
   129   193   195    1
   130   193   190    1
   131   191   192    2
   132   191   190    1
   133   134   135    1
   134   177   176    1
   135   154   152   ar
   136   159   156    1
   137   165   164    2
   138   152   151    1
   139   106   104   ar
   140   106   108   ar
   141   176   175    1
   142   137   136    2
   143   190   189    1
   144   104   103   ar
   145    96    95    1
   146   124   126   ar
   147   124   125   ar
   148   144   143    2
   149   136   135    1
   150   155   156    1
   151   155   149   am
   152   109   108    1
   153   135   138    1
   154   108   107   ar
   155   148   151    1
   156   148   149    1
   157   148   147    1
   158   156   157    1
   159   175   174    1
   160   143   147   am
   161   143   142    1
   162   149   150    2
   163   103   102    1
   164   103   105   ar
   165   146   145    1
   166   100   101    2
   167   100    99    1
   168   102    99    1
   169   158   157    2
   170    95    94    1
   171    95    97    1
   172   138   140    1
   173   138   139    1
   174   141   142    1
   175   107   105   ar
   176    94    91    1
   177   142   145    1
   178    99    98    1
   179   174   171    1
   180   186   188   ar
   181   186   184   ar
   182    90    91    1
   183   188   187   ar
   184    91    92    1
   185   171   170    1
   186   171   172    1
   187   184   183   ar
   188   187   185   ar
   189    92    93    2
   190   181   180    2
   191   172   173    2
   192   183   185   ar
   193   183   182    1
   194   180   179    1
   195   182   179    1
   196   179   178    1
