@<TRIPOS>MOLECULE
tmp/2wxjA00.pdb
 225 216 0 0 0
SMALL
GASTEIGER

@<TRIPOS>ATOM
      1  N          0.1600  -29.8620   14.8060 N.3   554  THR554     -0.1203
      2  CA        -0.4450  -31.0180   14.1670 C.3   554  THR554      0.1994
      3  C         -1.9240  -30.8220   14.0770 C.2   554  THR554      0.2618
      4  O         -2.4200  -29.7380   14.2830 O.2   554  THR554     -0.2717
      5  CB        -0.3470  -32.3460   15.0190 C.3   554  THR554      0.1784
      6  OG1        0.5540  -32.1930   16.1230 O.3   554  THR554     -0.2211
      7  CG2        0.0190  -33.5000   14.1630 C.3   554  THR554      0.0376
      8  N         -2.6090  -31.9360   13.8340 N.am  555  PHE555     -0.1961
      9  CA        -4.0460  -32.0480   13.8900 C.3   555  PHE555      0.1771
     10  C         -4.3780  -33.4110   14.4910 C.2   555  PHE555      0.2619
     11  O         -3.5790  -34.3400   14.4410 O.2   555  PHE555     -0.2715
     12  CB        -4.6780  -31.9290   12.4910 C.3   555  PHE555      0.0574
     13  CG        -4.5070  -33.1600   11.6130 C.ar  555  PHE555     -0.0200
     14  CD1       -3.2890  -33.4530   11.0120 C.ar  555  PHE555     -0.0042
     15  CD2       -5.5860  -33.9950   11.3550 C.ar  555  PHE555     -0.0042
     16  CE1       -3.1380  -34.5830   10.1840 C.ar  555  PHE555     -0.0003
     17  CE2       -5.4520  -35.1360   10.5040 C.ar  555  PHE555     -0.0003
     18  CZ        -4.2180  -35.4290    9.9280 C.ar  555  PHE555     -0.0000
     19  N         -5.5760  -33.5540   14.9950 N.am  556  MET556     -0.1977
     20  CA        -6.0730  -34.7930   15.4650 C.3   556  MET556      0.1605
     21  C         -6.8510  -35.4510   14.3530 C.2   556  MET556      0.2287
     22  O         -7.7220  -34.8580   13.7680 O.2   556  MET556     -0.2864
     23  CB        -6.9800  -34.5250   16.6340 C.3   556  MET556      0.0413
     24  CG        -7.3610  -35.7270   17.3820 C.3   556  MET556      0.0598
     25  SD        -8.8230  -35.4630   18.3130 S.3   556  MET556     -0.1393
     26  CE        -8.1340  -35.6700   19.9190 C.3   556  MET556      0.0692
     27  N         -9.5220  -31.0350   14.2430 N.3   562  PRO562     -0.2102
     28  CA        -9.0450  -29.8170   14.8700 C.3   562  PRO562      0.1504
     29  C         -7.5310  -29.7230   14.8420 C.2   562  PRO562      0.2576
     30  O         -6.8420  -30.7520   14.8750 O.2   562  PRO562     -0.2718
     31  CB        -9.5340  -29.9520   16.3220 C.3   562  PRO562      0.0282
     32  CG        -9.7350  -31.4330   16.5270 C.3   562  PRO562      0.0208
     33  CD       -10.2440  -31.8870   15.2020 C.3   562  PRO562      0.0893
     34  N         -7.0380  -28.4920   14.7970 N.am  563  LEU563     -0.1966
     35  CA        -5.6130  -28.1890   14.6590 C.3   563  LEU563      0.1728
     36  C         -5.0020  -27.8670   16.0130 C.2   563  LEU563      0.2616
     37  O         -5.6790  -27.3360   16.8920 O.2   563  LEU563     -0.2715
     38  CB        -5.4360  -26.9560   13.7530 C.3   563  LEU563      0.0311
     39  CG        -5.9250  -27.0510   12.3090 C.3   563  LEU563      0.0022
     40  CD1       -5.3940  -25.8790   11.5250 C.3   563  LEU563      0.0001
     41  CD2       -5.4830  -28.3660   11.6760 C.3   563  LEU563      0.0001
     42  N         -3.7160  -28.1210   16.1590 N.am  564  TRP564     -0.1974
     43  CA        -2.9490  -27.8990   17.3630 C.3   564  TRP564      0.1640
     44  C         -1.7870  -27.0060   17.0210 C.2   564  TRP564      0.2290
     45  O         -0.9440  -27.3820   16.2840 O.2   564  TRP564     -0.2864
     46  CB        -2.4420  -29.2430   17.8810 C.3   564  TRP564      0.0576
     47  CG        -1.5650  -29.2680   19.0960 C.ar  564  TRP564      0.0006
     48  CD1       -0.2570  -28.9860   19.1510 C.ar  564  TRP564      0.0946
     49  CD2       -1.9280  -29.6790   20.4030 C.ar  564  TRP564      0.0152
     50  NE1        0.2130  -29.1450   20.3960 N.ar  564  TRP564     -0.2442
     51  CE2       -0.8030  -29.5690   21.1950 C.ar  564  TRP564      0.0810
     52  CE3       -3.1080  -30.0880   20.9900 C.ar  564  TRP564      0.0012
     53  CZ2       -0.8150  -29.8860   22.5220 C.ar  564  TRP564      0.0191
     54  CZ3       -3.1070  -30.3840   22.2990 C.ar  564  TRP564      0.0001
     55  CH2       -1.9820  -30.2850   23.0500 C.ar  564  TRP564      0.0015
     56  N         -5.7900  -24.5910   20.2710 N.3   581  ILE581     -0.1245
     57  CA        -6.4440  -25.5740   19.4410 C.3   581  ILE581      0.1561
     58  C         -7.4660  -24.8150   18.6470 C.2   581  ILE581      0.2260
     59  O         -8.2160  -24.0000   19.1870 O.2   581  ILE581     -0.2867
     60  CB        -7.1480  -26.6880   20.2530 C.3   581  ILE581      0.0252
     61  CG1       -6.1490  -27.4590   21.1200 C.3   581  ILE581      0.0019
     62  CG2       -7.8830  -27.6750   19.3150 C.3   581  ILE581      0.0019
     63  CD1       -6.8260  -28.5460   22.0260 C.3   581  ILE581      0.0001
     64  N        -10.6900  -25.2750   16.1110 N.3   583  LYS583     -0.1245
     65  CA       -11.7750  -26.1570   15.8480 C.3   583  LYS583      0.1561
     66  C        -12.7790  -25.4850   14.9450 C.2   583  LYS583      0.2260
     67  O        -13.2310  -24.4160   15.2160 O.2   583  LYS583     -0.2867
     68  CB       -12.4280  -26.5740   17.1600 C.3   583  LYS583      0.0271
     69  CG       -13.0440  -27.9610   17.1630 C.3   583  LYS583      0.0035
     70  CD       -12.5940  -28.7800   18.3590 C.3   583  LYS583      0.0206
     71  CE       -13.2180  -30.1250   18.3680 C.3   583  LYS583      0.1093
     72  NZ       -14.4630  -30.1000   17.6060 N.3   583  LYS583     -0.1314
     73  N        -17.6010  -27.5750   14.8240 N.3   586  ASP586     -0.1225
     74  CA       -18.2950  -27.7960   16.0730 C.3   586  ASP586      0.1805
     75  C        -18.6790  -26.5010   16.7170 C.2   586  ASP586      0.2598
     76  O        -18.0300  -25.5210   16.5170 O.2   586  ASP586     -0.2718
     77  CB       -17.3910  -28.5340   17.0410 C.3   586  ASP586      0.1424
     78  CG       -17.4720  -30.0020   16.9010 C.2   586  ASP586      0.3668
     79  OD1      -18.5460  -30.4900   16.5990 O.co2 586  ASP586     -0.2456
     80  OD2      -16.4740  -30.6810   17.1080 O.co2 586  ASP586     -0.2456
     81  N        -19.7270  -26.5180   17.5220 N.am  587  ASP587     -0.1960
     82  CA       -20.2190  -25.3420   18.2200 C.3   587  ASP587      0.1840
     83  C        -19.6460  -25.3870   19.6340 C.2   587  ASP587      0.2621
     84  O        -19.7810  -26.3990   20.3300 O.2   587  ASP587     -0.2715
     85  CB       -21.7520  -25.3370   18.2240 C.3   587  ASP587      0.1450
     86  CG       -22.3460  -24.1160   18.9190 C.2   587  ASP587      0.3671
     87  OD1      -21.5980  -23.1630   19.2660 O.co2 587  ASP587     -0.2456
     88  OD2      -23.5820  -24.1190   19.1280 O.co2 587  ASP587     -0.2456
     89  N        -18.9960  -24.2910   20.0310 N.am  588  LEU588     -0.1977
     90  CA       -18.2420  -24.1970   21.2880 C.3   588  LEU588      0.1596
     91  C        -18.9720  -23.4600   22.3960 C.2   588  LEU588      0.2287
     92  O        -18.5180  -23.4900   23.5350 O.2   588  LEU588     -0.2864
     93  CB       -16.8660  -23.5300   21.0680 C.3   588  LEU588      0.0297
     94  CG       -15.7590  -24.3080   20.3210 C.3   588  LEU588      0.0022
     95  CD1      -14.4370  -23.5570   20.3150 C.3   588  LEU588      0.0001
     96  CD2      -15.5560  -25.7240   20.8840 C.3   588  LEU588      0.0001
     97  N        -19.7940  -25.2860   25.7190 N.3   591  ASP591     -0.1239
     98  CA       -18.5790  -25.5360   26.4680 C.3   591  ASP591      0.1674
     99  C        -18.0760  -24.2810   27.1250 C.2   591  ASP591      0.2266
    100  O        -17.6720  -24.3130   28.2860 O.2   591  ASP591     -0.2867
    101  CB       -17.5040  -26.1430   25.5800 C.3   591  ASP591      0.1410
    102  CG       -17.6850  -27.6320   25.4040 C.2   591  ASP591      0.3668
    103  OD1      -18.2630  -28.3010   26.3020 O.co2 591  ASP591     -0.2456
    104  OD2      -17.2450  -28.1420   24.3600 O.co2 591  ASP591     -0.2456
    105  N        -17.6480  -23.9150   31.1520 N.3   595  LEU595     -0.1245
    106  CA       -16.3530  -23.4900   31.6990 C.3   595  LEU595      0.1561
    107  C        -16.4220  -22.1790   32.4950 C.2   595  LEU595      0.2260
    108  O        -15.7610  -22.0600   33.5110 O.2   595  LEU595     -0.2867
    109  CB       -15.2760  -23.4310   30.6120 C.3   595  LEU595      0.0270
    110  CG       -14.9080  -24.8240   30.1040 C.3   595  LEU595      0.0019
    111  CD1      -14.4620  -24.8160   28.5830 C.3   595  LEU595      0.0001
    112  CD2      -13.8930  -25.5520   31.0310 C.3   595  LEU595      0.0001
    113  N         -9.4160  -23.3950   31.8420 N.3   617  TYR617     -0.1241
    114  CA        -8.7240  -23.1540   30.5790 C.3   617  TYR617      0.1605
    115  C         -9.6010  -22.3750   29.5690 C.2   617  TYR617      0.2264
    116  O        -10.8270  -22.5120   29.5420 O.2   617  TYR617     -0.2867
    117  CB        -8.2390  -24.4890   29.9940 C.3   617  TYR617      0.0534
    118  CG        -9.3480  -25.4890   29.6510 C.ar  617  TYR617     -0.0201
    119  CD1      -10.0200  -25.4250   28.4260 C.ar  617  TYR617     -0.0009
    120  CD2       -9.7130  -26.5210   30.5570 C.ar  617  TYR617     -0.0009
    121  CE1      -11.0550  -26.3560   28.1020 C.ar  617  TYR617      0.0417
    122  CE2      -10.7350  -27.4740   30.2400 C.ar  617  TYR617      0.0417
    123  CZ       -11.3990  -27.3650   29.0230 C.ar  617  TYR617      0.1957
    124  OH       -12.3960  -28.2480   28.7040 O.3   617  TYR617     -0.2866
    125  N        -11.6690  -20.9960   26.4490 N.3   619  CYS619     -0.1235
    126  CA       -12.4880  -21.5800   25.4290 C.3   619  CYS619      0.1677
    127  C        -13.3300  -20.4670   24.8800 C.2   619  CYS619      0.2270
    128  O        -14.0720  -19.8730   25.6350 O.2   619  CYS619     -0.2867
    129  CB       -13.3590  -22.6810   25.9910 C.3   619  CYS619      0.0956
    130  SG       -14.4340  -23.3410   24.7470 S.3   619  CYS619     -0.0801
    131  N         -9.6220  -23.1930   21.7240 N.3   629  ILE629     -0.1231
    132  CA        -9.4720  -23.7800   23.0550 C.3   629  ILE629      0.1692
    133  C         -7.9980  -23.6770   23.4520 C.2   629  ILE629      0.2592
    134  O         -7.1130  -23.8730   22.6280 O.2   629  ILE629     -0.2718
    135  CB        -9.9350  -25.2570   23.0860 C.3   629  ILE629      0.0266
    136  CG1      -11.3130  -25.4050   22.4190 C.3   629  ILE629      0.0019
    137  CG2       -9.9410  -25.7840   24.5100 C.3   629  ILE629      0.0020
    138  CD1      -11.6980  -26.8080   22.0670 C.3   629  ILE629      0.0001
    139  N         -7.7390  -23.3810   24.7120 N.am  630  GLU630     -0.1966
    140  CA        -6.3770  -23.2100   25.1820 C.3   630  GLU630      0.1733
    141  C         -5.6940  -24.5470   25.5200 C.2   630  GLU630      0.2616
    142  O         -6.2360  -25.3660   26.2520 O.2   630  GLU630     -0.2715
    143  CB        -6.3830  -22.2660   26.4020 C.3   630  GLU630      0.0429
    144  CG        -5.0520  -22.0740   27.0920 C.3   630  GLU630      0.1163
    145  CD        -5.2010  -21.6290   28.5550 C.2   630  GLU630      0.3649
    146  OE1       -6.3310  -21.4050   29.0420 O.co2 630  GLU630     -0.2457
    147  OE2       -4.1710  -21.5010   29.2320 O.co2 630  GLU630     -0.2457
    148  N         -4.5030  -24.7570   24.9660 N.am  631  VAL631     -0.1963
    149  CA        -3.7090  -25.9250   25.3000 C.3   631  VAL631      0.1727
    150  C         -3.2460  -25.8730   26.7430 C.2   631  VAL631      0.2616
    151  O         -2.5970  -24.9050   27.1880 O.2   631  VAL631     -0.2715
    152  CB        -2.4650  -26.0810   24.4040 C.3   631  VAL631      0.0290
    153  CG1       -1.5630  -27.1850   24.9570 C.3   631  VAL631      0.0023
    154  CG2       -2.8630  -26.3580   22.9440 C.3   631  VAL631      0.0023
    155  N         -3.6020  -26.9130   27.4790 N.am  632  VAL632     -0.1977
    156  CA        -3.0370  -27.1170   28.7920 C.3   632  VAL632      0.1596
    157  C         -1.9230  -28.1240   28.5860 C.2   632  VAL632      0.2287
    158  O         -2.1800  -29.2700   28.2150 O.2   632  VAL632     -0.2864
    159  CB        -4.0860  -27.6620   29.7660 C.3   632  VAL632      0.0276
    160  CG1       -3.4600  -27.9340   31.1370 C.3   632  VAL632      0.0022
    161  CG2       -5.2760  -26.6820   29.8480 C.3   632  VAL632      0.0022
    162  N         -0.2030  -32.4690   30.0480 N.3   635  SER635     -0.1202
    163  CA        -1.4360  -33.1640   30.3800 C.3   635  SER635      0.2020
    164  C         -1.7040  -34.2930   29.4140 C.2   635  SER635      0.2619
    165  O         -1.2330  -34.2960   28.2650 O.2   635  SER635     -0.2717
    166  CB        -2.6300  -32.1860   30.3560 C.3   635  SER635      0.2103
    167  OG        -2.8710  -31.6890   29.0520 O.3   635  SER635     -0.2182
    168  N         -2.5070  -35.2320   29.8660 N.am  636  ASP636     -0.1959
    169  CA        -2.9290  -36.3170   29.0430 C.3   636  ASP636      0.1840
    170  C         -4.2720  -36.7930   29.4250 C.2   636  ASP636      0.2622
    171  O         -4.7210  -36.4650   30.4580 O.2   636  ASP636     -0.2715
    172  CB        -1.9630  -37.4600   29.1650 C.3   636  ASP636      0.1450
    173  CG        -1.9440  -38.2620   27.9710 C.2   636  ASP636      0.3671
    174  OD1       -2.9020  -38.1880   27.2400 O.co2 636  ASP636     -0.2456
    175  OD2       -0.9730  -38.9430   27.7550 O.co2 636  ASP636     -0.2456
    176  N         -4.8980  -37.6100   28.5990 N.am  637  THR637     -0.1951
    177  CA        -6.2240  -38.1360   28.9190 C.3   637  THR637      0.1897
    178  C         -6.0760  -39.3660   29.8190 C.2   637  THR637      0.2313
    179  O         -5.0910  -40.1190   29.7120 O.2   637  THR637     -0.2863
    180  CB        -7.0820  -38.4930   27.6340 C.3   637  THR637      0.1794
    181  OG1       -6.7320  -39.7990   27.1290 O.3   637  THR637     -0.2208
    182  CG2       -6.9260  -37.4540   26.5210 C.3   637  THR637      0.0378
    183  N         -5.8560  -42.5570   27.4760 N.3   640  ASN640     -0.1240
    184  CA        -4.4770  -42.7490   27.0170 C.3   640  ASN640      0.1653
    185  C         -3.6050  -43.3880   28.1070 C.2   640  ASN640      0.2266
    186  O         -3.0290  -44.4510   27.9030 O.2   640  ASN640     -0.2867
    187  CB        -3.9030  -41.4050   26.5300 C.3   640  ASN640      0.1155
    188  CG        -2.7580  -41.5630   25.5220 C.2   640  ASN640      0.2627
    189  OD1       -2.6320  -42.5850   24.8340 O.2   640  ASN640     -0.2716
    190  ND2       -1.9120  -40.5220   25.4310 N.am  640  ASN640     -0.0877
    191  N         -9.0200  -35.4540   31.8360 N.3   704  MET704     -0.1245
    192  CA        -7.5630  -35.3200   31.7330 C.3   704  MET704      0.1570
    193  C         -6.8930  -35.0710   33.0830 C.2   704  MET704      0.2261
    194  O         -7.5360  -34.6520   34.0580 O.2   704  MET704     -0.2867
    195  CB        -7.1870  -34.1800   30.7750 C.3   704  MET704      0.0387
    196  CG        -7.7780  -34.2850   29.3620 C.3   704  MET704      0.0595
    197  SD        -6.9590  -33.1600   28.2050 S.3   704  MET704     -0.1393
    198  CE        -5.4890  -34.0970   27.7840 C.3   704  MET704      0.0692
    199  N         -8.9590  -32.6070   35.3330 N.3   712  PHE712     -0.1241
    200  CA        -9.9510  -31.6590   34.8160 C.3   712  PHE712      0.1605
    201  C        -10.7770  -32.2670   33.6700 C.2   712  PHE712      0.2264
    202  O        -10.4090  -33.3030   33.0800 O.2   712  PHE712     -0.2867
    203  CB        -9.3190  -30.2910   34.4520 C.3   712  PHE712      0.0534
    204  CG        -8.3730  -30.3380   33.2760 C.ar  712  PHE712     -0.0203
    205  CD1       -8.8410  -30.1020   31.9740 C.ar  712  PHE712     -0.0042
    206  CD2       -7.0240  -30.6710   33.4550 C.ar  712  PHE712     -0.0042
    207  CE1       -7.9840  -30.1600   30.8810 C.ar  712  PHE712     -0.0003
    208  CE2       -6.1470  -30.7460   32.3520 C.ar  712  PHE712     -0.0003
    209  CZ        -6.6260  -30.4840   31.0610 C.ar  712  PHE712     -0.0000
    210  N        -13.0750  -32.1660   29.9820 N.3   714  ILE714     -0.1231
    211  CA       -13.1490  -31.5350   28.6620 C.3   714  ILE714      0.1692
    212  C        -14.4050  -32.0010   27.9240 C.2   714  ILE714      0.2592
    213  O        -14.9910  -33.0350   28.3010 O.2   714  ILE714     -0.2718
    214  CB       -11.8740  -31.8560   27.8200 C.3   714  ILE714      0.0266
    215  CG1      -11.7730  -33.3710   27.5260 C.3   714  ILE714      0.0019
    216  CG2      -10.6010  -31.2720   28.5100 C.3   714  ILE714      0.0020
    217  CD1      -10.8670  -33.7380   26.3570 C.3   714  ILE714      0.0001
    218  N        -14.8200  -31.2380   26.9040 N.am  715  ASP715     -0.1974
    219  CA       -15.8060  -31.6740   25.8990 C.3   715  ASP715      0.1709
    220  C        -17.1010  -32.1780   26.5300 C.2   715  ASP715      0.2293
    221  O        -17.3810  -33.3650   26.5040 O.2   715  ASP715     -0.2864
    222  CB       -15.1750  -32.7740   25.0370 C.3   715  ASP715      0.1436
    223  CG       -15.9980  -33.1360   23.8020 C.2   715  ASP715      0.3671
    224  OD1      -15.5830  -34.0750   23.0920 O.co2 715  ASP715     -0.2456
    225  OD2      -17.0390  -32.5170   23.5170 O.co2 715  ASP715     -0.2456
@<TRIPOS>BOND
     1    18    16   ar
     2    18    17   ar
     3    16    14   ar
     4    17    15   ar
     5    14    13   ar
     6    15    13   ar
     7    40    39    1
     8    13    12    1
     9    41    39    1
    10    39    38    1
    11    12     9    1
    12    38    35    1
    13    22    21    2
    14     8     9    1
    15     8     3   am
    16     9    10    1
    17     3     2    1
    18     3     4    2
    19     7     5    1
    20     2     1    1
    21     2     5    1
    22    27    28    1
    23    27    33    1
    24    21    20    1
    25    11    10    2
    26    10    19   am
    27    35    34    1
    28    35    36    1
    29    34    29   am
    30    73    74    1
    31    29    28    1
    32    29    30    2
    33    28    31    1
    34    66    67    2
    35    66    65    1
    36    19    20    1
    37     5     6    1
    38    33    32    1
    39    20    23    1
    40    65    64    1
    41    65    68    1
    42    36    42   am
    43    36    37    2
    44    74    75    1
    45    74    77    1
    46    42    43    1
    47    45    44    2
    48    31    32    1
    49    76    75    2
    50    79    78   ar
    51    23    24    1
    52    75    81   am
    53    78    77    1
    54    78    80   ar
    55    44    43    1
    56    68    69    1
    57    69    70    1
    58    43    46    1
    59    24    25    1
    60    81    82    1
    61    72    71    1
    62    46    47    1
    63    82    85    1
    64    82    83    1
    65    85    86    1
    66    25    26    1
    67    70    71    1
    68    58    59    2
    69    58    57    1
    70    86    88   ar
    71    86    87   ar
    72    47    48   ar
    73    47    49   ar
    74    48    50   ar
    75    62    60    1
    76    57    60    1
    77    57    56    1
    78    83    89   am
    79    83    84    2
    80    89    90    1
    81    60    61    1
    82    95    94    1
    83    94    96    1
    84    94    93    1
    85    50    51   ar
    86    49    52   ar
    87    49    51   ar
    88    52    54   ar
    89    93    90    1
    90    61    63    1
    91    51    53   ar
    92    90    91    1
    93   131   132    1
    94   138   136    1
    95    54    55   ar
    96    91    92    2
    97   136   135    1
    98    53    55   ar
    99   134   133    2
   100   154   152    1
   101   132   135    1
   102   132   133    1
   103   135   137    1
   104   224   223   ar
   105   133   139   am
   106   225   223   ar
   107   223   222    1
   108   104   102   ar
   109   152   153    1
   110   152   149    1
   111   139   140    1
   112   130   129    1
   113   189   188    2
   114   127   126    1
   115   127   128    2
   116   148   149    1
   117   148   141   am
   118   222   219    1
   119   140   141    1
   120   140   143    1
   121   149   150    1
   122   102   101    1
   123   102   103   ar
   124   126   129    1
   125   126   125    1
   126   190   188   am
   127   141   142    2
   128   188   187    1
   129   101    98    1
   130    97    98    1
   131   219   220    1
   132   219   218    1
   133   217   215    1
   134   143   144    1
   135    98    99    1
   136   221   220    2
   137   182   180    1
   138   187   184    1
   139   150   151    2
   140   150   155   am
   141   218   212   am
   142   184   183    1
   143   184   185    1
   144   144   145    1
   145    99   100    2
   146   181   180    1
   147   174   173   ar
   148   155   156    1
   149   215   214    1
   150   180   177    1
   151   175   173   ar
   152   198   197    1
   153   214   216    1
   154   214   211    1
   155   186   185    2
   156   212   213    2
   157   212   211    1
   158   173   172    1
   159   121   119   ar
   160   121   123   ar
   161   197   196    1
   162   158   157    2
   163   165   164    2
   164   119   118   ar
   165   145   146   ar
   166   145   147   ar
   167   111   110    1
   168   157   156    1
   169   176   177    1
   170   176   170   am
   171   211   210    1
   172   124   123    1
   173   156   159    1
   174   177   178    1
   175   123   122   ar
   176   169   172    1
   177   169   170    1
   178   169   168    1
   179   167   166    1
   180   196   195    1
   181   164   168   am
   182   164   163    1
   183   170   171    2
   184   116   115    2
   185   115   114    1
   186   118   117    1
   187   118   120   ar
   188   179   178    2
   189   159   161    1
   190   159   160    1
   191   117   114    1
   192   162   163    1
   193   110   109    1
   194   110   112    1
   195   122   120   ar
   196   166   163    1
   197   114   113    1
   198   109   106    1
   199   195   192    1
   200   207   209   ar
   201   207   205   ar
   202   209   208   ar
   203   105   106    1
   204   106   107    1
   205   192   191    1
   206   192   193    1
   207   205   204   ar
   208   208   206   ar
   209   107   108    2
   210   202   201    2
   211   193   194    2
   212   204   206   ar
   213   204   203    1
   214   201   200    1
   215   203   200    1
   216   200   199    1
