@<TRIPOS>MOLECULE
tmp/2wxkA00.pdb
 218 208 0 0 0
SMALL
GASTEIGER

@<TRIPOS>ATOM
      1  N         19.4120   -2.1080    8.2740 N.3   521  LYS521     -0.1245
      2  CA        18.3290   -1.7090    9.1470 C.3   521  LYS521      0.1561
      3  C         17.9100   -0.2520    8.9190 C.2   521  LYS521      0.2260
      4  O         16.7380    0.0010    8.6840 O.2   521  LYS521     -0.2867
      5  CB        18.6540   -1.9790   10.6200 C.3   521  LYS521      0.0271
      6  CG        17.3910   -2.1470   11.4700 C.3   521  LYS521      0.0035
      7  CD        17.6650   -2.4130   12.9380 C.3   521  LYS521      0.0206
      8  CE        16.4770   -1.9860   13.7990 C.3   521  LYS521      0.1093
      9  NZ        16.5760   -2.5980   15.1790 N.3   521  LYS521     -0.1314
     10  N          9.4750    0.1380   14.8180 N.3   563  THR563     -0.1203
     11  CA        10.7290   -0.4010   14.3520 C.3   563  THR563      0.1994
     12  C         10.5930   -1.9070   14.3260 C.2   563  THR563      0.2618
     13  O          9.4960   -2.4300   14.4610 O.2   563  THR563     -0.2717
     14  CB        11.9320    0.0500   15.2500 C.3   563  THR563      0.1784
     15  OG1       13.1560   -0.5030   14.7460 O.3   563  THR563     -0.2211
     16  CG2       11.7580   -0.4360   16.6560 C.3   563  THR563      0.0376
     17  N         11.7070   -2.5930   14.1360 N.am  564  PHE564     -0.1961
     18  CA        11.7370   -4.0390   14.1550 C.3   564  PHE564      0.1771
     19  C         13.0770   -4.4680   14.7420 C.2   564  PHE564      0.2619
     20  O         14.0220   -3.6800   14.7480 O.2   564  PHE564     -0.2715
     21  CB        11.5590   -4.5900   12.7340 C.3   564  PHE564      0.0574
     22  CG        12.6710   -4.2400   11.7970 C.ar  564  PHE564     -0.0200
     23  CD1       13.6780   -5.1570   11.5140 C.ar  564  PHE564     -0.0042
     24  CD2       12.7180   -3.0010   11.1960 C.ar  564  PHE564     -0.0042
     25  CE1       14.7350   -4.8400   10.6300 C.ar  564  PHE564     -0.0003
     26  CE2       13.7730   -2.6610   10.3170 C.ar  564  PHE564     -0.0003
     27  CZ        14.7770   -3.5910   10.0350 C.ar  564  PHE564     -0.0000
     28  N         13.1730   -5.6930   15.2540 N.am  565  MET565     -0.1977
     29  CA        14.4760   -6.1560   15.6900 C.3   565  MET565      0.1605
     30  C         15.1430   -6.8890   14.5760 C.2   565  MET565      0.2287
     31  O         14.5530   -7.7770   13.9700 O.2   565  MET565     -0.2864
     32  CB        14.4100   -7.0460   16.9220 C.3   565  MET565      0.0413
     33  CG        15.8690   -7.3720   17.4420 C.3   565  MET565      0.0598
     34  SD        15.9610   -8.5840   18.8200 S.3   565  MET565     -0.1393
     35  CE        15.1770  -10.0790   18.1410 C.3   565  MET565      0.0692
     36  N         10.8040   -9.3660   14.4820 N.3   571  PRO571     -0.2102
     37  CA         9.6120   -8.8280   15.1070 C.3   571  PRO571      0.1504
     38  C          9.4390   -7.3210   14.9770 C.2   571  PRO571      0.2576
     39  O         10.4170   -6.6040   14.8340 O.2   571  PRO571     -0.2718
     40  CB         9.7900   -9.2030   16.5720 C.3   571  PRO571      0.0282
     41  CG        11.1540   -9.6380   16.7000 C.3   571  PRO571      0.0208
     42  CD        11.5720  -10.1890   15.4180 C.3   571  PRO571      0.0893
     43  N          8.1820   -6.8720   15.0730 N.am  572  LEU572     -0.1966
     44  CA         7.7690   -5.4690   14.9300 C.3   572  LEU572      0.1728
     45  C          7.4090   -4.8070   16.2370 C.2   572  LEU572      0.2616
     46  O          6.6980   -5.3720   17.0700 O.2   572  LEU572     -0.2715
     47  CB         6.5240   -5.3580   14.0810 C.3   572  LEU572      0.0311
     48  CG         6.6010   -5.9100   12.6730 C.3   572  LEU572      0.0022
     49  CD1        5.4020   -5.3640   11.9660 C.3   572  LEU572      0.0001
     50  CD2        7.8850   -5.4500   11.9880 C.3   572  LEU572      0.0001
     51  N          7.8940   -3.5780   16.3860 N.am  573  TRP573     -0.1974
     52  CA         7.6780   -2.7970   17.5710 C.3   573  TRP573      0.1640
     53  C          6.7210   -1.6980   17.1160 C.2   573  TRP573      0.2290
     54  O          7.1120   -0.8250   16.3480 O.2   573  TRP573     -0.2864
     55  CB         9.0330   -2.2560   18.0670 C.3   573  TRP573      0.0576
     56  CG         8.9520   -1.3950   19.3560 C.ar  573  TRP573      0.0006
     57  CD1        8.5200   -0.1060   19.4520 C.ar  573  TRP573      0.0946
     58  CD2        9.3500   -1.7820   20.6870 C.ar  573  TRP573      0.0152
     59  NE1        8.5950    0.3180   20.7450 N.ar  573  TRP573     -0.2442
     60  CE2        9.1050   -0.6800   21.5260 C.ar  573  TRP573      0.0810
     61  CE3        9.8830   -2.9630   21.2470 C.ar  573  TRP573      0.0012
     62  CZ2        9.3510   -0.7050   22.8920 C.ar  573  TRP573      0.0191
     63  CZ3       10.1620   -2.9710   22.6100 C.ar  573  TRP573      0.0001
     64  CH2        9.8800   -1.8420   23.4160 C.ar  573  TRP573      0.0015
     65  N          4.1510   -5.7910   20.3410 N.3   590  ILE590     -0.1245
     66  CA         5.2470   -6.4010   19.5940 C.3   590  ILE590      0.1561
     67  C          4.5560   -7.5040   18.8120 C.2   590  ILE590      0.2260
     68  O          3.8070   -8.2620   19.3970 O.2   590  ILE590     -0.2867
     69  CB         6.3440   -6.9570   20.5410 C.3   590  ILE590      0.0252
     70  CG1        7.1890   -5.8060   21.0230 C.3   590  ILE590      0.0019
     71  CG2        7.2840   -7.8930   19.8390 C.3   590  ILE590      0.0019
     72  CD1        8.2480   -6.1670   22.0770 C.3   590  ILE590      0.0001
     73  N          4.9970  -10.7820   16.6220 N.3   592  LYS592     -0.1245
     74  CA         5.9680  -11.8020   16.2900 C.3   592  LYS592      0.1561
     75  C          5.3130  -12.7440   15.3300 C.2   592  LYS592      0.2260
     76  O          4.1580  -13.1360   15.5140 O.2   592  LYS592     -0.2867
     77  CB         6.3920  -12.5920   17.5150 C.3   592  LYS592      0.0271
     78  CG         7.4040  -11.9250   18.4500 C.3   592  LYS592      0.0035
     79  CD         8.1100  -13.0110   19.3270 C.3   592  LYS592      0.0206
     80  CE         9.4910  -13.3650   18.7820 C.3   592  LYS592      0.1093
     81  NZ        10.4890  -12.4470   19.4480 N.3   592  LYS592     -0.1314
     82  N          7.2930  -17.7810   15.3000 N.3   595  ASP595     -0.1239
     83  CA         7.5160  -18.5470   16.5290 C.3   595  ASP595      0.1674
     84  C          6.2370  -19.0730   17.1040 C.2   595  ASP595      0.2266
     85  O          5.1560  -18.6620   16.7180 O.2   595  ASP595     -0.2867
     86  CB         8.1290  -17.6610   17.5830 C.3   595  ASP595      0.1410
     87  CG         9.6020  -17.5910   17.4540 C.2   595  ASP595      0.3668
     88  OD1       10.2530  -18.6920   17.4630 O.co2 595  ASP595     -0.2456
     89  OD2       10.0880  -16.4370   17.3210 O.co2 595  ASP595     -0.2456
     90  N          4.1390  -18.8230   20.1680 N.3   597  LEU597     -0.1245
     91  CA         3.9160  -18.1890   21.4600 C.3   597  LEU597      0.1561
     92  C          3.0250  -18.9200   22.4790 C.2   597  LEU597      0.2260
     93  O          2.7570  -18.3950   23.5550 O.2   597  LEU597     -0.2867
     94  CB         3.3120  -16.8260   21.2280 C.3   597  LEU597      0.0270
     95  CG         4.1940  -15.7920   20.5330 C.3   597  LEU597      0.0019
     96  CD1        3.5170  -14.4290   20.6200 C.3   597  LEU597      0.0001
     97  CD2        5.6250  -15.7640   21.0800 C.3   597  LEU597      0.0001
     98  N          4.8870  -19.7520   25.9020 N.3   600  ASP600     -0.1239
     99  CA         4.9900  -18.4850   26.6100 C.3   600  ASP600      0.1674
    100  C          3.6710  -18.0530   27.2300 C.2   600  ASP600      0.2266
    101  O          3.6280  -17.5790   28.3470 O.2   600  ASP600     -0.2867
    102  CB         5.3960  -17.3990   25.6590 C.3   600  ASP600      0.1410
    103  CG         6.8710  -17.3130   25.4940 C.2   600  ASP600      0.3668
    104  OD1        7.3640  -17.6380   24.3860 O.co2 600  ASP600     -0.2456
    105  OD2        7.5280  -16.9010   26.4740 O.co2 600  ASP600     -0.2456
    106  N          3.1180   -9.6740   31.8320 N.3   626  TYR626     -0.1241
    107  CA         2.7290   -8.8800   30.6520 C.3   626  TYR626      0.1605
    108  C          1.9620   -9.7140   29.6270 C.2   626  TYR626      0.2264
    109  O          2.1310  -10.9240   29.5600 O.2   626  TYR626     -0.2867
    110  CB         3.9620   -8.2850   29.9740 C.3   626  TYR626      0.0534
    111  CG         4.9360   -9.3610   29.6030 C.ar  626  TYR626     -0.0201
    112  CD1        4.8070  -10.0390   28.4180 C.ar  626  TYR626     -0.0009
    113  CD2        5.9540   -9.7430   30.4680 C.ar  626  TYR626     -0.0009
    114  CE1        5.6980  -11.0650   28.0670 C.ar  626  TYR626      0.0417
    115  CE2        6.8430  -10.7730   30.1420 C.ar  626  TYR626      0.0417
    116  CZ         6.7040  -11.4330   28.9240 C.ar  626  TYR626      0.1957
    117  OH         7.5540  -12.4640   28.5190 O.3   626  TYR626     -0.2866
    118  N          0.4770  -11.6140   26.4420 N.3   628  CYS628     -0.1235
    119  CA         1.0470  -12.3770   25.3530 C.3   628  CYS628      0.1677
    120  C         -0.0410  -13.2620   24.7490 C.2   628  CYS628      0.2270
    121  O         -0.5430  -14.0910   25.4430 O.2   628  CYS628     -0.2867
    122  CB         2.1830  -13.2430   25.8900 C.3   628  CYS628      0.0956
    123  SG         2.7580  -14.3410   24.6530 S.3   628  CYS628     -0.0801
    124  N          2.6410   -9.4320   21.7920 N.3   638  ILE638     -0.1231
    125  CA         3.2660   -9.3840   23.0790 C.3   638  ILE638      0.1692
    126  C          3.1800   -7.9370   23.5210 C.2   638  ILE638      0.2592
    127  O          3.5030   -7.0110   22.7680 O.2   638  ILE638     -0.2718
    128  CB         4.7440   -9.7650   22.9760 C.3   638  ILE638      0.0266
    129  CG1        4.8820  -11.2260   22.6530 C.3   638  ILE638      0.0019
    130  CG2        5.5180   -9.4660   24.2830 C.3   638  ILE638      0.0020
    131  CD1        6.0790  -11.4550   21.8230 C.3   638  ILE638      0.0001
    132  N          2.7760   -7.7170   24.7500 N.am  639  GLU639     -0.1966
    133  CA         2.6800   -6.3520   25.2010 C.3   639  GLU639      0.1733
    134  C          4.0590   -5.7080   25.4420 C.2   639  GLU639      0.2616
    135  O          5.0250   -6.3430   25.8480 O.2   639  GLU639     -0.2715
    136  CB         1.7960   -6.3000   26.4380 C.3   639  GLU639      0.0429
    137  CG         1.7130   -4.9710   27.1230 C.3   639  GLU639      0.1163
    138  CD         1.1430   -5.0730   28.5330 C.2   639  GLU639      0.3649
    139  OE1        0.8690   -6.2110   29.0200 O.co2 639  GLU639     -0.2457
    140  OE2        0.9960   -3.9940   29.1650 O.co2 639  GLU639     -0.2457
    141  N          4.1520   -4.4310   25.1560 N.am  640  VAL640     -0.1963
    142  CA         5.3880   -3.7270   25.3770 C.3   640  VAL640      0.1727
    143  C          5.4630   -3.2930   26.8470 C.2   640  VAL640      0.2616
    144  O          4.5120   -2.7090   27.3910 O.2   640  VAL640     -0.2715
    145  CB         5.5120   -2.5220   24.4120 C.3   640  VAL640      0.0290
    146  CG1        6.5520   -1.6070   24.8910 C.3   640  VAL640      0.0023
    147  CG2        5.8420   -3.0100   23.0100 C.3   640  VAL640      0.0023
    148  N          6.5600   -3.6020   27.5230 N.am  641  VAL641     -0.1977
    149  CA         6.6870   -3.0440   28.8450 C.3   641  VAL641      0.1596
    150  C          7.6050   -1.8420   28.6800 C.2   641  VAL641      0.2287
    151  O          8.7660   -2.0420   28.4770 O.2   641  VAL641     -0.2864
    152  CB         7.2680   -4.0610   29.8380 C.3   641  VAL641      0.0276
    153  CG1        7.5840   -3.3870   31.1580 C.3   641  VAL641      0.0022
    154  CG2        6.3380   -5.2190   30.0400 C.3   641  VAL641      0.0022
    155  N         11.9490   -0.1560   30.4490 N.3   644  SER644     -0.1202
    156  CA        12.6510   -1.3390   30.8790 C.3   644  SER644      0.2020
    157  C         13.8610   -1.6340   29.9850 C.2   644  SER644      0.2619
    158  O         14.0810   -0.9840   28.9640 O.2   644  SER644     -0.2717
    159  CB        11.6770   -2.5230   30.9150 C.3   644  SER644      0.2103
    160  OG        11.2160   -2.8940   29.6190 O.3   644  SER644     -0.2182
    161  N         14.6760   -2.5890   30.3810 N.am  645  ASP645     -0.1959
    162  CA        15.7560   -3.0020   29.5080 C.3   645  ASP645      0.1840
    163  C         16.1740   -4.4010   29.8310 C.2   645  ASP645      0.2622
    164  O         15.7080   -4.9830   30.7960 O.2   645  ASP645     -0.2715
    165  CB        16.9690   -2.0780   29.6000 C.3   645  ASP645      0.1450
    166  CG        17.6230   -1.8730   28.2570 C.2   645  ASP645      0.3671
    167  OD1       17.4070   -2.6980   27.3420 O.co2 645  ASP645     -0.2456
    168  OD2       18.3410   -0.8690   28.1050 O.co2 645  ASP645     -0.2456
    169  N         17.0420   -4.9530   29.0020 N.am  646  THR646     -0.1951
    170  CA        17.6180   -6.2400   29.3180 C.3   646  THR646      0.1897
    171  C         18.8670   -6.0610   30.1580 C.2   646  THR646      0.2313
    172  O         19.6870   -5.1720   29.8960 O.2   646  THR646     -0.2863
    173  CB        17.8830   -7.1010   28.0600 C.3   646  THR646      0.1794
    174  OG1       18.9070   -6.5150   27.2430 O.3   646  THR646     -0.2208
    175  CG2       16.5870   -7.2230   27.2600 C.3   646  THR646      0.0378
    176  N         21.9340   -5.9040   28.2640 N.3   649  ASN649     -0.1240
    177  CA        22.0590   -4.6020   27.6730 C.3   649  ASN649      0.1653
    178  C         22.7010   -3.5680   28.5940 C.2   649  ASN649      0.2266
    179  O         23.4950   -2.7190   28.1470 O.2   649  ASN649     -0.2867
    180  CB        20.6580   -4.1540   27.3330 C.3   649  ASN649      0.1155
    181  CG        20.5000   -3.8780   25.9100 C.2   649  ASN649      0.2627
    182  OD1       21.1650   -4.4880   25.0530 O.2   649  ASN649     -0.2716
    183  ND2       19.6380   -2.9280   25.6150 N.am  649  ASN649     -0.0877
    184  N         14.7350   -9.0000   32.3140 N.3   713  MET713     -0.1245
    185  CA        14.6300   -7.5360   32.2380 C.3   713  MET713      0.1570
    186  C         14.4360   -6.8380   33.5940 C.2   713  MET713      0.2261
    187  O         14.0340   -7.4980   34.5530 O.2   713  MET713     -0.2867
    188  CB        13.5590   -7.1460   31.2390 C.3   713  MET713      0.0387
    189  CG        14.0500   -7.4470   29.8280 C.3   713  MET713      0.0595
    190  SD        12.8740   -7.0400   28.5330 S.3   713  MET713     -0.1393
    191  CE        12.9330   -5.2270   28.6010 C.3   713  MET713      0.0692
    192  N         12.0470   -8.7160   35.6660 N.3   721  PHE721     -0.1241
    193  CA        11.1670   -9.7630   35.1800 C.3   721  PHE721      0.1605
    194  C         11.7910  -10.6340   34.1310 C.2   721  PHE721      0.2264
    195  O         12.7550  -10.2210   33.4770 O.2   721  PHE721     -0.2867
    196  CB         9.8470   -9.2120   34.6900 C.3   721  PHE721      0.0534
    197  CG         9.9440   -8.2960   33.5190 C.ar  721  PHE721     -0.0203
    198  CD1        9.6330   -8.7490   32.2440 C.ar  721  PHE721     -0.0042
    199  CD2       10.2340   -6.9480   33.6920 C.ar  721  PHE721     -0.0042
    200  CE1        9.6550   -7.8700   31.1420 C.ar  721  PHE721     -0.0003
    201  CE2       10.2820   -6.0590   32.5980 C.ar  721  PHE721     -0.0003
    202  CZ         9.9950   -6.5250   31.3160 C.ar  721  PHE721     -0.0000
    203  N         11.4300  -12.8010   30.5490 N.3   723  ILE723     -0.1231
    204  CA        10.7170  -12.8700   29.2900 C.3   723  ILE723      0.1692
    205  C         11.2020  -14.0490   28.5160 C.2   723  ILE723      0.2592
    206  O         12.0750  -14.7870   28.9390 O.2   723  ILE723     -0.2718
    207  CB        11.0350  -11.6960   28.4150 C.3   723  ILE723      0.0266
    208  CG1       12.5640  -11.5670   28.2940 C.3   723  ILE723      0.0019
    209  CG2       10.3650  -10.4710   28.9650 C.3   723  ILE723      0.0020
    210  CD1       13.0040  -10.7690   27.1150 C.3   723  ILE723      0.0001
    211  N         10.6260  -14.1840   27.3370 N.am  724  ASP724     -0.1974
    212  CA        10.9510  -15.2370   26.3880 C.3   724  ASP724      0.1709
    213  C         11.0610  -16.6520   26.9200 C.2   724  ASP724      0.2293
    214  O         12.1480  -17.2080   26.8930 O.2   724  ASP724     -0.2864
    215  CB        12.2630  -14.9450   25.6930 C.3   724  ASP724      0.1436
    216  CG        12.3030  -15.5640   24.3480 C.2   724  ASP724      0.3671
    217  OD1       11.2040  -15.7380   23.7850 O.co2 724  ASP724     -0.2456
    218  OD2       13.3850  -15.8720   23.8280 O.co2 724  ASP724     -0.2456
@<TRIPOS>BOND
     1     1     2    1
     2     4     3    2
     3     3     2    1
     4     2     5    1
     5    27    26   ar
     6    27    25   ar
     7    26    24   ar
     8     5     6    1
     9    25    23   ar
    10    24    22   ar
    11     6     7    1
    12    23    22   ar
    13    22    21    1
    14    49    48    1
    15    50    48    1
    16    48    47    1
    17    21    18    1
    18     7     8    1
    19     8     9    1
    20    31    30    2
    21    47    44    1
    22    17    18    1
    23    17    12   am
    24    18    19    1
    25    12    11    1
    26    12    13    2
    27    11    10    1
    28    11    14    1
    29    36    37    1
    30    36    42    1
    31    30    29    1
    32    19    20    2
    33    19    28   am
    34    15    14    1
    35    39    38    2
    36    44    43    1
    37    44    45    1
    38    38    43   am
    39    38    37    1
    40    37    40    1
    41    14    16    1
    42    28    29    1
    43    82    83    1
    44    75    76    2
    45    75    74    1
    46    42    41    1
    47    29    32    1
    48    45    51   am
    49    45    46    2
    50    74    73    1
    51    74    77    1
    52    54    53    2
    53    51    52    1
    54    83    84    1
    55    83    86    1
    56    40    41    1
    57    85    84    2
    58    32    33    1
    59    53    52    1
    60    89    87   ar
    61    33    34    1
    62    87    88   ar
    63    87    86    1
    64    77    78    1
    65    52    55    1
    66    55    56    1
    67    35    34    1
    68    78    79    1
    69    80    79    1
    70    80    81    1
    71    67    68    2
    72    67    66    1
    73    56    57   ar
    74    56    58   ar
    75    57    59   ar
    76    66    65    1
    77    66    69    1
    78    71    69    1
    79    90    91    1
    80    95    96    1
    81    95    97    1
    82    95    94    1
    83    69    70    1
    84    58    61   ar
    85    58    60   ar
    86    59    60   ar
    87    70    72    1
    88    94    91    1
    89    61    63   ar
    90    91    92    1
    91    60    62   ar
    92   124   125    1
    93   131   129    1
    94    92    93    2
    95    63    64   ar
    96   129   128    1
    97   127   126    2
    98    62    64   ar
    99   128   125    1
   100   128   130    1
   101   147   145    1
   102   125   126    1
   103   126   132   am
   104   217   216   ar
   105   218   216   ar
   106   216   215    1
   107   104   103   ar
   108   145   146    1
   109   145   142    1
   110   123   122    1
   111   120   119    1
   112   120   121    2
   113   132   133    1
   114   182   181    2
   115   141   142    1
   116   141   134   am
   117   133   134    1
   118   133   136    1
   119   119   122    1
   120   119   118    1
   121   142   143    1
   122   134   135    2
   123   103   102    1
   124   103   105   ar
   125   183   181   am
   126   102    99    1
   127   215   212    1
   128    98    99    1
   129   181   180    1
   130   212   213    1
   131   212   211    1
   132   136   137    1
   133    99   100    1
   134   143   144    2
   135   143   148   am
   136   214   213    2
   137   210   208    1
   138   137   138    1
   139   100   101    2
   140   174   173    1
   141   175   173    1
   142   180   177    1
   143   211   205   am
   144   167   166   ar
   145   148   149    1
   146   177   176    1
   147   177   178    1
   148   173   170    1
   149   114   112   ar
   150   114   116   ar
   151   168   166   ar
   152   179   178    2
   153   166   165    1
   154   208   207    1
   155   207   209    1
   156   207   204    1
   157   112   111   ar
   158   151   150    2
   159   205   206    2
   160   205   204    1
   161   117   116    1
   162   138   139   ar
   163   138   140   ar
   164   190   191    1
   165   190   189    1
   166   150   149    1
   167   149   152    1
   168   116   115   ar
   169   158   157    2
   170   169   170    1
   171   169   163   am
   172   204   203    1
   173   170   171    1
   174   162   165    1
   175   162   163    1
   176   162   161    1
   177   109   108    2
   178   111   110    1
   179   111   113   ar
   180   160   159    1
   181   108   107    1
   182   189   188    1
   183   163   164    2
   184   152   154    1
   185   152   153    1
   186   172   171    2
   187   110   107    1
   188   157   161   am
   189   157   156    1
   190   115   113   ar
   191   155   156    1
   192   107   106    1
   193   156   159    1
   194   200   202   ar
   195   200   198   ar
   196   188   185    1
   197   202   201   ar
   198   185   184    1
   199   185   186    1
   200   198   197   ar
   201   201   199   ar
   202   195   194    2
   203   197   199   ar
   204   197   196    1
   205   186   187    2
   206   194   193    1
   207   196   193    1
   208   193   192    1
