@<TRIPOS>MOLECULE
tmp/2wxlA00.pdb
 200 189 0 0 0
SMALL
GASTEIGER

@<TRIPOS>ATOM
      1  N         -5.5840  -33.0590   15.3560 N.3   557  MET557     -0.1245
      2  CA        -6.1560  -34.2320   16.0290 C.3   557  MET557      0.1570
      3  C         -7.1300  -35.0530   15.2100 C.2   557  MET557      0.2261
      4  O         -7.6360  -34.6060   14.1740 O.2   557  MET557     -0.2867
      5  CB        -6.7430  -33.7760   17.3420 C.3   557  MET557      0.0387
      6  CG        -5.6470  -33.0830   18.0500 C.3   557  MET557      0.0595
      7  SD        -5.9410  -32.7870   19.7260 S.3   557  MET557     -0.1393
      8  CE        -7.1390  -31.4330   19.6700 C.3   557  MET557      0.0692
      9  N        -10.1320  -36.5420   15.7670 N.3   559  SER559     -0.1217
     10  CA       -11.5880  -36.4350   15.8290 C.3   559  SER559      0.1889
     11  C        -12.1740  -35.8370   14.5490 C.2   559  SER559      0.2288
     12  O        -11.4420  -35.3320   13.6710 O.2   559  SER559     -0.2866
     13  CB       -12.0130  -35.6220   17.0500 C.3   559  SER559      0.2089
     14  OG       -11.4580  -34.3020   16.9980 O.3   559  SER559     -0.2183
     15  N         -9.3420  -30.9140   14.5560 N.3   563  PRO563     -0.2116
     16  CA        -8.8760  -29.6700   15.1510 C.3   563  PRO563      0.1372
     17  C         -7.3540  -29.4720   15.0370 C.2   563  PRO563      0.2244
     18  O         -6.5810  -30.4450   15.1300 O.2   563  PRO563     -0.2868
     19  CB        -9.2780  -29.8020   16.6380 C.3   563  PRO563      0.0268
     20  CG        -9.8950  -31.1200   16.8090 C.3   563  PRO563      0.0207
     21  CD       -10.2110  -31.6760   15.4850 C.3   563  PRO563      0.0892
     22  N         -3.6630  -28.0540   16.2890 N.3   565  TRP565     -0.1241
     23  CA        -2.9230  -27.8980   17.5190 C.3   565  TRP565      0.1605
     24  C         -1.7460  -27.0220   17.1160 C.2   565  TRP565      0.2264
     25  O         -0.8510  -27.4850   16.4230 O.2   565  TRP565     -0.2867
     26  CB        -2.4410  -29.2790   18.0090 C.3   565  TRP565      0.0550
     27  CG        -1.6530  -29.2960   19.2930 C.ar  565  TRP565      0.0003
     28  CD1       -0.3040  -29.0200   19.4510 C.ar  565  TRP565      0.0946
     29  CD2       -2.1430  -29.6200   20.5970 C.ar  565  TRP565      0.0152
     30  NE1        0.0530  -29.1560   20.7740 N.ar  565  TRP565     -0.2442
     31  CE2       -1.0470  -29.5300   21.4960 C.ar  565  TRP565      0.0810
     32  CE3       -3.3970  -29.9800   21.0950 C.ar  565  TRP565      0.0012
     33  CZ2       -1.1710  -29.8000   22.8690 C.ar  565  TRP565      0.0191
     34  CZ3       -3.5220  -30.2340   22.4550 C.ar  565  TRP565      0.0001
     35  CH2       -2.4130  -30.1540   23.3260 C.ar  565  TRP565      0.0015
     36  N         -5.6650  -24.3950   20.2940 N.3   582  ILE582     -0.1245
     37  CA        -6.4020  -25.2570   19.4030 C.3   582  ILE582      0.1561
     38  C         -7.4250  -24.4490   18.6090 C.2   582  ILE582      0.2260
     39  O         -8.1640  -23.6680   19.1780 O.2   582  ILE582     -0.2867
     40  CB        -7.0920  -26.4140   20.1870 C.3   582  ILE582      0.0252
     41  CG1       -6.0450  -27.3410   20.7980 C.3   582  ILE582      0.0019
     42  CG2       -7.9460  -27.2700   19.2500 C.3   582  ILE582      0.0019
     43  CD1       -6.6600  -28.3010   21.9290 C.3   582  ILE582      0.0001
     44  N        -10.5850  -24.9530   16.2060 N.3   584  LYS584     -0.1245
     45  CA       -11.6080  -25.9470   15.8630 C.3   584  LYS584      0.1561
     46  C        -12.7140  -25.3200   15.0410 C.2   584  LYS584      0.2260
     47  O        -13.2700  -24.2780   15.4170 O.2   584  LYS584     -0.2867
     48  CB       -12.1840  -26.6400   17.1070 C.3   584  LYS584      0.0271
     49  CG       -13.2930  -27.6500   16.7310 C.3   584  LYS584      0.0035
     50  CD       -13.2980  -28.8790   17.5910 C.3   584  LYS584      0.0206
     51  CE       -14.0730  -28.6830   18.8510 C.3   584  LYS584      0.1093
     52  NZ       -14.5280  -30.0450   19.2830 N.3   584  LYS584     -0.1314
     53  N        -19.0280  -23.9480   19.6050 N.3   589  LEU589     -0.1245
     54  CA       -18.2700  -23.9050   20.8540 C.3   589  LEU589      0.1561
     55  C        -18.9550  -23.1230   22.0030 C.2   589  LEU589      0.2260
     56  O        -18.4350  -23.0670   23.1080 O.2   589  LEU589     -0.2867
     57  CB       -16.8250  -23.3680   20.6290 C.3   589  LEU589      0.0270
     58  CG       -15.7750  -24.3820   20.1140 C.3   589  LEU589      0.0019
     59  CD1      -14.4170  -23.7290   19.8420 C.3   589  LEU589      0.0001
     60  CD2      -15.5830  -25.5690   21.0770 C.3   589  LEU589      0.0001
     61  N        -19.4890  -25.0900   25.2330 N.3   592  ASP592     -0.1239
     62  CA       -18.2290  -25.3440   25.9110 C.3   592  ASP592      0.1674
     63  C        -17.7560  -24.0860   26.6190 C.2   592  ASP592      0.2266
     64  O        -17.3090  -24.1740   27.7620 O.2   592  ASP592     -0.2867
     65  CB       -17.1590  -25.8200   24.9370 C.3   592  ASP592      0.1410
     66  CG       -17.4640  -27.2060   24.3920 C.2   592  ASP592      0.3668
     67  OD1      -17.5270  -28.1630   25.1840 O.co2 592  ASP592     -0.2456
     68  OD2      -17.6370  -27.3230   23.1780 O.co2 592  ASP592     -0.2456
     69  N        -17.1610  -23.9330   30.6730 N.3   596  LEU596     -0.1245
     70  CA       -15.8990  -23.4700   31.2700 C.3   596  LEU596      0.1561
     71  C        -16.0310  -22.1820   32.0890 C.2   596  LEU596      0.2260
     72  O        -15.4280  -22.0670   33.1620 O.2   596  LEU596     -0.2867
     73  CB       -14.8210  -23.3320   30.1980 C.3   596  LEU596      0.0270
     74  CG       -14.3970  -24.7330   29.7070 C.3   596  LEU596      0.0019
     75  CD1      -13.7700  -24.6060   28.2910 C.3   596  LEU596      0.0001
     76  CD2      -13.4260  -25.3780   30.7180 C.3   596  LEU596      0.0001
     77  N         -8.9900  -23.0260   31.8680 N.3   618  TYR618     -0.1241
     78  CA        -8.4350  -22.6230   30.5660 C.3   618  TYR618      0.1605
     79  C         -9.4520  -21.9630   29.6280 C.2   618  TYR618      0.2264
     80  O        -10.6650  -22.1820   29.7330 O.2   618  TYR618     -0.2867
     81  CB        -7.8090  -23.8260   29.8510 C.3   618  TYR618      0.0534
     82  CG        -8.8300  -24.9200   29.4860 C.ar  618  TYR618     -0.0201
     83  CD1       -9.3720  -25.0010   28.2110 C.ar  618  TYR618     -0.0009
     84  CD2       -9.1890  -25.9050   30.4110 C.ar  618  TYR618     -0.0009
     85  CE1      -10.2850  -26.0950   27.8560 C.ar  618  TYR618      0.0417
     86  CE2      -10.0930  -26.9410   30.0750 C.ar  618  TYR618      0.0417
     87  CZ       -10.6220  -27.0130   28.8120 C.ar  618  TYR618      0.1957
     88  OH       -11.5160  -27.9850   28.5150 O.3   618  TYR618     -0.2866
     89  N        -11.7540  -20.7960   26.3730 N.3   620  CYS620     -0.1235
     90  CA       -12.4180  -21.2900   25.2040 C.3   620  CYS620      0.1677
     91  C        -13.2270  -20.1300   24.6220 C.2   620  CYS620      0.2270
     92  O        -13.9350  -19.4600   25.3570 O.2   620  CYS620     -0.2867
     93  CB       -13.2310  -22.5210   25.5660 C.3   620  CYS620      0.0956
     94  SG       -14.3950  -23.0710   24.3710 S.3   620  CYS620     -0.0801
     95  N         -9.3680  -22.8730   21.5730 N.3   630  ILE630     -0.1231
     96  CA        -9.2770  -23.4560   22.9150 C.3   630  ILE630      0.1692
     97  C         -7.8220  -23.3280   23.3900 C.2   630  ILE630      0.2592
     98  O         -6.8620  -23.5950   22.6330 O.2   630  ILE630     -0.2718
     99  CB        -9.6860  -24.9410   22.9000 C.3   630  ILE630      0.0266
    100  CG1      -11.1300  -25.0980   22.3970 C.3   630  ILE630      0.0019
    101  CG2       -9.5970  -25.5470   24.3170 C.3   630  ILE630      0.0020
    102  CD1      -11.3850  -26.4480   21.6410 C.3   630  ILE630      0.0001
    103  N         -7.6560  -22.9240   24.6390 N.am  631  GLU631     -0.1966
    104  CA        -6.3400  -22.7330   25.2080 C.3   631  GLU631      0.1733
    105  C         -5.7560  -24.1130   25.5450 C.2   631  GLU631      0.2616
    106  O         -6.4450  -24.9560   26.1310 O.2   631  GLU631     -0.2715
    107  CB        -6.4690  -21.9430   26.4910 C.3   631  GLU631      0.0429
    108  CG        -5.1740  -21.7380   27.1820 C.3   631  GLU631      0.1163
    109  CD        -5.3140  -21.0600   28.5120 C.2   631  GLU631      0.3649
    110  OE1       -6.4410  -20.6520   28.8680 O.co2 631  GLU631     -0.2457
    111  OE2       -4.2540  -20.8920   29.1630 O.co2 631  GLU631     -0.2457
    112  N         -4.4970  -24.3110   25.1890 N.am  632  VAL632     -0.1963
    113  CA        -3.7790  -25.5230   25.5330 C.3   632  VAL632      0.1727
    114  C         -3.1530  -25.4050   26.9210 C.2   632  VAL632      0.2616
    115  O         -2.4350  -24.4420   27.2130 O.2   632  VAL632     -0.2715
    116  CB        -2.6970  -25.8760   24.4920 C.3   632  VAL632      0.0290
    117  CG1       -1.7490  -26.9950   25.0270 C.3   632  VAL632      0.0023
    118  CG2       -3.3410  -26.3040   23.1600 C.3   632  VAL632      0.0023
    119  N         -3.4860  -26.3670   27.7770 N.am  633  VAL633     -0.1977
    120  CA        -2.8000  -26.5470   29.0280 C.3   633  VAL633      0.1596
    121  C         -1.6880  -27.5590   28.7300 C.2   633  VAL633      0.2287
    122  O         -1.9560  -28.7360   28.4440 O.2   633  VAL633     -0.2864
    123  CB        -3.7560  -27.1420   30.1200 C.3   633  VAL633      0.0276
    124  CG1       -3.0200  -27.3480   31.4750 C.3   633  VAL633      0.0022
    125  CG2       -4.9680  -26.2470   30.3110 C.3   633  VAL633      0.0022
    126  N          0.0110  -31.9380   29.9910 N.3   636  SER636     -0.1202
    127  CA        -1.1490  -32.6940   30.4110 C.3   636  SER636      0.2020
    128  C         -1.4100  -33.8110   29.3950 C.2   636  SER636      0.2619
    129  O         -0.9660  -33.7520   28.2550 O.2   636  SER636     -0.2717
    130  CB        -2.3850  -31.7480   30.6100 C.3   636  SER636      0.2103
    131  OG        -2.7550  -31.1710   29.3750 O.3   636  SER636     -0.2182
    132  N         -2.1010  -34.8590   29.8140 N.am  637  ASP637     -0.1959
    133  CA        -2.4700  -35.9340   28.8860 C.3   637  ASP637      0.1840
    134  C         -3.7910  -36.5230   29.3230 C.2   637  ASP637      0.2622
    135  O         -4.1720  -36.3610   30.4720 O.2   637  ASP637     -0.2715
    136  CB        -1.3840  -37.0390   28.8230 C.3   637  ASP637      0.1450
    137  CG        -1.3620  -37.7370   27.4780 C.2   637  ASP637      0.3671
    138  OD1       -2.2570  -37.4620   26.6540 O.co2 637  ASP637     -0.2456
    139  OD2       -0.4590  -38.5620   27.2170 O.co2 637  ASP637     -0.2456
    140  N         -4.4730  -37.2380   28.4280 N.am  638  THR638     -0.1951
    141  CA        -5.7690  -37.8290   28.7640 C.3   638  THR638      0.1897
    142  C         -5.5810  -39.0240   29.6700 C.2   638  THR638      0.2313
    143  O         -4.6030  -39.7900   29.5300 O.2   638  THR638     -0.2863
    144  CB        -6.5510  -38.3340   27.5120 C.3   638  THR638      0.1794
    145  OG1       -5.8200  -39.3950   26.8920 O.3   638  THR638     -0.2208
    146  CG2       -6.8170  -37.2130   26.4960 C.3   638  THR638      0.0378
    147  N        -11.3290  -40.4850   27.8890 N.3   702  ASP702     -0.1239
    148  CA       -10.9090  -39.7280   26.7200 C.3   702  ASP702      0.1674
    149  C        -11.2090  -38.2250   26.8360 C.2   702  ASP702      0.2266
    150  O        -10.6580  -37.4300   26.0700 O.2   702  ASP702     -0.2867
    151  CB       -11.5560  -40.3010   25.4420 C.3   702  ASP702      0.1410
    152  CG       -10.8680  -41.5660   24.9490 C.2   702  ASP702      0.3668
    153  OD1      -11.5450  -42.6010   24.7430 O.co2 702  ASP702     -0.2456
    154  OD2       -9.6380  -41.5250   24.7350 O.co2 702  ASP702     -0.2456
    155  N         -8.5260  -35.0420   31.5530 N.3   705  MET705     -0.1245
    156  CA        -7.0850  -34.9280   31.4120 C.3   705  MET705      0.1570
    157  C         -6.4200  -34.7220   32.7590 C.2   705  MET705      0.2261
    158  O         -7.0590  -34.2960   33.7000 O.2   705  MET705     -0.2867
    159  CB        -6.7300  -33.7860   30.4390 C.3   705  MET705      0.0387
    160  CG        -7.1870  -34.1000   29.0290 C.3   705  MET705      0.0595
    161  SD        -6.6670  -32.9260   27.7840 S.3   705  MET705     -0.1393
    162  CE        -4.9750  -33.4310   27.4500 C.3   705  MET705      0.0692
    163  N         -8.5410  -32.1640   35.0230 N.3   713  PHE713     -0.1241
    164  CA        -9.5680  -31.2330   34.4880 C.3   713  PHE713      0.1605
    165  C        -10.3250  -31.8980   33.3400 C.2   713  PHE713      0.2264
    166  O         -9.9530  -33.0100   32.9150 O.2   713  PHE713     -0.2867
    167  CB        -8.9130  -29.8840   34.0620 C.3   713  PHE713      0.0534
    168  CG        -7.8830  -30.0260   32.9760 C.ar  713  PHE713     -0.0203
    169  CD1       -8.2460  -29.9190   31.6410 C.ar  713  PHE713     -0.0042
    170  CD2       -6.5400  -30.3340   33.2970 C.ar  713  PHE713     -0.0042
    171  CE1       -7.2930  -30.0700   30.6140 C.ar  713  PHE713     -0.0003
    172  CE2       -5.5820  -30.4730   32.2960 C.ar  713  PHE713     -0.0003
    173  CZ        -5.9510  -30.3450   30.9490 C.ar  713  PHE713     -0.0000
    174  N        -12.3370  -31.9320   29.3670 N.3   715  ILE715     -0.1231
    175  CA       -12.4240  -31.3460   28.0330 C.3   715  ILE715      0.1692
    176  C        -13.6900  -31.8330   27.3370 C.2   715  ILE715      0.2592
    177  O        -14.3430  -32.7570   27.8250 O.2   715  ILE715     -0.2718
    178  CB       -11.1620  -31.6570   27.1510 C.3   715  ILE715      0.0266
    179  CG1      -10.9380  -33.1870   27.0520 C.3   715  ILE715      0.0019
    180  CG2       -9.9200  -30.9280   27.7130 C.3   715  ILE715      0.0020
    181  CD1       -9.9280  -33.5900   25.9700 C.3   715  ILE715      0.0001
    182  N        -14.0180  -31.1780   26.2160 N.am  716  ASP716     -0.1960
    183  CA       -15.0320  -31.6070   25.2480 C.3   716  ASP716      0.1840
    184  C        -16.3860  -31.9150   25.9000 C.2   716  ASP716      0.2622
    185  O        -16.8190  -33.0630   25.9420 O.2   716  ASP716     -0.2715
    186  CB       -14.5070  -32.8020   24.4350 C.3   716  ASP716      0.1450
    187  CG       -15.2330  -32.9850   23.1130 C.2   716  ASP716      0.3671
    188  OD1      -14.6670  -33.6570   22.2270 O.co2 716  ASP716     -0.2456
    189  OD2      -16.3480  -32.4610   22.9330 O.co2 716  ASP716     -0.2456
    190  N        -17.0200  -30.8720   26.4270 N.am  717  PHE717     -0.1974
    191  CA       -18.3480  -30.9540   27.0320 C.3   717  PHE717      0.1639
    192  C        -19.3920  -30.7980   25.9210 C.2   717  PHE717      0.2290
    193  O        -19.7720  -29.6790   25.5660 O.2   717  PHE717     -0.2864
    194  CB       -18.6020  -29.8040   28.0240 C.3   717  PHE717      0.0560
    195  CG       -17.4410  -29.4530   28.9050 C.ar  717  PHE717     -0.0200
    196  CD1      -16.4850  -28.5330   28.4890 C.ar  717  PHE717     -0.0042
    197  CD2      -17.3430  -29.9880   30.1800 C.ar  717  PHE717     -0.0042
    198  CE1      -15.4210  -28.2110   29.3100 C.ar  717  PHE717     -0.0003
    199  CE2      -16.3020  -29.6460   31.0160 C.ar  717  PHE717     -0.0003
    200  CZ       -15.3380  -28.7600   30.5850 C.ar  717  PHE717     -0.0000
@<TRIPOS>BOND
     1    12    11    2
     2     4     3    2
     3    11    10    1
     4    15    16    1
     5    15    21    1
     6    17    18    2
     7    17    16    1
     8    46    47    2
     9    46    45    1
    10    16    19    1
    11     3     2    1
    12     1     2    1
    13    21    20    1
    14     9    10    1
    15    10    13    1
    16    45    44    1
    17    45    48    1
    18     2     5    1
    19    22    23    1
    20    25    24    2
    21    19    20    1
    22    49    48    1
    23    49    50    1
    24    14    13    1
    25    24    23    1
    26     5     6    1
    27    23    26    1
    28    50    51    1
    29    26    27    1
    30     6     7    1
    31    38    39    2
    32    38    37    1
    33    51    52    1
    34    42    40    1
    35    27    28   ar
    36    27    29   ar
    37    37    40    1
    38    37    36    1
    39    28    30   ar
    40    53    54    1
    41     8     7    1
    42    59    58    1
    43    58    57    1
    44    58    60    1
    45    40    41    1
    46    29    32   ar
    47    29    31   ar
    48    57    54    1
    49    30    31   ar
    50    41    43    1
    51    54    55    1
    52    32    34   ar
    53    31    33   ar
    54    95    96    1
    55   102   100    1
    56    55    56    2
    57   188   187   ar
    58   100    99    1
    59    34    35   ar
    60    98    97    2
    61    33    35   ar
    62    99    96    1
    63    99   101    1
    64    96    97    1
    65   189   187   ar
    66   187   186    1
    67   118   116    1
    68    68    66   ar
    69    97   103   am
    70    94    93    1
    71    66    65    1
    72    66    67   ar
    73   186   183    1
    74   116   117    1
    75   116   113    1
    76    91    90    1
    77    91    92    2
    78   103   104    1
    79   154   152   ar
    80   153   152   ar
    81    65    62    1
    82   152   151    1
    83   112   113    1
    84   112   105   am
    85    90    93    1
    86    90    89    1
    87   104   105    1
    88   104   107    1
    89    61    62    1
    90   183   184    1
    91   183   182    1
    92   151   148    1
    93   113   114    1
    94   105   106    2
    95   193   192    2
    96   184   185    2
    97   184   190   am
    98    62    63    1
    99   192   191    1
   100   181   179    1
   101   150   149    2
   102   182   176   am
   103   190   191    1
   104   107   108    1
   105   146   144    1
   106    63    64    2
   107   138   137   ar
   108   148   149    1
   109   148   147    1
   110   145   144    1
   111   114   115    2
   112   114   119   am
   113   191   194    1
   114   179   178    1
   115   178   180    1
   116   178   175    1
   117   108   109    1
   118   139   137   ar
   119   176   177    2
   120   176   175    1
   121   162   161    1
   122   137   136    1
   123   144   141    1
   124   119   120    1
   125   161   160    1
   126    85    83   ar
   127    85    87   ar
   128   194   195    1
   129   175   174    1
   130    83    82   ar
   131   129   128    2
   132    75    74    1
   133   140   141    1
   134   140   134   am
   135   122   121    2
   136   196   195   ar
   137   196   198   ar
   138   109   110   ar
   139   109   111   ar
   140    88    87    1
   141   121   120    1
   142   141   142    1
   143    87    86   ar
   144   136   133    1
   145   133   134    1
   146   133   132    1
   147   195   197   ar
   148   120   123    1
   149   160   159    1
   150   198   200   ar
   151   134   135    2
   152   131   130    1
   153   128   132   am
   154   128   127    1
   155    82    81    1
   156    82    84   ar
   157   143   142    2
   158    79    80    2
   159    79    78    1
   160    74    73    1
   161    74    76    1
   162    81    78    1
   163   126   127    1
   164    86    84   ar
   165   123   125    1
   166   123   124    1
   167   197   199   ar
   168    73    70    1
   169   127   130    1
   170   159   156    1
   171    78    77    1
   172   200   199   ar
   173   171   173   ar
   174   171   169   ar
   175    69    70    1
   176   173   172   ar
   177    70    71    1
   178   156   155    1
   179   156   157    1
   180   169   168   ar
   181    71    72    2
   182   172   170   ar
   183   157   158    2
   184   166   165    2
   185   168   170   ar
   186   168   167    1
   187   165   164    1
   188   167   164    1
   189   164   163    1
