@<TRIPOS>MOLECULE
tmp/2wxmA00.pdb
 183 172 0 0 0
SMALL
GASTEIGER

@<TRIPOS>ATOM
      1  N         -5.4220   -1.2540   15.5600 N.3   556  MET556     -0.1245
      2  CA        -6.0190   -2.3600   16.2820 C.3   556  MET556      0.1570
      3  C         -6.8850   -3.1820   15.3700 C.2   556  MET556      0.2261
      4  O         -7.4370   -2.6550   14.4240 O.2   556  MET556     -0.2867
      5  CB        -6.8240   -1.8230   17.4300 C.3   556  MET556      0.0387
      6  CG        -5.9460   -1.3490   18.5200 C.3   556  MET556      0.0595
      7  SD        -6.8010   -0.0680   19.4080 S.3   556  MET556     -0.1393
      8  CE        -5.6160    1.2640   19.2530 C.3   556  MET556      0.0692
      9  N         -9.3570    0.8140   14.7020 N.3   562  PRO562     -0.2116
     10  CA        -8.8870    2.0590   15.2900 C.3   562  PRO562      0.1372
     11  C         -7.3990    2.2960   15.0760 C.2   562  PRO562      0.2244
     12  O         -6.6020    1.3920   15.1630 O.2   562  PRO562     -0.2868
     13  CB        -9.1800    1.8720   16.7910 C.3   562  PRO562      0.0268
     14  CG       -10.2220    0.8910   16.8370 C.3   562  PRO562      0.0207
     15  CD        -9.9630   -0.0530   15.7220 C.3   562  PRO562      0.0892
     16  N         -3.7010    3.6350   16.1490 N.3   564  TRP564     -0.1241
     17  CA        -2.8800    3.7780   17.3650 C.3   564  TRP564      0.1605
     18  C         -1.7260    4.7070   17.0530 C.2   564  TRP564      0.2264
     19  O         -0.7960    4.3150   16.3720 O.2   564  TRP564     -0.2867
     20  CB        -2.3620    2.3930   17.8350 C.3   564  TRP564      0.0550
     21  CG        -1.4410    2.3730   19.0820 C.ar  564  TRP564      0.0003
     22  CD1       -0.0890    2.6370   19.1090 C.ar  564  TRP564      0.0946
     23  CD2       -1.8040    2.0620   20.4540 C.ar  564  TRP564      0.0152
     24  NE1        0.3850    2.5520   20.3910 N.ar  564  TRP564     -0.2442
     25  CE2       -0.6230    2.1610   21.2270 C.ar  564  TRP564      0.0810
     26  CE3       -3.0070    1.7050   21.0950 C.ar  564  TRP564      0.0012
     27  CZ2       -0.6070    1.9330   22.6060 C.ar  564  TRP564      0.0191
     28  CZ3       -2.9940    1.4850   22.4440 C.ar  564  TRP564      0.0001
     29  CH2       -1.7950    1.6120   23.2010 C.ar  564  TRP564      0.0015
     30  N         -5.7090    7.3020   20.2260 N.3   581  ILE581     -0.1245
     31  CA        -6.3740    6.3300   19.3600 C.3   581  ILE581      0.1561
     32  C         -7.3910    7.1260   18.5830 C.2   581  ILE581      0.2260
     33  O         -8.0900    7.9490   19.1480 O.2   581  ILE581     -0.2867
     34  CB        -7.0750    5.1920   20.1610 C.3   581  ILE581      0.0252
     35  CG1       -6.0460    4.3420   20.8760 C.3   581  ILE581      0.0019
     36  CG2       -7.9880    4.3500   19.2740 C.3   581  ILE581      0.0019
     37  CD1       -6.5840    3.7280   22.1270 C.3   581  ILE581      0.0001
     38  N        -10.6800    6.5690   16.1430 N.3   583  LYS583     -0.1245
     39  CA       -11.6730    5.5960   15.7830 C.3   583  LYS583      0.1561
     40  C        -12.7900    6.2530   14.9470 C.2   583  LYS583      0.2260
     41  O        -13.3980    7.2720   15.3230 O.2   583  LYS583     -0.2867
     42  CB       -12.2170    4.8390   17.0080 C.3   583  LYS583      0.0271
     43  CG       -13.1490    3.6540   16.6140 C.3   583  LYS583      0.0035
     44  CD       -13.4390    2.6160   17.6990 C.3   583  LYS583      0.0206
     45  CE       -14.1750    3.2600   18.8210 C.3   583  LYS583      0.1093
     46  NZ       -14.3500    2.3150   19.9620 N.3   583  LYS583     -0.1314
     47  N        -19.1930    7.5000   19.7400 N.3   588  LEU588     -0.1245
     48  CA       -18.3870    7.6200   20.9750 C.3   588  LEU588      0.1561
     49  C        -19.0520    8.3950   22.1270 C.2   588  LEU588      0.2260
     50  O        -18.4760    8.5070   23.2310 O.2   588  LEU588     -0.2867
     51  CB       -17.0490    8.2850   20.6740 C.3   588  LEU588      0.0270
     52  CG       -15.9710    7.3820   20.0480 C.3   588  LEU588      0.0019
     53  CD1      -14.7410    8.1260   19.5130 C.3   588  LEU588      0.0001
     54  CD2      -15.5120    6.3080   21.0010 C.3   588  LEU588      0.0001
     55  N        -19.5850    6.3440   25.5240 N.3   591  ASP591     -0.1239
     56  CA       -18.3570    6.2440   26.2800 C.3   591  ASP591      0.1674
     57  C        -17.9040    7.5130   26.9240 C.2   591  ASP591      0.2266
     58  O        -17.3350    7.4760   28.0040 O.2   591  ASP591     -0.2867
     59  CB       -17.2490    5.7600   25.3860 C.3   591  ASP591      0.1410
     60  CG       -17.5200    4.3990   24.8810 C.2   591  ASP591      0.3668
     61  OD1      -18.4910    4.2440   24.0640 O.co2 591  ASP591     -0.2456
     62  OD2      -16.7860    3.4980   25.3250 O.co2 591  ASP591     -0.2456
     63  N        -17.4690    7.8370   30.8600 N.3   595  LEU595     -0.1245
     64  CA       -16.1870    8.2720   31.4060 C.3   595  LEU595      0.1561
     65  C        -16.2910    9.5320   32.2320 C.2   595  LEU595      0.2260
     66  O        -15.6650    9.6340   33.2760 O.2   595  LEU595     -0.2867
     67  CB       -15.1310    8.4180   30.3220 C.3   595  LEU595      0.0270
     68  CG       -14.5910    7.0430   29.8960 C.3   595  LEU595      0.0019
     69  CD1      -14.0050    6.9940   28.3780 C.3   595  LEU595      0.0001
     70  CD2      -13.6510    6.4870   30.9600 C.3   595  LEU595      0.0001
     71  N         -9.0210    8.4820   31.8200 N.3   617  TYR617     -0.1241
     72  CA        -8.4660    8.8220   30.4940 C.3   617  TYR617      0.1605
     73  C         -9.4830    9.5520   29.5640 C.2   617  TYR617      0.2264
     74  O        -10.6760    9.3150   29.6540 O.2   617  TYR617     -0.2867
     75  CB        -7.9490    7.5460   29.8340 C.3   617  TYR617      0.0534
     76  CG        -9.0580    6.5200   29.5410 C.ar  617  TYR617     -0.0201
     77  CD1       -9.6870    6.4800   28.2820 C.ar  617  TYR617     -0.0009
     78  CD2       -9.4910    5.6070   30.5260 C.ar  617  TYR617     -0.0009
     79  CE1      -10.6840    5.5500   28.0020 C.ar  617  TYR617      0.0417
     80  CE2      -10.5160    4.6530   30.2450 C.ar  617  TYR617      0.0417
     81  CZ       -11.1210    4.6350   28.9950 C.ar  617  TYR617      0.1957
     82  OH       -12.1300    3.7240   28.7140 O.3   617  TYR617     -0.2866
     83  N        -11.6920   10.9160   26.2610 N.3   619  CYS619     -0.1235
     84  CA       -12.4710   10.3830   25.1580 C.3   619  CYS619      0.1677
     85  C        -13.2830   11.5510   24.6020 C.2   619  CYS619      0.2270
     86  O        -13.9790   12.2320   25.3420 O.2   619  CYS619     -0.2867
     87  CB       -13.4070    9.3180   25.6650 C.3   619  CYS619      0.0956
     88  SG       -14.5520    8.7520   24.4140 S.3   619  CYS619     -0.0801
     89  N         -9.5520    8.6490   21.5250 N.3   629  ILE629     -0.1231
     90  CA        -9.4370    8.1180   22.9000 C.3   629  ILE629      0.1692
     91  C         -7.9880    8.1940   23.4340 C.2   629  ILE629      0.2592
     92  O         -7.0620    7.9240   22.6900 O.2   629  ILE629     -0.2718
     93  CB        -9.9120    6.6590   23.0120 C.3   629  ILE629      0.0266
     94  CG1      -11.3430    6.4730   22.4850 C.3   629  ILE629      0.0019
     95  CG2       -9.8730    6.2460   24.4600 C.3   629  ILE629      0.0020
     96  CD1      -11.4840    5.9850   21.0830 C.3   629  ILE629      0.0001
     97  N         -7.7940    8.5460   24.7060 N.am  630  GLU630     -0.1966
     98  CA        -6.4130    8.7520   25.2070 C.3   630  GLU630      0.1733
     99  C         -5.7670    7.4240   25.5120 C.2   630  GLU630      0.2616
    100  O         -6.3610    6.5840   26.1370 O.2   630  GLU630     -0.2715
    101  CB        -6.3670    9.6470   26.4520 C.3   630  GLU630      0.0429
    102  CG        -5.0150    9.7450   27.0980 C.3   630  GLU630      0.1163
    103  CD        -5.0690   10.3960   28.4510 C.2   630  GLU630      0.3649
    104  OE1       -6.1740   10.7130   28.9130 O.co2 630  GLU630     -0.2457
    105  OE2       -4.0070   10.6310   29.0620 O.co2 630  GLU630     -0.2457
    106  N         -4.5460    7.2320   25.0540 N.am  631  VAL631     -0.1963
    107  CA        -3.8490    5.9700   25.2890 C.3   631  VAL631      0.1727
    108  C         -3.3290    5.8810   26.7290 C.2   631  VAL631      0.2616
    109  O         -2.7110    6.8250   27.2310 O.2   631  VAL631     -0.2715
    110  CB        -2.6450    5.7440   24.2860 C.3   631  VAL631      0.0290
    111  CG1       -1.6770    4.7430   24.8700 C.3   631  VAL631      0.0023
    112  CG2       -3.1250    5.1820   22.9030 C.3   631  VAL631      0.0023
    113  N         -3.6220    4.7690   27.4000 N.am  632  VAL632     -0.1977
    114  CA        -3.0910    4.5310   28.7490 C.3   632  VAL632      0.1596
    115  C         -1.9070    3.5530   28.6060 C.2   632  VAL632      0.2287
    116  O         -2.0290    2.3400   28.2610 O.2   632  VAL632     -0.2864
    117  CB        -4.1610    3.9920   29.7410 C.3   632  VAL632      0.0276
    118  CG1       -3.5340    3.6960   31.1200 C.3   632  VAL632      0.0022
    119  CG2       -5.3720    4.9820   29.8380 C.3   632  VAL632      0.0022
    120  N         -0.1540   -0.7390   29.9370 N.3   635  SER635     -0.1202
    121  CA        -1.3460   -1.4330   30.3930 C.3   635  SER635      0.2020
    122  C         -1.5930   -2.5860   29.4640 C.2   635  SER635      0.2619
    123  O         -1.1020   -2.5690   28.3630 O.2   635  SER635     -0.2717
    124  CB        -2.5690   -0.4630   30.4920 C.3   635  SER635      0.2103
    125  OG        -2.9500    0.1290   29.2540 O.3   635  SER635     -0.2182
    126  N         -2.3340   -3.5950   29.9000 N.am  636  ASP636     -0.1959
    127  CA        -2.7240   -4.6950   29.0060 C.3   636  ASP636      0.1840
    128  C         -4.0980   -5.2380   29.4420 C.2   636  ASP636      0.2622
    129  O         -4.5500   -4.9640   30.5720 O.2   636  ASP636     -0.2715
    130  CB        -1.6770   -5.7840   29.0850 C.3   636  ASP636      0.1450
    131  CG        -1.5690   -6.5800   27.8260 C.2   636  ASP636      0.3671
    132  OD1       -2.4680   -6.5040   26.9690 O.co2 636  ASP636     -0.2456
    133  OD2       -0.5730   -7.3340   27.7050 O.co2 636  ASP636     -0.2456
    134  N         -4.7790   -5.9780   28.5650 N.am  637  THR637     -0.1951
    135  CA        -6.0860   -6.5000   28.9350 C.3   637  THR637      0.1897
    136  C         -5.9100   -7.6940   29.8860 C.2   637  THR637      0.2313
    137  O         -4.9070   -8.4320   29.8260 O.2   637  THR637     -0.2863
    138  CB        -6.9030   -6.9230   27.7080 C.3   637  THR637      0.1794
    139  OG1       -6.1360   -7.8930   26.9870 O.3   637  THR637     -0.2208
    140  CG2       -7.3130   -5.6970   26.7950 C.3   637  THR637      0.0378
    141  N        -11.9510   -8.8900   28.0090 N.3   701  ASP701     -0.1239
    142  CA       -11.4330   -8.1190   26.8840 C.3   701  ASP701      0.1674
    143  C        -11.5650   -6.5550   27.0900 C.2   701  ASP701      0.2266
    144  O        -10.9030   -5.7470   26.4210 O.2   701  ASP701     -0.2867
    145  CB       -12.1050   -8.6070   25.5790 C.3   701  ASP701      0.1410
    146  CG       -11.4550   -9.8870   25.0220 C.2   701  ASP701      0.3668
    147  OD1      -12.1050  -10.9540   25.0490 O.co2 701  ASP701     -0.2456
    148  OD2      -10.2880   -9.8460   24.5730 O.co2 701  ASP701     -0.2456
    149  N         -8.8810   -3.5690   31.6620 N.3   704  MET704     -0.1245
    150  CA        -7.4330   -3.4730   31.5480 C.3   704  MET704      0.1570
    151  C         -6.7860   -3.2130   32.8860 C.2   704  MET704      0.2261
    152  O         -7.4220   -2.7960   33.8480 O.2   704  MET704     -0.2867
    153  CB        -7.0100   -2.3730   30.5890 C.3   704  MET704      0.0387
    154  CG        -7.4480   -2.6290   29.1630 C.3   704  MET704      0.0595
    155  SD        -6.6900   -1.4820   28.0260 S.3   704  MET704     -0.1393
    156  CE        -5.0650   -2.1850   27.9380 C.3   704  MET704      0.0692
    157  N         -8.8980   -0.6720   35.1760 N.3   712  PHE712     -0.1241
    158  CA        -9.8400    0.2920   34.5830 C.3   712  PHE712      0.1605
    159  C        -10.5770   -0.3780   33.4120 C.2   712  PHE712      0.2264
    160  O        -10.2200   -1.4940   33.0070 O.2   712  PHE712     -0.2867
    161  CB        -9.1460    1.6120   34.1920 C.3   712  PHE712      0.0534
    162  CG        -8.1540    1.4860   33.0620 C.ar  712  PHE712     -0.0203
    163  CD1       -8.5040    1.9000   31.7510 C.ar  712  PHE712     -0.0042
    164  CD2       -6.8500    0.9550   33.2810 C.ar  712  PHE712     -0.0042
    165  CE1       -7.5730    1.7840   30.6890 C.ar  712  PHE712     -0.0003
    166  CE2       -5.9100    0.8160   32.2000 C.ar  712  PHE712     -0.0003
    167  CZ        -6.2730    1.2360   30.9200 C.ar  712  PHE712     -0.0000
    168  N        -12.5840   -0.2150   29.4270 N.3   714  ILE714     -0.1231
    169  CA       -12.6000    0.4000   28.0860 C.3   714  ILE714      0.1692
    170  C        -13.8610   -0.0940   27.3730 C.2   714  ILE714      0.2592
    171  O        -14.4830   -1.0690   27.8500 O.2   714  ILE714     -0.2718
    172  CB       -11.2890    0.0400   27.2690 C.3   714  ILE714      0.0266
    173  CG1      -11.0250   -1.4720   27.1420 C.3   714  ILE714      0.0019
    174  CG2      -10.0750    0.5890   27.9670 C.3   714  ILE714      0.0020
    175  CD1       -9.7940   -1.7540   26.3110 C.3   714  ILE714      0.0001
    176  N        -14.2540    0.5380   26.2630 N.am  715  ASP715     -0.1974
    177  CA       -15.4540    0.1600   25.4720 C.3   715  ASP715      0.1709
    178  C        -16.7500   -0.1140   26.2120 C.2   715  ASP715      0.2293
    179  O        -17.2510   -1.2370   26.1490 O.2   715  ASP715     -0.2864
    180  CB       -15.2380   -1.0960   24.6300 C.3   715  ASP715      0.1436
    181  CG       -14.1170   -0.9650   23.6370 C.2   715  ASP715      0.3671
    182  OD1      -13.8530    0.1710   23.2280 O.co2 715  ASP715     -0.2456
    183  OD2      -13.4930   -2.0030   23.2630 O.co2 715  ASP715     -0.2456
@<TRIPOS>BOND
     1     4     3    2
     2     9    10    1
     3     9    15    1
     4    40    41    2
     5    40    39    1
     6    11    12    2
     7    11    10    1
     8    10    13    1
     9     3     2    1
    10     1     2    1
    11    15    14    1
    12    39    38    1
    13    39    42    1
    14    16    17    1
    15     2     5    1
    16    19    18    2
    17    43    42    1
    18    43    44    1
    19    13    14    1
    20    18    17    1
    21    17    20    1
    22     5     6    1
    23    44    45    1
    24    20    21    1
    25     6     7    1
    26    32    33    2
    27    32    31    1
    28    45    46    1
    29    21    22   ar
    30    21    23   ar
    31    22    24   ar
    32     8     7    1
    33    36    34    1
    34    31    34    1
    35    31    30    1
    36    53    52    1
    37    47    48    1
    38    52    51    1
    39    52    54    1
    40    34    35    1
    41    24    25   ar
    42    23    26   ar
    43    23    25   ar
    44    51    48    1
    45    35    37    1
    46    48    49    1
    47    96    94    1
    48    26    28   ar
    49    25    27   ar
    50    89    90    1
    51    49    50    2
    52    28    29   ar
    53    94    93    1
    54    27    29   ar
    55    92    91    2
    56    90    93    1
    57    90    91    1
    58   112   110    1
    59    93    95    1
    60   182   181   ar
    61   183   181   ar
    62    91    97   am
    63   181   180    1
    64    61    60   ar
    65   110   111    1
    66   110   107    1
    67    88    87    1
    68   148   146   ar
    69    85    84    1
    70    85    86    2
    71   180   177    1
    72    97    98    1
    73    60    62   ar
    74    60    59    1
    75   146   147   ar
    76   146   145    1
    77   106   107    1
    78   106    99   am
    79    84    87    1
    80    84    83    1
    81    98    99    1
    82    98   101    1
    83   107   108    1
    84    59    56    1
    85   177   178    1
    86   177   176    1
    87    99   100    2
    88    55    56    1
    89   145   142    1
    90   179   178    2
    91   176   170   am
    92    56    57    1
    93   175   173    1
    94   144   143    2
    95   101   102    1
    96   108   109    2
    97   108   113   am
    98   140   138    1
    99   142   143    1
   100   142   141    1
   101    57    58    2
   102   132   131   ar
   103   139   138    1
   104   102   103    1
   105   173   172    1
   106   172   174    1
   107   172   169    1
   108   170   171    2
   109   170   169    1
   110   113   114    1
   111   133   131   ar
   112   138   135    1
   113   131   130    1
   114   156   155    1
   115    79    77   ar
   116    79    81   ar
   117   155   154    1
   118   169   168    1
   119   116   115    2
   120    77    76   ar
   121   123   122    2
   122    69    68    1
   123   103   104   ar
   124   103   105   ar
   125   134   135    1
   126   134   128   am
   127   115   114    1
   128    82    81    1
   129   114   117    1
   130   135   136    1
   131    81    80   ar
   132   127   130    1
   133   127   128    1
   134   127   126    1
   135   154   153    1
   136   125   124    1
   137   128   129    2
   138   122   126   am
   139   122   121    1
   140    76    75    1
   141    76    78   ar
   142    73    74    2
   143    73    72    1
   144   117   119    1
   145   117   118    1
   146   137   136    2
   147    75    72    1
   148    68    67    1
   149    68    70    1
   150   120   121    1
   151    80    78   ar
   152    67    64    1
   153   121   124    1
   154    72    71    1
   155   153   150    1
   156   165   167   ar
   157   165   163   ar
   158    63    64    1
   159   167   166   ar
   160    64    65    1
   161   150   149    1
   162   150   151    1
   163   163   162   ar
   164   166   164   ar
   165    65    66    2
   166   151   152    2
   167   160   159    2
   168   162   164   ar
   169   162   161    1
   170   159   158    1
   171   161   158    1
   172   158   157    1
