@<TRIPOS>MOLECULE
tmp/2wxnA00.pdb
 184 172 0 0 0
SMALL
GASTEIGER

@<TRIPOS>ATOM
      1  N          5.5910   -1.2140  -15.5950 N.3   556  MET556     -0.1245
      2  CA         6.2180   -2.3390  -16.2750 C.3   556  MET556      0.1570
      3  C          7.0160   -3.1910  -15.3470 C.2   556  MET556      0.2261
      4  O          7.5260   -2.7220  -14.3310 O.2   556  MET556     -0.2867
      5  CB         7.1360   -1.8980  -17.3950 C.3   556  MET556      0.0387
      6  CG         6.4320   -1.6950  -18.6950 C.3   556  MET556      0.0595
      7  SD         6.1420    0.0530  -18.7900 S.3   556  MET556     -0.1393
      8  CE         7.2950    0.5410  -20.1200 C.3   556  MET556      0.0692
      9  N          3.7580    3.6670  -16.2840 N.3   564  TRP564     -0.1241
     10  CA         2.9410    3.8380  -17.4550 C.3   564  TRP564      0.1605
     11  C          1.7890    4.7290  -17.0290 C.2   564  TRP564      0.2264
     12  O          0.9040    4.2430  -16.2690 O.2   564  TRP564     -0.2867
     13  CB         2.3460    2.4710  -17.8210 C.3   564  TRP564      0.0550
     14  CG         1.4870    2.4330  -19.1040 C.ar  564  TRP564      0.0003
     15  CD1        0.1260    2.7200  -19.2340 C.ar  564  TRP564      0.0946
     16  CD2        1.9400    2.0700  -20.4160 C.ar  564  TRP564      0.0152
     17  NE1       -0.2800    2.5370  -20.5650 N.ar  564  TRP564     -0.2442
     18  CE2        0.8080    2.1290  -21.2960 C.ar  564  TRP564      0.0810
     19  CE3        3.1810    1.6410  -20.9300 C.ar  564  TRP564      0.0012
     20  CZ2        0.9070    1.8220  -22.6650 C.ar  564  TRP564      0.0191
     21  CZ3        3.2800    1.3620  -22.3140 C.ar  564  TRP564      0.0001
     22  CH2        2.1540    1.4720  -23.1550 C.ar  564  TRP564      0.0015
     23  N          5.7100    7.5140  -20.0670 N.3   581  ILE581     -0.1245
     24  CA         6.3160    6.4850  -19.2570 C.3   581  ILE581      0.1561
     25  C          7.4360    7.1940  -18.5250 C.2   581  ILE581      0.2260
     26  O          8.2340    7.9170  -19.1390 O.2   581  ILE581     -0.2867
     27  CB         6.8860    5.3320  -20.1300 C.3   581  ILE581      0.0252
     28  CG1        5.7720    4.4830  -20.7140 C.3   581  ILE581      0.0019
     29  CG2        7.8680    4.4800  -19.3600 C.3   581  ILE581      0.0019
     30  CD1        6.1950    3.7810  -22.0120 C.3   581  ILE581      0.0001
     31  N         10.7060    6.6760  -16.1250 N.3   583  LYS583     -0.1245
     32  CA        11.7220    5.7010  -15.7370 C.3   583  LYS583      0.1561
     33  C         12.8590    6.3480  -14.9200 C.2   583  LYS583      0.2260
     34  O         13.3850    7.4170  -15.2600 O.2   583  LYS583     -0.2867
     35  CB        12.2390    5.0050  -16.9850 C.3   583  LYS583      0.0271
     36  CG        13.0320    3.7690  -16.6650 C.3   583  LYS583      0.0035
     37  CD        13.5270    3.1620  -17.9420 C.3   583  LYS583      0.0206
     38  CE        14.7400    2.3890  -17.7060 C.3   583  LYS583      0.1093
     39  NZ        15.3110    2.2530  -19.0300 N.3   583  LYS583     -0.1314
     40  N         19.1610    7.7030  -19.8560 N.3   588  LEU588     -0.1245
     41  CA        18.3490    7.7850  -21.0890 C.3   588  LEU588      0.1561
     42  C         19.0170    8.5800  -22.2540 C.2   588  LEU588      0.2260
     43  O         18.5480    8.5290  -23.4030 O.2   588  LEU588     -0.2867
     44  CB        16.9700    8.3750  -20.7980 C.3   588  LEU588      0.0270
     45  CG        15.8780    7.5980  -20.0240 C.3   588  LEU588      0.0019
     46  CD1       14.7100    8.5030  -19.8290 C.3   588  LEU588      0.0001
     47  CD2       15.3910    6.3460  -20.7260 C.3   588  LEU588      0.0001
     48  N         19.8920    6.5350  -25.5430 N.3   591  ASP591     -0.1239
     49  CA        18.6150    6.3700  -26.2310 C.3   591  ASP591      0.1674
     50  C         18.0910    7.5990  -26.8690 C.2   591  ASP591      0.2266
     51  O         17.5340    7.5300  -27.9740 O.2   591  ASP591     -0.2867
     52  CB        17.5340    5.9210  -25.2720 C.3   591  ASP591      0.1410
     53  CG        17.2040    4.4910  -25.4580 C.2   591  ASP591      0.3668
     54  OD1       18.0170    3.6790  -25.0330 O.co2 591  ASP591     -0.2456
     55  OD2       16.1670    4.1670  -26.0710 O.co2 591  ASP591     -0.2456
     56  N         17.5670    7.8800  -30.8080 N.3   595  LEU595     -0.1245
     57  CA        16.3150    8.3930  -31.3860 C.3   595  LEU595      0.1561
     58  C         16.4310    9.6910  -32.2120 C.2   595  LEU595      0.2260
     59  O         15.6540    9.8480  -33.1620 O.2   595  LEU595     -0.2867
     60  CB        15.2180    8.5180  -30.3440 C.3   595  LEU595      0.0270
     61  CG        14.7780    7.0780  -30.0130 C.3   595  LEU595      0.0019
     62  CD1       14.3990    6.8140  -28.4430 C.3   595  LEU595      0.0001
     63  CD2       13.7080    6.4800  -31.0300 C.3   595  LEU595      0.0001
     64  N          9.3870    8.3130  -31.7890 N.3   617  TYR617     -0.1241
     65  CA         8.7010    8.6800  -30.5250 C.3   617  TYR617      0.1605
     66  C          9.5880    9.5560  -29.5560 C.2   617  TYR617      0.2264
     67  O         10.8100    9.3890  -29.4920 O.2   617  TYR617     -0.2867
     68  CB         8.1840    7.4250  -29.8370 C.3   617  TYR617      0.0534
     69  CG         9.2970    6.4570  -29.4240 C.ar  617  TYR617     -0.0201
     70  CD1        9.9010    6.5290  -28.1660 C.ar  617  TYR617     -0.0009
     71  CD2        9.7250    5.4410  -30.2990 C.ar  617  TYR617     -0.0009
     72  CE1       10.9030    5.6250  -27.8090 C.ar  617  TYR617      0.0417
     73  CE2       10.7260    4.5170  -29.9500 C.ar  617  TYR617      0.0417
     74  CZ        11.3060    4.6230  -28.7300 C.ar  617  TYR617      0.1957
     75  OH        12.2910    3.7460  -28.4330 O.3   617  TYR617     -0.2866
     76  N         11.5920   10.9130  -26.3490 N.3   619  CYS619     -0.1235
     77  CA        12.3740   10.3080  -25.3100 C.3   619  CYS619      0.1677
     78  C         13.2000   11.4600  -24.7970 C.2   619  CYS619      0.2270
     79  O         13.9570   12.0010  -25.5690 O.2   619  CYS619     -0.2867
     80  CB        13.2960    9.2560  -25.8570 C.3   619  CYS619      0.0956
     81  SG        14.4800    8.7570  -24.6140 S.3   619  CYS619     -0.0801
     82  N          9.5610    8.7260  -21.6190 N.3   629  ILE629     -0.1231
     83  CA         9.3840    8.0800  -22.9350 C.3   629  ILE629      0.1692
     84  C          7.9490    8.2350  -23.4360 C.2   629  ILE629      0.2592
     85  O          7.0160    8.1820  -22.6560 O.2   629  ILE629     -0.2718
     86  CB         9.7850    6.6250  -22.8650 C.3   629  ILE629      0.0266
     87  CG1       11.2550    6.5580  -22.4500 C.3   629  ILE629      0.0019
     88  CG2        9.5350    5.9120  -24.2220 C.3   629  ILE629      0.0020
     89  CD1       11.6550    5.3060  -21.7780 C.3   629  ILE629      0.0001
     90  N          7.7630    8.4130  -24.7320 N.am  630  GLU630     -0.1966
     91  CA         6.4270    8.5730  -25.2480 C.3   630  GLU630      0.1733
     92  C          5.7230    7.2380  -25.4920 C.2   630  GLU630      0.2616
     93  O          6.3050    6.2440  -25.9900 O.2   630  GLU630     -0.2715
     94  CB         6.4430    9.4080  -26.5160 C.3   630  GLU630      0.0429
     95  CG         5.0850    9.9840  -26.8910 C.3   630  GLU630      0.1163
     96  CD         4.9110   10.1280  -28.4140 C.2   630  GLU630      0.3649
     97  OE1        5.9090   10.1810  -29.1580 O.co2 630  GLU630     -0.2457
     98  OE2        3.7490   10.1820  -28.8680 O.co2 630  GLU630     -0.2457
     99  N          4.4620    7.1930  -25.1180 N.am  631  VAL631     -0.1963
    100  CA         3.7570    5.9830  -25.3060 C.3   631  VAL631      0.1727
    101  C          3.3040    5.9330  -26.7380 C.2   631  VAL631      0.2616
    102  O          2.6450    6.8510  -27.2550 O.2   631  VAL631     -0.2715
    103  CB         2.6070    5.8400  -24.3290 C.3   631  VAL631      0.0290
    104  CG1        1.4840    4.8800  -24.9140 C.3   631  VAL631      0.0023
    105  CG2        3.1630    5.3580  -22.9270 C.3   631  VAL631      0.0023
    106  N          3.6970    4.8650  -27.4180 N.am  632  VAL632     -0.1977
    107  CA         3.1170    4.6650  -28.7400 C.3   632  VAL632      0.1596
    108  C          1.9680    3.6710  -28.5950 C.2   632  VAL632      0.2287
    109  O          2.1830    2.5050  -28.2070 O.2   632  VAL632     -0.2864
    110  CB         4.1450    4.1680  -29.7560 C.3   632  VAL632      0.0276
    111  CG1        3.4360    3.8330  -31.0830 C.3   632  VAL632      0.0022
    112  CG2        5.2480    5.2250  -29.9380 C.3   632  VAL632      0.0022
    113  N          0.1330   -0.7570  -30.1020 N.3   635  SER635     -0.1202
    114  CA         1.2980   -1.4510  -30.5410 C.3   635  SER635      0.2020
    115  C          1.5880   -2.5200  -29.5560 C.2   635  SER635      0.2619
    116  O          1.0830   -2.4810  -28.4410 O.2   635  SER635     -0.2717
    117  CB         2.5050   -0.4760  -30.6900 C.3   635  SER635      0.2103
    118  OG         2.8920    0.1030  -29.4530 O.3   635  SER635     -0.2182
    119  N          2.4280   -3.4710  -29.9520 N.am  636  ASP636     -0.1959
    120  CA         2.7420   -4.6400  -29.0840 C.3   636  ASP636      0.1840
    121  C          4.1120   -5.1780  -29.5310 C.2   636  ASP636      0.2622
    122  O          4.5080   -5.0200  -30.7180 O.2   636  ASP636     -0.2715
    123  CB         1.6450   -5.7040  -29.1760 C.3   636  ASP636      0.1450
    124  CG         1.4900   -6.5120  -27.8960 C.2   636  ASP636      0.3671
    125  OD1        2.2530   -6.2400  -26.9390 O.co2 636  ASP636     -0.2456
    126  OD2        0.6050   -7.4360  -27.8420 O.co2 636  ASP636     -0.2456
    127  N          4.8590   -5.7750  -28.6140 N.am  637  THR637     -0.1951
    128  CA         6.1510   -6.3350  -28.9960 C.3   637  THR637      0.1897
    129  C          5.9470   -7.5840  -29.8450 C.2   637  THR637      0.2313
    130  O          5.0360   -8.3850  -29.5850 O.2   637  THR637     -0.2863
    131  CB         6.9980   -6.7880  -27.7680 C.3   637  THR637      0.1794
    132  OG1        6.4340   -8.0120  -27.2400 O.3   637  THR637     -0.2208
    133  CG2        7.0880   -5.7310  -26.6770 C.3   637  THR637      0.0378
    134  N          5.2650  -10.6560  -27.7420 N.3   640  ASN640     -0.1240
    135  CA         3.8690  -10.8320  -27.2990 C.3   640  ASN640      0.1653
    136  C          2.9810  -11.3440  -28.3730 C.2   640  ASN640      0.2266
    137  O          2.1530  -12.2300  -28.1470 O.2   640  ASN640     -0.2867
    138  CB         3.2670   -9.5290  -26.7960 C.3   640  ASN640      0.1155
    139  CG         3.6880   -9.2270  -25.4100 C.2   640  ASN640      0.2627
    140  OD1        3.7540  -10.1420  -24.5880 O.2   640  ASN640     -0.2716
    141  ND2        4.0240   -7.9480  -25.1280 N.am  640  ASN640     -0.0877
    142  N         11.6480   -8.9500  -28.0300 N.3   701  ASP701     -0.1239
    143  CA        11.0920   -8.1830  -26.9290 C.3   701  ASP701      0.1674
    144  C         11.2540   -6.6680  -27.1570 C.2   701  ASP701      0.2266
    145  O         10.4490   -5.8960  -26.6540 O.2   701  ASP701     -0.2867
    146  CB        11.7630   -8.5900  -25.5970 C.3   701  ASP701      0.1410
    147  CG        11.2170   -9.8900  -25.0160 C.2   701  ASP701      0.3668
    148  OD1       12.0190  -10.8220  -24.7650 O.co2 701  ASP701     -0.2456
    149  OD2        9.9910   -9.9900  -24.7840 O.co2 701  ASP701     -0.2456
    150  N          8.8020   -3.6510  -31.8760 N.3   704  MET704     -0.1245
    151  CA         7.3730   -3.4920  -31.8000 C.3   704  MET704      0.1570
    152  C          6.6920   -3.2690  -33.1460 C.2   704  MET704      0.2261
    153  O          7.2880   -2.7930  -34.1300 O.2   704  MET704     -0.2867
    154  CB         7.0360   -2.2990  -30.9150 C.3   704  MET704      0.0387
    155  CG         7.5120   -2.4850  -29.4760 C.3   704  MET704      0.0595
    156  SD         6.6370   -1.4050  -28.3570 S.3   704  MET704     -0.1393
    157  CE         5.2620   -2.4800  -27.9780 C.3   704  MET704      0.0692
    158  N          8.8630   -0.7440  -35.2870 N.3   712  PHE712     -0.1241
    159  CA         9.8530    0.2350  -34.7860 C.3   712  PHE712      0.1605
    160  C         10.5530   -0.4290  -33.6190 C.2   712  PHE712      0.2264
    161  O         10.1660   -1.5450  -33.2260 O.2   712  PHE712     -0.2867
    162  CB         9.2150    1.5790  -34.4040 C.3   712  PHE712      0.0534
    163  CG         8.2000    1.4870  -33.3050 C.ar  712  PHE712     -0.0203
    164  CD1        8.5410    1.7750  -31.9710 C.ar  712  PHE712     -0.0042
    165  CD2        6.8820    1.1210  -33.5800 C.ar  712  PHE712     -0.0042
    166  CE1        7.5580    1.7060  -30.9490 C.ar  712  PHE712     -0.0003
    167  CE2        5.8990    1.0040  -32.5300 C.ar  712  PHE712     -0.0003
    168  CZ         6.2390    1.3040  -31.2230 C.ar  712  PHE712     -0.0000
    169  N         12.4930   -0.2260  -29.6550 N.3   714  ILE714     -0.1231
    170  CA        12.5790    0.4060  -28.3490 C.3   714  ILE714      0.1692
    171  C         13.8060   -0.0650  -27.5900 C.2   714  ILE714      0.2592
    172  O         14.3210   -1.1360  -27.8830 O.2   714  ILE714     -0.2718
    173  CB        11.3080    0.1280  -27.5790 C.3   714  ILE714      0.0266
    174  CG1       11.0830   -1.3840  -27.4160 C.3   714  ILE714      0.0019
    175  CG2       10.0750    0.8780  -28.2770 C.3   714  ILE714      0.0020
    176  CD1       10.1290   -1.6630  -26.2690 C.3   714  ILE714      0.0001
    177  N         14.3410    0.7720  -26.7000 N.am  715  ASP715     -0.1974
    178  CA        15.2840    0.3310  -25.6260 C.3   715  ASP715      0.1709
    179  C         16.6930    0.1220  -26.1500 C.2   715  ASP715      0.2293
    180  O         17.1740   -1.0080  -26.2080 O.2   715  ASP715     -0.2864
    181  CB        14.7860   -0.9770  -24.9760 C.3   715  ASP715      0.1436
    182  CG        14.7850   -0.9390  -23.4290 C.2   715  ASP715      0.3671
    183  OD1       15.5240   -0.1410  -22.8030 O.co2 715  ASP715     -0.2456
    184  OD2       14.0350   -1.7560  -22.8270 O.co2 715  ASP715     -0.2456
@<TRIPOS>BOND
     1   158   159    1
     2   159   162    1
     3   159   160    1
     4   162   163    1
     5   153   152    2
     6   160   161    2
     7   165   163   ar
     8   165   167   ar
     9   163   164   ar
    10    59    58    2
    11   152   151    1
    12   167   168   ar
    13    58    57    1
    14   164   166   ar
    15   150   151    1
    16   151   154    1
    17    64    65    1
    18    57    56    1
    19    57    60    1
    20   168   166   ar
    21   111   110    1
    22    63    61    1
    23   154   155    1
    24   122   121    2
    25   117   114    1
    26   117   118    1
    27   114   113    1
    28   114   115    1
    29    65    68    1
    30    65    66    1
    31    60    61    1
    32    71    73   ar
    33    71    69   ar
    34    61    62    1
    35   119   115   am
    36   119   120    1
    37    73    74   ar
    38   112   110    1
    39   129   130    2
    40   129   128    1
    41    68    69    1
    42   110   107    1
    43   169   170    1
    44    66    67    2
    45   115   116    2
    46   121   120    1
    47   121   127   am
    48   155   156    1
    49    69    70   ar
    50   123   120    1
    51   123   124    1
    52    97    96   ar
    53   128   127    1
    54   128   131    1
    55    98    96   ar
    56   107   108    1
    57   107   106    1
    58    74    75    1
    59    74    72   ar
    60   108   109    2
    61    96    95    1
    62   136   137    2
    63   136   135    1
    64   156   157    1
    65   170   171    1
    66   170   173    1
    67   175   173    1
    68    70    72   ar
    69   142   143    1
    70    51    50    2
    71   124   126   ar
    72   124   125   ar
    73   172   171    2
    74   131   132    1
    75   131   133    1
    76   134   135    1
    77   171   177   am
    78   173   174    1
    79   106   101   am
    80   174   176    1
    81   135   138    1
    82   102   101    2
    83   144   143    1
    84   144   145    2
    85   143   146    1
    86    95    94    1
    87    50    49    1
    88   138   139    1
    89   101   100    1
    90   177   178    1
    91    94    91    1
    92    76    77    1
    93    49    48    1
    94    49    52    1
    95   180   179    2
    96   179   178    1
    97    55    53   ar
    98    93    92    2
    99    80    77    1
   100    80    81    1
   101   178   181    1
   102   146   147    1
   103    79    78    2
   104    92    91    1
   105    92    99   am
   106    53    52    1
   107    53    54   ar
   108   139   141   am
   109   139   140    2
   110    77    78    1
   111   100    99    1
   112   100   103    1
   113    91    90    1
   114   147   149   ar
   115   147   148   ar
   116   181   182    1
   117   104   103    1
   118    90    84   am
   119   103   105    1
   120    88    86    1
   121    84    83    1
   122    84    85    2
   123   182   184   ar
   124   182   183   ar
   125    43    42    2
   126    22    20   ar
   127    22    21   ar
   128    83    86    1
   129    83    82    1
   130    86    87    1
   131    20    18   ar
   132    87    89    1
   133    21    19   ar
   134    42    41    1
   135    30    28    1
   136    18    17   ar
   137    18    16   ar
   138    41    44    1
   139    41    40    1
   140    19    16   ar
   141    44    45    1
   142    47    45    1
   143    28    27    1
   144    17    15   ar
   145    16    14   ar
   146    27    29    1
   147    27    24    1
   148     8     7    1
   149    23    24    1
   150    45    46    1
   151    24    25    1
   152    15    14   ar
   153    26    25    2
   154    14    13    1
   155    39    38    1
   156     7     6    1
   157     6     5    1
   158    37    38    1
   159    37    36    1
   160    13    10    1
   161    10    11    1
   162    10     9    1
   163     5     2    1
   164    11    12    2
   165    35    36    1
   166    35    32    1
   167     2     1    1
   168     2     3    1
   169    31    32    1
   170    32    33    1
   171     3     4    2
   172    34    33    2
