@<TRIPOS>MOLECULE
tmp/2wxoA00.pdb
 211 200 0 0 0
SMALL
GASTEIGER

@<TRIPOS>ATOM
      1  N         -5.4890   -1.6300   15.4480 N.3   556  MET556     -0.1245
      2  CA        -6.0220   -2.7540   16.1860 C.3   556  MET556      0.1570
      3  C         -6.9770   -3.6000   15.3530 C.2   556  MET556      0.2261
      4  O         -7.4520   -3.1870   14.2800 O.2   556  MET556     -0.2867
      5  CB        -6.6580   -2.2510   17.4680 C.3   556  MET556      0.0387
      6  CG        -6.1180   -0.8870   17.7740 C.3   556  MET556      0.0595
      7  SD        -5.3010   -0.8560   19.3270 S.3   556  MET556     -0.1393
      8  CE        -6.5000    0.1360   20.2400 C.3   556  MET556      0.0692
      9  N         -9.9530   -4.9550   15.9710 N.3   558  SER558     -0.1217
     10  CA       -11.4000   -4.7670   16.0830 C.3   558  SER558      0.1889
     11  C        -11.9860   -4.2340   14.7830 C.2   558  SER558      0.2288
     12  O        -11.2740   -3.6350   13.9750 O.2   558  SER558     -0.2866
     13  CB       -11.7320   -3.8400   17.2530 C.3   558  SER558      0.2089
     14  OG       -10.8060   -2.7680   17.3620 O.3   558  SER558     -0.2183
     15  N         -9.2710    0.5800   14.4960 N.3   562  PRO562     -0.2116
     16  CA        -8.8240    1.8790   15.0110 C.3   562  PRO562      0.1372
     17  C         -7.3160    2.0320   14.9590 C.2   562  PRO562      0.2244
     18  O         -6.5960    1.0570   15.0730 O.2   562  PRO562     -0.2868
     19  CB        -9.3290    1.8920   16.4750 C.3   562  PRO562      0.0268
     20  CG        -9.7260    0.4960   16.7830 C.3   562  PRO562      0.0207
     21  CD       -10.0830   -0.1510   15.4850 C.3   562  PRO562      0.0892
     22  N         -3.6130    3.4100   16.1690 N.3   564  TRP564     -0.1241
     23  CA        -2.8250    3.6100   17.3690 C.3   564  TRP564      0.1605
     24  C         -1.6840    4.5220   16.9640 C.2   564  TRP564      0.2264
     25  O         -0.7810    4.0910   16.2340 O.2   564  TRP564     -0.2867
     26  CB        -2.2940    2.2430   17.7990 C.3   564  TRP564      0.0550
     27  CG        -1.3220    2.2000   18.9280 C.ar  564  TRP564      0.0003
     28  CD1        0.0330    2.4150   18.8580 C.ar  564  TRP564      0.0946
     29  CD2       -1.6000    1.8380   20.2940 C.ar  564  TRP564      0.0152
     30  NE1        0.5990    2.2620   20.1040 N.ar  564  TRP564     -0.2442
     31  CE2       -0.3710    1.8980   21.0010 C.ar  564  TRP564      0.0810
     32  CE3       -2.7650    1.5030   20.9920 C.ar  564  TRP564      0.0012
     33  CZ2       -0.2690    1.6070   22.3750 C.ar  564  TRP564      0.0191
     34  CZ3       -2.6710    1.2450   22.3690 C.ar  564  TRP564      0.0001
     35  CH2       -1.4230    1.2880   23.0380 C.ar  564  TRP564      0.0015
     36  N         -5.5660    7.0010   20.2090 N.3   581  ILE581     -0.1245
     37  CA        -6.2450    6.0550   19.3310 C.3   581  ILE581      0.1561
     38  C         -7.2640    6.8320   18.5070 C.2   581  ILE581      0.2260
     39  O         -8.0190    7.6310   19.0370 O.2   581  ILE581     -0.2867
     40  CB        -6.9360    4.9390   20.1290 C.3   581  ILE581      0.0252
     41  CG1       -5.8810    4.0040   20.7160 C.3   581  ILE581      0.0019
     42  CG2       -7.8940    4.1080   19.2550 C.3   581  ILE581      0.0019
     43  CD1       -6.3990    3.1230   21.8640 C.3   581  ILE581      0.0001
     44  N        -10.5180    6.4140   16.1120 N.3   583  LYS583     -0.1245
     45  CA       -11.5820    5.4810   15.7930 C.3   583  LYS583      0.1561
     46  C        -12.6150    6.1660   14.8960 C.2   583  LYS583      0.2260
     47  O        -13.0520    7.2940   15.1560 O.2   583  LYS583     -0.2867
     48  CB       -12.1910    4.9140   17.0880 C.3   583  LYS583      0.0271
     49  CG       -12.9300    3.5830   16.9050 C.3   583  LYS583      0.0035
     50  CD       -12.5500    2.5390   17.9760 C.3   583  LYS583      0.0206
     51  CE       -12.9160    2.9700   19.3780 C.3   583  LYS583      0.1093
     52  NZ       -14.1610    2.2470   19.8260 N.3   583  LYS583     -0.1314
     53  N        -18.8310    7.3670   19.8880 N.3   588  LEU588     -0.1245
     54  CA       -18.0500    7.4640   21.1320 C.3   588  LEU588      0.1561
     55  C        -18.7280    8.2740   22.2420 C.2   588  LEU588      0.2260
     56  O        -18.2450    8.2940   23.3880 O.2   588  LEU588     -0.2867
     57  CB       -16.6290    7.9850   20.8710 C.3   588  LEU588      0.0270
     58  CG       -15.6200    6.9440   20.3570 C.3   588  LEU588      0.0019
     59  CD1      -14.3320    7.5870   19.8420 C.3   588  LEU588      0.0001
     60  CD2      -15.3150    5.9020   21.4310 C.3   588  LEU588      0.0001
     61  N        -19.3950    6.2440   25.4830 N.3   591  ASP591     -0.1239
     62  CA       -18.1350    6.1100   26.2090 C.3   591  ASP591      0.1674
     63  C        -17.6730    7.4040   26.8550 C.2   591  ASP591      0.2266
     64  O        -17.1770    7.3820   27.9760 O.2   591  ASP591     -0.2867
     65  CB       -17.0460    5.5750   25.2970 C.3   591  ASP591      0.1410
     66  CG       -17.3860    4.2240   24.7620 C.2   591  ASP591      0.3668
     67  OD1      -17.0860    3.2260   25.4450 O.co2 591  ASP591     -0.2456
     68  OD2      -17.9920    4.1610   23.6790 O.co2 591  ASP591     -0.2456
     69  N        -17.3180    7.7590   30.9110 N.3   595  LEU595     -0.1245
     70  CA       -16.0350    8.1930   31.4860 C.3   595  LEU595      0.1561
     71  C        -16.1400    9.4880   32.2660 C.2   595  LEU595      0.2260
     72  O        -15.4630    9.6570   33.2420 O.2   595  LEU595     -0.2867
     73  CB       -14.9520    8.3020   30.4230 C.3   595  LEU595      0.0270
     74  CG       -14.4530    6.9490   29.9520 C.3   595  LEU595      0.0019
     75  CD1      -13.8160    7.0790   28.5270 C.3   595  LEU595      0.0001
     76  CD2      -13.4730    6.3160   30.9620 C.3   595  LEU595      0.0001
     77  N         -8.9720    8.4730   31.8180 N.3   617  TYR617     -0.1241
     78  CA        -8.3640    8.7970   30.5250 C.3   617  TYR617      0.1605
     79  C         -9.3050    9.5420   29.5360 C.2   617  TYR617      0.2264
     80  O        -10.5290    9.3200   29.5180 O.2   617  TYR617     -0.2867
     81  CB        -7.8480    7.5020   29.8930 C.3   617  TYR617      0.0534
     82  CG        -8.9410    6.4940   29.5650 C.ar  617  TYR617     -0.0201
     83  CD1       -9.6670    6.5910   28.3640 C.ar  617  TYR617     -0.0009
     84  CD2       -9.2480    5.4310   30.4470 C.ar  617  TYR617     -0.0009
     85  CE1      -10.6770    5.6560   28.0410 C.ar  617  TYR617      0.0417
     86  CE2      -10.2640    4.4780   30.1250 C.ar  617  TYR617      0.0417
     87  CZ       -10.9730    4.6200   28.9220 C.ar  617  TYR617      0.1957
     88  OH       -11.9670    3.7390   28.5730 O.3   617  TYR617     -0.2866
     89  N        -11.4200   10.7670   26.2680 N.3   619  CYS619     -0.1235
     90  CA       -12.2180   10.1970   25.2150 C.3   619  CYS619      0.1677
     91  C        -13.0720   11.3280   24.6700 C.2   619  CYS619      0.2270
     92  O        -13.8040   11.9660   25.4240 O.2   619  CYS619     -0.2867
     93  CB       -13.0910    9.0880   25.7540 C.3   619  CYS619      0.0956
     94  SG       -14.2190    8.4000   24.5430 S.3   619  CYS619     -0.0801
     95  N         -9.3060    8.4980   21.5840 N.3   629  ILE629     -0.1231
     96  CA        -9.0990    7.9470   22.9310 C.3   629  ILE629      0.1692
     97  C         -7.6490    8.1600   23.3980 C.2   629  ILE629      0.2592
     98  O         -6.7040    7.9380   22.6470 O.2   629  ILE629     -0.2718
     99  CB        -9.4250    6.4360   23.0290 C.3   629  ILE629      0.0266
    100  CG1      -10.9220    6.1710   22.7910 C.3   629  ILE629      0.0019
    101  CG2       -9.0320    5.9090   24.3980 C.3   629  ILE629      0.0020
    102  CD1      -11.2200    5.1560   21.7180 C.3   629  ILE629      0.0001
    103  N         -7.4840    8.5290   24.6580 N.am  630  GLU630     -0.1966
    104  CA        -6.1640    8.6680   25.2270 C.3   630  GLU630      0.1733
    105  C         -5.5780    7.3300   25.6060 C.2   630  GLU630      0.2616
    106  O         -6.1940    6.5550   26.3140 O.2   630  GLU630     -0.2715
    107  CB        -6.1930    9.5900   26.4320 C.3   630  GLU630      0.0429
    108  CG        -4.8190    9.8630   27.0380 C.3   630  GLU630      0.1163
    109  CD        -4.9160   10.4560   28.4370 C.2   630  GLU630      0.3649
    110  OE1       -6.0550   10.7460   28.8930 O.co2 630  GLU630     -0.2457
    111  OE2       -3.8500   10.6520   29.0720 O.co2 630  GLU630     -0.2457
    112  N         -4.3770    7.0540   25.1310 N.am  631  VAL631     -0.1963
    113  CA        -3.7630    5.7750   25.4200 C.3   631  VAL631      0.1727
    114  C         -3.1620    5.8180   26.8150 C.2   631  VAL631      0.2616
    115  O         -2.3750    6.7100   27.1430 O.2   631  VAL631     -0.2715
    116  CB        -2.6700    5.4080   24.3950 C.3   631  VAL631      0.0290
    117  CG1       -1.9500    4.1140   24.8080 C.3   631  VAL631      0.0023
    118  CG2       -3.2590    5.2940   22.9770 C.3   631  VAL631      0.0023
    119  N         -3.5450    4.8590   27.6440 N.am  632  VAL632     -0.1977
    120  CA        -2.8520    4.6700   28.9000 C.3   632  VAL632      0.1596
    121  C         -1.7660    3.6520   28.6400 C.2   632  VAL632      0.2287
    122  O         -2.0380    2.4840   28.4200 O.2   632  VAL632     -0.2864
    123  CB        -3.8100    4.2290   30.0200 C.3   632  VAL632      0.0276
    124  CG1       -3.0370    4.0430   31.3360 C.3   632  VAL632      0.0022
    125  CG2       -4.9170    5.2650   30.1640 C.3   632  VAL632      0.0022
    126  N         -0.0590   -0.6980   29.8950 N.3   635  SER635     -0.1202
    127  CA        -1.1710   -1.4800   30.3500 C.3   635  SER635      0.2020
    128  C         -1.4480   -2.5420   29.3180 C.2   635  SER635      0.2618
    129  O         -0.9420   -2.4760   28.2010 O.2   635  SER635     -0.2717
    130  CB        -2.3990   -0.5870   30.6350 C.3   635  SER635      0.2103
    131  OG        -2.6250    0.3690   29.6230 O.3   635  SER635     -0.2182
    132  N         -2.2140   -3.5500   29.7090 N.am  636  ASP636     -0.1973
    133  CA        -2.5920   -4.6280   28.8130 C.3   636  ASP636      0.1709
    134  C         -3.9260   -5.1200   29.3370 C.2   636  ASP636      0.2293
    135  O         -4.3110   -4.8010   30.4720 O.2   636  ASP636     -0.2864
    136  CB        -1.5410   -5.7360   28.8490 C.3   636  ASP636      0.1436
    137  CG        -1.4050   -6.4830   27.5140 C.2   636  ASP636      0.3671
    138  OD1       -2.2870   -6.3830   26.6310 O.co2 636  ASP636     -0.2456
    139  OD2       -0.3870   -7.1840   27.3480 O.co2 636  ASP636     -0.2456
    140  N        -15.9320   -8.0080   30.5490 N.3   699  HIS699     -0.1241
    141  CA       -15.1950   -9.2740   30.4220 C.3   699  HIS699      0.1621
    142  C        -13.7050   -8.9700   30.2700 C.2   699  HIS699      0.2264
    143  O        -13.3130   -7.7970   30.2830 O.2   699  HIS699     -0.2867
    144  CB       -15.7310  -10.1310   29.2670 C.3   699  HIS699      0.0745
    145  CG       -15.9810   -9.3600   28.0140 C.ar  699  HIS699      0.0817
    146  ND1      -17.2500   -9.0480   27.5730 N.ar  699  HIS699     -0.2268
    147  CD2      -15.1260   -8.8490   27.0960 C.ar  699  HIS699      0.1154
    148  CE1      -17.1660   -8.3650   26.4430 C.ar  699  HIS699      0.1986
    149  NE2      -15.8870   -8.2300   26.1330 N.ar  699  HIS699     -0.2212
    150  N        -11.5290   -8.8320   28.0300 N.3   701  ASP701     -0.1225
    151  CA       -11.0570   -8.1780   26.8200 C.3   701  ASP701      0.1805
    152  C        -11.2630   -6.6580   26.8890 C.2   701  ASP701      0.2597
    153  O        -10.6220   -5.9000   26.1490 O.2   701  ASP701     -0.2718
    154  CB       -11.8010   -8.7580   25.6040 C.3   701  ASP701      0.1424
    155  CG       -11.1600  -10.0390   25.0680 C.2   701  ASP701      0.3668
    156  OD1      -11.7740  -11.1320   25.1620 O.co2 701  ASP701     -0.2456
    157  OD2      -10.0300   -9.9560   24.5420 O.co2 701  ASP701     -0.2456
    158  N        -12.1560   -6.2110   27.7730 N.am  702  ASN702     -0.1974
    159  CA       -12.4160   -4.7790   27.9110 C.3   702  ASN702      0.1688
    160  C        -12.0810   -4.2230   29.2970 C.2   702  ASN702      0.2292
    161  O        -12.4910   -3.1190   29.6640 O.2   702  ASN702     -0.2864
    162  CB       -13.8500   -4.4200   27.4880 C.3   702  ASN702      0.1181
    163  CG       -14.9080   -5.2430   28.2010 C.2   702  ASN702      0.2629
    164  OD1      -15.8940   -5.6200   27.5880 O.2   702  ASN702     -0.2716
    165  ND2      -14.7210   -5.5160   29.4930 N.am  702  ASN702     -0.0877
    166  N         -8.6520   -3.5020   31.6070 N.3   704  MET704     -0.1245
    167  CA        -7.2110   -3.3430   31.5120 C.3   704  MET704      0.1570
    168  C         -6.5520   -3.1110   32.8630 C.2   704  MET704      0.2261
    169  O         -7.1630   -2.5830   33.7820 O.2   704  MET704     -0.2867
    170  CB        -6.8810   -2.2110   30.5290 C.3   704  MET704      0.0387
    171  CG        -7.3610   -2.5160   29.0970 C.3   704  MET704      0.0595
    172  SD        -6.5490   -1.5470   27.8210 S.3   704  MET704     -0.1393
    173  CE        -5.1250   -2.5720   27.5180 C.3   704  MET704      0.0692
    174  N         -8.6840   -0.7470   35.0080 N.3   712  PHE712     -0.1241
    175  CA        -9.6450    0.1860   34.3950 C.3   712  PHE712      0.1605
    176  C        -10.4480   -0.4370   33.2500 C.2   712  PHE712      0.2264
    177  O        -10.2240   -1.6100   32.8460 O.2   712  PHE712     -0.2867
    178  CB        -9.0190    1.5550   34.0290 C.3   712  PHE712      0.0534
    179  CG        -8.0100    1.5030   32.9060 C.ar  712  PHE712     -0.0203
    180  CD1       -8.3840    1.8230   31.6000 C.ar  712  PHE712     -0.0042
    181  CD2       -6.6780    1.1300   33.1530 C.ar  712  PHE712     -0.0042
    182  CE1       -7.4540    1.7820   30.5500 C.ar  712  PHE712     -0.0003
    183  CE2       -5.7430    1.0620   32.1150 C.ar  712  PHE712     -0.0003
    184  CZ        -6.1360    1.3880   30.8000 C.ar  712  PHE712     -0.0000
    185  N        -12.4110   -0.2750   29.3960 N.3   714  ILE714     -0.1231
    186  CA       -12.5670    0.2850   28.0660 C.3   714  ILE714      0.1692
    187  C        -13.8460   -0.2170   27.3780 C.2   714  ILE714      0.2592
    188  O        -14.4270   -1.2340   27.7840 O.2   714  ILE714     -0.2718
    189  CB       -11.3230    0.0130   27.1980 C.3   714  ILE714      0.0266
    190  CG1      -11.0570   -1.5040   27.0740 C.3   714  ILE714      0.0019
    191  CG2      -10.1250    0.8260   27.7440 C.3   714  ILE714      0.0020
    192  CD1       -9.9440   -1.8710   26.0760 C.3   714  ILE714      0.0001
    193  N        -14.2770    0.5060   26.3510 N.am  715  ASP715     -0.1960
    194  CA       -15.3230    0.0470   25.4370 C.3   715  ASP715      0.1840
    195  C        -16.6730   -0.1830   26.1090 C.2   715  ASP715      0.2622
    196  O        -17.0990   -1.3160   26.2970 O.2   715  ASP715     -0.2715
    197  CB       -14.8750   -1.2080   24.6830 C.3   715  ASP715      0.1450
    198  CG       -15.8760   -1.6350   23.6350 C.2   715  ASP715      0.3671
    199  OD1      -16.3140   -2.8050   23.6480 O.co2 715  ASP715     -0.2456
    200  OD2      -16.2350   -0.7890   22.8000 O.co2 715  ASP715     -0.2456
    201  N        -17.3190    0.9130   26.4850 N.am  716  PHE716     -0.1974
    202  CA       -18.6440    0.8970   27.0760 C.3   716  PHE716      0.1639
    203  C        -19.7140    0.9900   25.9710 C.2   716  PHE716      0.2290
    204  O        -20.1780    2.0660   25.6250 O.2   716  PHE716     -0.2864
    205  CB       -18.8040    2.0830   28.0410 C.3   716  PHE716      0.0560
    206  CG       -17.6870    2.2310   29.0450 C.ar  716  PHE716     -0.0200
    207  CD1      -16.6370    3.1040   28.8040 C.ar  716  PHE716     -0.0042
    208  CD2      -17.7060    1.5340   30.2510 C.ar  716  PHE716     -0.0042
    209  CE1      -15.6120    3.2670   29.7290 C.ar  716  PHE716     -0.0003
    210  CE2      -16.6720    1.7040   31.1910 C.ar  716  PHE716     -0.0003
    211  CZ       -15.6330    2.5660   30.9180 C.ar  716  PHE716     -0.0000
@<TRIPOS>BOND
     1    12    11    2
     2     4     3    2
     3    15    16    1
     4    15    21    1
     5    11    10    1
     6    46    47    2
     7    46    45    1
     8    17    16    1
     9    17    18    2
    10    16    19    1
    11     3     2    1
    12     1     2    1
    13    21    20    1
    14    45    44    1
    15    45    48    1
    16     9    10    1
    17    10    13    1
    18    22    23    1
    19     2     5    1
    20    25    24    2
    21    19    20    1
    22    49    48    1
    23    49    50    1
    24    24    23    1
    25    13    14    1
    26    23    26    1
    27     5     6    1
    28     6     7    1
    29    26    27    1
    30    50    51    1
    31    38    39    2
    32    38    37    1
    33    28    27   ar
    34    28    30   ar
    35    27    29   ar
    36    42    40    1
    37     7     8    1
    38    37    40    1
    39    37    36    1
    40    51    52    1
    41    59    58    1
    42    53    54    1
    43    30    31   ar
    44    40    41    1
    45    29    32   ar
    46    29    31   ar
    47    58    57    1
    48    58    60    1
    49    41    43    1
    50    57    54    1
    51    32    34   ar
    52    31    33   ar
    53    54    55    1
    54    95    96    1
    55   102   100    1
    56    55    56    2
    57    34    35   ar
    58    33    35   ar
    59    98    97    2
    60   100    99    1
    61   200   198   ar
    62    96    99    1
    63    96    97    1
    64   118   116    1
    65    99   101    1
    66    97   103   am
    67   198   199   ar
    68   198   197    1
    69    68    66   ar
    70   116   117    1
    71   116   113    1
    72   157   155   ar
    73    94    93    1
    74   103   104    1
    75    91    90    1
    76    91    92    2
    77   197   194    1
    78    66    65    1
    79    66    67   ar
    80   155   156   ar
    81   155   154    1
    82   112   113    1
    83   112   105   am
    84    90    93    1
    85    90    89    1
    86   104   105    1
    87   104   107    1
    88    65    62    1
    89   113   114    1
    90   194   195    1
    91   194   193    1
    92    61    62    1
    93   154   151    1
    94   105   106    2
    95   204   203    2
    96   203   202    1
    97   192   190    1
    98   195   196    2
    99   195   201   am
   100   149   148   ar
   101   149   147   ar
   102   153   152    2
   103    62    63    1
   104   193   187   am
   105   107   108    1
   106   148   146   ar
   107   201   202    1
   108   138   137   ar
   109   114   115    2
   110   114   119   am
   111   151   152    1
   112   151   150    1
   113    63    64    2
   114   152   158   am
   115   108   109    1
   116   190   189    1
   117   202   205    1
   118   147   145   ar
   119   189   191    1
   120   189   186    1
   121   139   137   ar
   122   187   188    2
   123   187   186    1
   124   162   159    1
   125   162   163    1
   126   137   136    1
   127   173   172    1
   128   146   145   ar
   129   164   163    2
   130   119   120    1
   131   158   159    1
   132   172   171    1
   133   159   160    1
   134   145   144    1
   135    85    83   ar
   136    85    87   ar
   137   205   206    1
   138   186   185    1
   139   163   165   am
   140   129   128    2
   141    83    82   ar
   142   122   121    2
   143   109   110   ar
   144   109   111   ar
   145    75    74    1
   146    88    87    1
   147   121   120    1
   148   207   206   ar
   149   207   209   ar
   150   133   136    1
   151   133   134    1
   152   133   132    1
   153   120   123    1
   154    87    86   ar
   155   206   208   ar
   156   171   170    1
   157   144   141    1
   158   160   161    2
   159   128   132   am
   160   128   127    1
   161   134   135    2
   162    80    79    2
   163    79    78    1
   164    82    81    1
   165    82    84   ar
   166   131   130    1
   167   209   211   ar
   168    81    78    1
   169   126   127    1
   170    74    73    1
   171    74    76    1
   172   123   125    1
   173   123   124    1
   174    86    84   ar
   175   208   210   ar
   176   142   143    2
   177   142   141    1
   178   127   130    1
   179   141   140    1
   180    73    70    1
   181    78    77    1
   182   170   167    1
   183   182   184   ar
   184   182   180   ar
   185   184   183   ar
   186    69    70    1
   187   211   210   ar
   188    70    71    1
   189   167   166    1
   190   167   168    1
   191   180   179   ar
   192   183   181   ar
   193    71    72    2
   194   177   176    2
   195   168   169    2
   196   179   181   ar
   197   179   178    1
   198   176   175    1
   199   178   175    1
   200   175   174    1
