@<TRIPOS>MOLECULE
tmp/2wxpA00.pdb
 226 214 0 0 0
SMALL
GASTEIGER

@<TRIPOS>ATOM
      1  N         -1.8170   -8.3100    8.1430 N.3   512  LYS512     -0.1245
      2  CA        -1.5860   -7.1910    9.0230 C.3   512  LYS512      0.1561
      3  C         -0.1820   -6.5730    8.9240 C.2   512  LYS512      0.2260
      4  O         -0.0690   -5.3380    8.8530 O.2   512  LYS512     -0.2867
      5  CB        -1.9330   -7.5200   10.4750 C.3   512  LYS512      0.0271
      6  CG        -1.6180   -6.3290   11.3960 C.3   512  LYS512      0.0035
      7  CD        -2.4890   -6.3190   12.6090 C.3   512  LYS512      0.0206
      8  CE        -2.3710   -4.9950   13.3490 C.3   512  LYS512      0.1093
      9  NZ        -3.2220   -5.1140   14.5680 N.3   512  LYS512     -0.1314
     10  N          0.1970    1.8020   14.7330 N.3   554  THR554     -0.1203
     11  CA        -0.3380    0.5910   14.1580 C.3   554  THR554      0.1994
     12  C         -1.8630    0.7120   14.1410 C.2   554  THR554      0.2618
     13  O         -2.3780    1.8260   14.1630 O.2   554  THR554     -0.2717
     14  CB         0.1470   -0.6660   14.9490 C.3   554  THR554      0.1784
     15  OG1       -0.4450   -1.8430   14.3740 O.3   554  THR554     -0.2211
     16  CG2       -0.2310   -0.5450   16.4160 C.3   554  THR554      0.0376
     17  N         -2.5680   -0.4160   14.1070 N.am  555  PHE555     -0.1961
     18  CA        -4.0300   -0.4010   14.1850 C.3   555  PHE555      0.1771
     19  C         -4.5700   -1.6600   14.8980 C.2   555  PHE555      0.2619
     20  O         -3.9220   -2.7080   14.8750 O.2   555  PHE555     -0.2715
     21  CB        -4.6720   -0.2570   12.7720 C.3   555  PHE555      0.0574
     22  CG        -4.4420   -1.4440   11.8530 C.ar  555  PHE555     -0.0200
     23  CD1       -5.4230   -2.4330   11.7150 C.ar  555  PHE555     -0.0042
     24  CD2       -3.2690   -1.5630   11.1030 C.ar  555  PHE555     -0.0042
     25  CE1       -5.2430   -3.5450   10.8190 C.ar  555  PHE555     -0.0003
     26  CE2       -3.0570   -2.6890   10.2800 C.ar  555  PHE555     -0.0003
     27  CZ        -4.0600   -3.6720   10.1230 C.ar  555  PHE555     -0.0000
     28  N         -5.7610   -1.5460   15.4800 N.am  556  MET556     -0.1963
     29  CA        -6.4610   -2.6820   16.0740 C.3   556  MET556      0.1736
     30  C         -7.3130   -3.4950   15.0880 C.2   556  MET556      0.2616
     31  O         -7.6460   -3.0380   13.9990 O.2   556  MET556     -0.2715
     32  CB        -7.3040   -2.2060   17.2550 C.3   556  MET556      0.0427
     33  CG        -6.4880   -1.9390   18.5020 C.3   556  MET556      0.0599
     34  SD        -7.5100   -1.2460   19.8290 S.3   556  MET556     -0.1393
     35  CE        -7.5390    0.4690   19.4100 C.3   556  MET556      0.0692
     36  N         -7.6870   -4.7000   15.5070 N.am  557  ASP557     -0.1971
     37  CA        -8.2930   -5.7000   14.6480 C.3   557  ASP557      0.1709
     38  C         -9.8050   -5.7480   14.5920 C.2   557  ASP557      0.2293
     39  O        -10.3470   -6.5150   13.8060 O.2   557  ASP557     -0.2864
     40  CB        -7.7850   -7.0610   15.0510 C.3   557  ASP557      0.1436
     41  CG        -6.3150   -7.2350   14.7590 C.2   557  ASP557      0.3671
     42  OD1       -5.7670   -8.2900   15.1580 O.co2 557  ASP557     -0.2456
     43  OD2       -5.7100   -6.3320   14.1290 O.co2 557  ASP557     -0.2456
     44  N         -9.4620    0.5900   14.3200 N.3   562  PRO562     -0.2116
     45  CA        -9.0610    1.8780   14.8590 C.3   562  PRO562      0.1372
     46  C         -7.5290    2.0120   14.8960 C.2   562  PRO562      0.2244
     47  O         -6.8230    1.0200   15.1080 O.2   562  PRO562     -0.2868
     48  CB        -9.6230    1.8620   16.2950 C.3   562  PRO562      0.0268
     49  CG       -10.6630    0.7520   16.3280 C.3   562  PRO562      0.0207
     50  CD       -10.2070   -0.2310   15.2910 C.3   562  PRO562      0.0892
     51  N         -3.8370    3.4330   16.1590 N.3   564  TRP564     -0.1241
     52  CA        -3.1010    3.5190   17.4120 C.3   564  TRP564      0.1605
     53  C         -1.8800    4.3600   17.0620 C.2   564  TRP564      0.2264
     54  O         -0.9650    3.8590   16.4230 O.2   564  TRP564     -0.2867
     55  CB        -2.6160    2.1140   17.8020 C.3   564  TRP564      0.0550
     56  CG        -1.9240    1.9760   19.1420 C.ar  564  TRP564      0.0003
     57  CD1       -0.5860    2.2330   19.4310 C.ar  564  TRP564      0.0946
     58  CD2       -2.5110    1.5020   20.3630 C.ar  564  TRP564      0.0152
     59  NE1       -0.3280    1.9510   20.7690 N.ar  564  TRP564     -0.2442
     60  CE2       -1.4880    1.5140   21.3620 C.ar  564  TRP564      0.0810
     61  CE3       -3.7930    1.0850   20.7150 C.ar  564  TRP564      0.0012
     62  CZ2       -1.7260    1.1290   22.6910 C.ar  564  TRP564      0.0191
     63  CZ3       -4.0300    0.6840   22.0370 C.ar  564  TRP564      0.0001
     64  CH2       -2.9940    0.6990   23.0060 C.ar  564  TRP564      0.0015
     65  N         -5.8780    6.9450   20.3140 N.3   581  ILE581     -0.1245
     66  CA        -6.5710    5.9980   19.4460 C.3   581  ILE581      0.1561
     67  C         -7.5990    6.7880   18.6570 C.2   581  ILE581      0.2260
     68  O         -8.3350    7.5600   19.2410 O.2   581  ILE581     -0.2867
     69  CB        -7.2730    4.8930   20.2280 C.3   581  ILE581      0.0252
     70  CG1       -6.2420    4.0050   20.9100 C.3   581  ILE581      0.0019
     71  CG2       -8.2080    4.0650   19.3150 C.3   581  ILE581      0.0019
     72  CD1       -6.8650    3.1020   22.0260 C.3   581  ILE581      0.0001
     73  N        -10.7810    6.3270   16.1950 N.3   583  LYS583     -0.1245
     74  CA       -11.8200    5.4270   15.7520 C.3   583  LYS583      0.1561
     75  C        -12.8570    6.1600   14.8750 C.2   583  LYS583      0.2260
     76  O        -13.3570    7.2270   15.2220 O.2   583  LYS583     -0.2867
     77  CB       -12.4740    4.7220   16.9570 C.3   583  LYS583      0.0271
     78  CG       -13.3420    3.5160   16.5340 C.3   583  LYS583      0.0035
     79  CD       -13.5950    2.5530   17.6960 C.3   583  LYS583      0.0206
     80  CE       -14.2940    3.2870   18.7930 C.3   583  LYS583      0.1093
     81  NZ       -13.5570    3.0700   20.0870 N.3   583  LYS583     -0.1314
     82  N        -18.9100    7.1230   19.9120 N.3   588  LEU588     -0.1245
     83  CA       -18.1190    7.2990   21.1250 C.3   588  LEU588      0.1561
     84  C        -18.8000    8.0860   22.2840 C.2   588  LEU588      0.2260
     85  O        -18.2130    8.2230   23.3660 O.2   588  LEU588     -0.2867
     86  CB       -16.7730    7.9670   20.7860 C.3   588  LEU588      0.0270
     87  CG       -15.6030    7.1100   20.2660 C.3   588  LEU588      0.0019
     88  CD1      -14.3430    7.9790   20.1420 C.3   588  LEU588      0.0001
     89  CD2      -15.3360    5.9130   21.1630 C.3   588  LEU588      0.0001
     90  N        -19.4740    6.1930   25.5650 N.3   591  ASP591     -0.1239
     91  CA       -18.2300    6.0200   26.2910 C.3   591  ASP591      0.1674
     92  C        -17.8190    7.3010   26.9640 C.2   591  ASP591      0.2266
     93  O        -17.4170    7.2600   28.1200 O.2   591  ASP591     -0.2867
     94  CB       -17.1190    5.4760   25.3900 C.3   591  ASP591      0.1410
     95  CG       -17.1100    3.9460   25.3480 C.2   591  ASP591      0.3668
     96  OD1      -18.0920    3.3110   25.7460 O.co2 591  ASP591     -0.2456
     97  OD2      -16.1030    3.3550   24.9600 O.co2 591  ASP591     -0.2456
     98  N        -17.5080    7.6680   31.0370 N.3   595  LEU595     -0.1245
     99  CA       -16.2310    8.1020   31.5930 C.3   595  LEU595      0.1561
    100  C        -16.3180    9.4220   32.3780 C.2   595  LEU595      0.2260
    101  O        -15.6030    9.5800   33.3300 O.2   595  LEU595     -0.2867
    102  CB       -15.1760    8.1890   30.4960 C.3   595  LEU595      0.0270
    103  CG       -14.6710    6.7940   30.1180 C.3   595  LEU595      0.0019
    104  CD1      -14.1840    6.7680   28.6340 C.3   595  LEU595      0.0001
    105  CD2      -13.5900    6.1840   31.1470 C.3   595  LEU595      0.0001
    106  N         -9.4550    8.2170   31.9270 N.3   617  TYR617     -0.1241
    107  CA        -8.7330    8.5640   30.6850 C.3   617  TYR617      0.1605
    108  C         -9.6610    9.3110   29.6770 C.2   617  TYR617      0.2264
    109  O        -10.8730    9.0720   29.6290 O.2   617  TYR617     -0.2867
    110  CB        -8.1410    7.2870   30.0510 C.3   617  TYR617      0.0534
    111  CG        -9.2040    6.2560   29.6300 C.ar  617  TYR617     -0.0201
    112  CD1       -9.8330    6.3240   28.3740 C.ar  617  TYR617     -0.0009
    113  CD2       -9.5660    5.1970   30.4910 C.ar  617  TYR617     -0.0009
    114  CE1      -10.8060    5.3610   27.9920 C.ar  617  TYR617      0.0417
    115  CE2      -10.5250    4.2190   30.1190 C.ar  617  TYR617      0.0417
    116  CZ       -11.1370    4.3160   28.8850 C.ar  617  TYR617      0.1957
    117  OH       -12.0990    3.4010   28.5600 O.3   617  TYR617     -0.2866
    118  N        -11.7000   10.6830   26.4350 N.3   619  CYS619     -0.1235
    119  CA       -12.4540   10.0700   25.3620 C.3   619  CYS619      0.1677
    120  C        -13.3030   11.1980   24.7970 C.2   619  CYS619      0.2270
    121  O        -14.0010   11.8150   25.5510 O.2   619  CYS619     -0.2867
    122  CB       -13.3530    8.9870   25.8980 C.3   619  CYS619      0.0956
    123  SG       -14.4630    8.3470   24.5670 S.3   619  CYS619     -0.0801
    124  N         -9.6010    8.4040   21.6970 N.3   629  ILE629     -0.1231
    125  CA        -9.4580    7.7660   23.0100 C.3   629  ILE629      0.1692
    126  C         -8.0030    7.9360   23.4220 C.2   629  ILE629      0.2592
    127  O         -7.0800    7.6910   22.6310 O.2   629  ILE629     -0.2718
    128  CB        -9.8040    6.2640   22.9690 C.3   629  ILE629      0.0266
    129  CG1      -11.2920    6.0770   22.6270 C.3   629  ILE629      0.0019
    130  CG2       -9.5590    5.6130   24.3160 C.3   629  ILE629      0.0020
    131  CD1      -11.6690    4.7140   22.0630 C.3   629  ILE629      0.0001
    132  N         -7.7890    8.3210   24.6670 N.am  630  GLU630     -0.1966
    133  CA        -6.4680    8.3970   25.1960 C.3   630  GLU630      0.1733
    134  C         -5.9100    7.0200   25.4530 C.2   630  GLU630      0.2616
    135  O         -6.6140    6.1570   25.9730 O.2   630  GLU630     -0.2715
    136  CB        -6.4910    9.1950   26.5030 C.3   630  GLU630      0.0429
    137  CG        -5.2080    9.0970   27.3040 C.3   630  GLU630      0.1163
    138  CD        -5.2690    9.8720   28.6030 C.2   630  GLU630      0.3649
    139  OE1       -6.3820   10.1770   29.0950 O.co2 630  GLU630     -0.2457
    140  OE2       -4.1930   10.1980   29.1180 O.co2 630  GLU630     -0.2457
    141  N         -4.6290    6.8210   25.1300 N.am  631  VAL631     -0.1963
    142  CA        -3.9530    5.5760   25.4770 C.3   631  VAL631      0.1727
    143  C         -3.3670    5.6370   26.8980 C.2   631  VAL631      0.2616
    144  O         -2.5580    6.4670   27.1910 O.2   631  VAL631     -0.2715
    145  CB        -2.8220    5.2050   24.4490 C.3   631  VAL631      0.0290
    146  CG1       -1.9760    4.0380   24.9770 C.3   631  VAL631      0.0023
    147  CG2       -3.4100    4.8660   23.0000 C.3   631  VAL631      0.0023
    148  N         -3.7790    4.7260   27.7840 N.am  632  VAL632     -0.1977
    149  CA        -3.1220    4.6450   29.0620 C.3   632  VAL632      0.1596
    150  C         -1.9720    3.6790   28.8800 C.2   632  VAL632      0.2287
    151  O         -2.1880    2.4880   28.6220 O.2   632  VAL632     -0.2864
    152  CB        -4.0780    4.1430   30.1630 C.3   632  VAL632      0.0276
    153  CG1       -3.3620    4.1320   31.5350 C.3   632  VAL632      0.0022
    154  CG2       -5.3170    5.0070   30.1960 C.3   632  VAL632      0.0022
    155  N         -0.2240   -0.6860   30.3100 N.3   635  SER635     -0.1202
    156  CA        -1.4240   -1.3870   30.7060 C.3   635  SER635      0.2020
    157  C         -1.6790   -2.4970   29.7100 C.2   635  SER635      0.2619
    158  O         -1.1750   -2.4640   28.5820 O.2   635  SER635     -0.2717
    159  CB        -2.6550   -0.4340   30.8170 C.3   635  SER635      0.2103
    160  OG        -2.9690    0.2060   29.5870 O.3   635  SER635     -0.2182
    161  N         -2.4800   -3.4670   30.1320 N.am  636  ASP636     -0.1959
    162  CA        -2.8170   -4.6040   29.2700 C.3   636  ASP636      0.1840
    163  C         -4.1450   -5.1480   29.7630 C.2   636  ASP636      0.2622
    164  O         -4.4800   -5.0070   30.9480 O.2   636  ASP636     -0.2715
    165  CB        -1.7040   -5.6720   29.3330 C.3   636  ASP636      0.1450
    166  CG        -1.6010   -6.5120   28.0580 C.2   636  ASP636      0.3671
    167  OD1       -2.2740   -6.2170   27.0440 O.co2 636  ASP636     -0.2456
    168  OD2       -0.8160   -7.5050   28.0630 O.co2 636  ASP636     -0.2456
    169  N         -4.9180   -5.7330   28.8550 N.am  637  THR637     -0.1951
    170  CA        -6.2040   -6.3010   29.2210 C.3   637  THR637      0.1897
    171  C         -5.9720   -7.5250   30.0970 C.2   637  THR637      0.2313
    172  O         -4.9170   -8.1910   29.9940 O.2   637  THR637     -0.2863
    173  CB        -6.9940   -6.8330   27.9910 C.3   637  THR637      0.1794
    174  OG1       -6.3570   -8.0280   27.5040 O.3   637  THR637     -0.2208
    175  CG2       -7.1420   -5.7930   26.8970 C.3   637  THR637      0.0378
    176  N         -5.3070  -10.5820   27.8060 N.3   640  ASN640     -0.1240
    177  CA        -3.9180  -10.7300   27.3370 C.3   640  ASN640      0.1653
    178  C         -3.0510  -11.2940   28.4130 C.2   640  ASN640      0.2266
    179  O         -2.2640  -12.1970   28.1840 O.2   640  ASN640     -0.2867
    180  CB        -3.3320   -9.4060   26.8550 C.3   640  ASN640      0.1155
    181  CG        -3.3330   -9.2850   25.3660 C.2   640  ASN640      0.2627
    182  OD1       -2.9220  -10.2220   24.6460 O.2   640  ASN640     -0.2716
    183  ND2       -3.7560   -8.1070   24.8630 N.am  640  ASN640     -0.0877
    184  N        -11.7920   -8.9840   28.2400 N.3   701  ASP701     -0.1239
    185  CA       -11.3180   -8.1960   27.1120 C.3   701  ASP701      0.1674
    186  C        -11.5980   -6.6960   27.2610 C.2   701  ASP701      0.2266
    187  O        -10.9990   -5.8760   26.5560 O.2   701  ASP701     -0.2867
    188  CB       -11.9610   -8.6860   25.8130 C.3   701  ASP701      0.1410
    189  CG       -11.3760  -10.0040   25.3210 C.2   701  ASP701      0.3668
    190  OD1      -12.0600  -11.0390   25.4580 O.co2 701  ASP701     -0.2456
    191  OD2      -10.2430  -10.0090   24.7990 O.co2 701  ASP701     -0.2456
    192  N         -8.9220   -3.6900   32.0650 N.3   704  MET704     -0.1245
    193  CA        -7.4730   -3.5380   31.9940 C.3   704  MET704      0.1570
    194  C         -6.7590   -3.3590   33.3400 C.2   704  MET704      0.2261
    195  O         -7.3710   -3.0160   34.3530 O.2   704  MET704     -0.2867
    196  CB        -7.1160   -2.3960   31.0440 C.3   704  MET704      0.0387
    197  CG        -7.7250   -2.5520   29.6410 C.3   704  MET704      0.0595
    198  SD        -6.9210   -1.5170   28.4520 S.3   704  MET704     -0.1393
    199  CE        -5.4540   -2.5020   28.1790 C.3   704  MET704      0.0692
    200  N         -8.9010   -0.9110   35.5170 N.3   712  PHE712     -0.1241
    201  CA        -9.9330   -0.0180   34.9550 C.3   712  PHE712      0.1605
    202  C        -10.6760   -0.6990   33.8070 C.2   712  PHE712      0.2264
    203  O        -10.3980   -1.8700   33.4510 O.2   712  PHE712     -0.2867
    204  CB        -9.3830    1.3620   34.5700 C.3   712  PHE712      0.0534
    205  CG        -8.3540    1.3420   33.4570 C.ar  712  PHE712     -0.0203
    206  CD1       -8.7260    1.6730   32.1370 C.ar  712  PHE712     -0.0042
    207  CD2       -7.0200    0.9990   33.7080 C.ar  712  PHE712     -0.0042
    208  CE1       -7.7920    1.6660   31.1120 C.ar  712  PHE712     -0.0003
    209  CE2       -6.0830    0.9750   32.6840 C.ar  712  PHE712     -0.0003
    210  CZ        -6.4590    1.3090   31.3800 C.ar  712  PHE712     -0.0000
    211  N        -12.6650   -0.4040   29.8900 N.3   714  ILE714     -0.1231
    212  CA       -12.6850    0.2850   28.6110 C.3   714  ILE714      0.1692
    213  C        -13.9520   -0.1410   27.8630 C.2   714  ILE714      0.2592
    214  O        -14.6110   -1.1030   28.2830 O.2   714  ILE714     -0.2718
    215  CB       -11.4630   -0.0740   27.7870 C.3   714  ILE714      0.0266
    216  CG1      -11.3300   -1.6090   27.6700 C.3   714  ILE714      0.0019
    217  CG2      -10.1820    0.6640   28.3320 C.3   714  ILE714      0.0020
    218  CD1      -10.3210   -2.0330   26.5890 C.3   714  ILE714      0.0001
    219  N        -14.2900    0.5800   26.7920 N.am  715  ASP715     -0.1974
    220  CA       -15.2530    0.1120   25.7780 C.3   715  ASP715      0.1709
    221  C        -16.6030   -0.2160   26.3910 C.2   715  ASP715      0.2293
    222  O        -16.9660   -1.3710   26.5260 O.2   715  ASP715     -0.2864
    223  CB       -14.6850   -1.1100   25.0190 C.3   715  ASP715      0.1436
    224  CG       -15.5420   -1.5280   23.8100 C.2   715  ASP715      0.3671
    225  OD1      -16.6430   -0.9890   23.5870 O.co2 715  ASP715     -0.2456
    226  OD2      -15.1080   -2.4350   23.0720 O.co2 715  ASP715     -0.2456
@<TRIPOS>BOND
     1     1     2    1
     2     4     3    2
     3     3     2    1
     4     2     5    1
     5    27    26   ar
     6    27    25   ar
     7    26    24   ar
     8     5     6    1
     9    25    23   ar
    10    24    22   ar
    11     6     7    1
    12    23    22   ar
    13    22    21    1
    14     7     8    1
    15    21    18    1
    16     8     9    1
    17    39    38    2
    18    31    30    2
    19    17    12   am
    20    17    18    1
    21    43    41   ar
    22    12    11    1
    23    12    13    2
    24    11    10    1
    25    11    14    1
    26    18    19    1
    27    44    45    1
    28    44    50    1
    29    15    14    1
    30    38    37    1
    31    37    40    1
    32    37    36    1
    33    41    40    1
    34    41    42   ar
    35    45    46    1
    36    45    48    1
    37    75    76    2
    38    75    74    1
    39    20    19    2
    40    46    47    2
    41    19    28   am
    42    14    16    1
    43    30    36   am
    44    30    29    1
    45    50    49    1
    46    28    29    1
    47    74    73    1
    48    74    77    1
    49    29    32    1
    50    51    52    1
    51    48    49    1
    52    54    53    2
    53    78    77    1
    54    78    79    1
    55    53    52    1
    56    32    33    1
    57    52    55    1
    58    79    80    1
    59    55    56    1
    60    33    34    1
    61    67    68    2
    62    67    66    1
    63    80    81    1
    64    56    57   ar
    65    56    58   ar
    66    71    69    1
    67    35    34    1
    68    57    59   ar
    69    66    69    1
    70    66    65    1
    71    82    83    1
    72    88    87    1
    73    69    70    1
    74    87    86    1
    75    87    89    1
    76    58    61   ar
    77    58    60   ar
    78    61    63   ar
    79    59    60   ar
    80    86    83    1
    81    70    72    1
    82    83    84    1
    83    60    62   ar
    84   124   125    1
    85    63    64   ar
    86   131   129    1
    87    84    85    2
    88   129   128    1
    89   127   126    2
    90    62    64   ar
    91   128   125    1
    92   128   130    1
    93   147   145    1
    94   125   126    1
    95   226   224   ar
    96   126   132   am
    97   225   224   ar
    98   224   223    1
    99   145   146    1
   100   145   142    1
   101   123   122    1
   102   182   181    2
   103   132   133    1
   104   120   119    1
   105   120   121    2
   106   191   189   ar
   107   183   181   am
   108    97    95   ar
   109   223   220    1
   110   141   134   am
   111   141   142    1
   112   133   134    1
   113   133   136    1
   114   189   190   ar
   115   189   188    1
   116    95    94    1
   117    95    96   ar
   118   119   122    1
   119   119   118    1
   120   181   180    1
   121    94    91    1
   122   134   135    2
   123   142   143    1
   124    90    91    1
   125   220   221    1
   126   220   219    1
   127   188   185    1
   128    91    92    1
   129   221   222    2
   130   136   137    1
   131   187   186    2
   132   218   216    1
   133   219   213   am
   134   180   177    1
   135   175   173    1
   136   143   144    2
   137   143   148   am
   138    92    93    2
   139   167   166   ar
   140   185   186    1
   141   185   184    1
   142   137   138    1
   143   177   176    1
   144   177   178    1
   145   174   173    1
   146   216   215    1
   147   148   149    1
   148   215   217    1
   149   215   212    1
   150   213   214    2
   151   213   212    1
   152   173   170    1
   153   114   112   ar
   154   114   116   ar
   155   166   168   ar
   156   166   165    1
   157   199   198    1
   158   179   178    2
   159   112   111   ar
   160   198   197    1
   161   117   116    1
   162   158   157    2
   163   138   139   ar
   164   138   140   ar
   165   212   211    1
   166   151   150    2
   167   104   103    1
   168   169   170    1
   169   169   163   am
   170   150   149    1
   171   116   115   ar
   172   149   152    1
   173   170   171    1
   174   162   165    1
   175   162   163    1
   176   162   161    1
   177   160   159    1
   178   109   108    2
   179   111   110    1
   180   111   113   ar
   181   197   196    1
   182   108   107    1
   183   157   161   am
   184   157   156    1
   185   163   164    2
   186   172   171    2
   187   110   107    1
   188   103   102    1
   189   103   105    1
   190   115   113   ar
   191   152   154    1
   192   152   153    1
   193   155   156    1
   194   102    99    1
   195   107   106    1
   196   156   159    1
   197    98    99    1
   198   196   193    1
   199   208   210   ar
   200   208   206   ar
   201   210   209   ar
   202    99   100    1
   203   193   192    1
   204   193   194    1
   205   206   205   ar
   206   100   101    2
   207   209   207   ar
   208   194   195    2
   209   203   202    2
   210   205   207   ar
   211   205   204    1
   212   202   201    1
   213   204   201    1
   214   201   200    1
