@<TRIPOS>MOLECULE
tmp/2wxqA00.pdb
 193 186 0 0 0
SMALL
GASTEIGER

@<TRIPOS>ATOM
      1  N         -1.1390   -8.1020    8.2020 N.3   512  LYS512     -0.1245
      2  CA        -0.8990   -6.9310    9.0550 C.3   512  LYS512      0.1561
      3  C          0.4930   -6.3060    8.8780 C.2   512  LYS512      0.2260
      4  O          0.5810   -5.0970    8.6730 O.2   512  LYS512     -0.2867
      5  CB        -1.1950   -7.2510   10.5280 C.3   512  LYS512      0.0271
      6  CG        -0.9380   -6.1160   11.5080 C.3   512  LYS512      0.0035
      7  CD        -1.8920   -6.2340   12.6650 C.3   512  LYS512      0.0206
      8  CE        -1.9990   -4.9550   13.4740 C.3   512  LYS512      0.1093
      9  NZ        -2.9220   -5.1900   14.6210 N.3   512  LYS512     -0.1314
     10  N          0.6330    1.8090   14.3900 N.3   554  THR554     -0.1203
     11  CA         0.0580    0.6530   13.7260 C.3   554  THR554      0.1994
     12  C         -1.4320    0.8820   13.7690 C.2   554  THR554      0.2618
     13  O         -1.8610    2.0160   13.8940 O.2   554  THR554     -0.2717
     14  CB         0.4530   -0.6870   14.4130 C.3   554  THR554      0.1784
     15  OG1       -0.2490   -1.7780   13.7900 O.3   554  THR554     -0.2211
     16  CG2        0.1410   -0.6770   15.9400 C.3   554  THR554      0.0376
     17  N         -2.2040   -0.1880   13.6620 N.am  555  PHE555     -0.1961
     18  CA        -3.6500   -0.1670   13.8000 C.3   555  PHE555      0.1771
     19  C         -4.1140   -1.3840   14.6160 C.2   555  PHE555      0.2619
     20  O         -3.4370   -2.4180   14.6550 O.2   555  PHE555     -0.2715
     21  CB        -4.3440   -0.1430   12.4210 C.3   555  PHE555      0.0574
     22  CG        -4.1770   -1.4160   11.5980 C.ar  555  PHE555     -0.0200
     23  CD1       -5.2040   -2.3400   11.5070 C.ar  555  PHE555     -0.0042
     24  CD2       -3.0030   -1.6720   10.9060 C.ar  555  PHE555     -0.0042
     25  CE1       -5.0570   -3.5090   10.7490 C.ar  555  PHE555     -0.0003
     26  CE2       -2.8410   -2.8460   10.1620 C.ar  555  PHE555     -0.0003
     27  CZ        -3.8710   -3.7570   10.0790 C.ar  555  PHE555     -0.0000
     28  N         -5.2730   -1.2470   15.2540 N.am  556  MET556     -0.1963
     29  CA        -5.8690   -2.3020   16.0560 C.3   556  MET556      0.1736
     30  C         -6.8090   -3.2090   15.2500 C.2   556  MET556      0.2616
     31  O         -7.3500   -2.7940   14.2330 O.2   556  MET556     -0.2715
     32  CB        -6.5870   -1.6690   17.2410 C.3   556  MET556      0.0427
     33  CG        -5.6460   -1.0160   18.1780 C.3   556  MET556      0.0599
     34  SD        -6.4580    0.2380   19.1250 S.3   556  MET556     -0.1393
     35  CE        -6.4940   -0.4330   20.7860 C.3   556  MET556      0.0692
     36  N         -7.0170   -4.4360   15.7190 N.am  557  ASP557     -0.1957
     37  CA        -7.6280   -5.4860   14.8880 C.3   557  ASP557      0.1840
     38  C         -9.1120   -5.6350   15.0180 C.2   557  ASP557      0.2622
     39  O         -9.5800   -6.7410   15.1070 O.2   557  ASP557     -0.2715
     40  CB        -7.0490   -6.8370   15.2620 C.3   557  ASP557      0.1450
     41  CG        -5.6380   -6.9940   14.8270 C.2   557  ASP557      0.3671
     42  OD1       -5.2690   -6.4840   13.7400 O.co2 557  ASP557     -0.2456
     43  OD2       -4.8940   -7.6440   15.5770 O.co2 557  ASP557     -0.2456
     44  N         -9.8600   -4.5490   15.0590 N.am  558  SER558     -0.1950
     45  CA       -11.2980   -4.6580   15.2420 C.3   558  SER558      0.1924
     46  C        -11.9550   -4.1110   14.0070 C.2   558  SER558      0.2314
     47  O        -11.2830   -3.5100   13.1690 O.2   558  SER558     -0.2863
     48  CB       -11.7600   -3.9220   16.5020 C.3   558  SER558      0.2116
     49  OG       -11.2060   -2.6220   16.5780 O.3   558  SER558     -0.2180
     50  N         -9.0970    0.7460   14.1290 N.3   562  PRO562     -0.2116
     51  CA        -8.7180    2.0170   14.7330 C.3   562  PRO562      0.1372
     52  C         -7.2180    2.1780   14.7010 C.2   562  PRO562      0.2244
     53  O         -6.4980    1.2000   14.8600 O.2   562  PRO562     -0.2868
     54  CB        -9.1790    1.8860   16.1940 C.3   562  PRO562      0.0268
     55  CG        -9.9020    0.5870   16.3040 C.3   562  PRO562      0.0207
     56  CD        -9.5380   -0.2450   15.1270 C.3   562  PRO562      0.0892
     57  N         -3.3530    3.5800   15.7990 N.3   564  TRP564     -0.1241
     58  CA        -2.5670    3.6680   17.0370 C.3   564  TRP564      0.1605
     59  C         -1.3720    4.6210   16.8310 C.2   564  TRP564      0.2264
     60  O         -0.3940    4.2580   16.1840 O.2   564  TRP564     -0.2867
     61  CB        -2.1190    2.2560   17.4430 C.3   564  TRP564      0.0550
     62  CG        -1.2390    2.1580   18.6820 C.ar  564  TRP564      0.0003
     63  CD1        0.1300    2.3240   18.7460 C.ar  564  TRP564      0.0946
     64  CD2       -1.6640    1.8440   20.0260 C.ar  564  TRP564      0.0152
     65  NE1        0.5670    2.1500   20.0450 N.ar  564  TRP564     -0.2442
     66  CE2       -0.5020    1.8520   20.8470 C.ar  564  TRP564      0.0810
     67  CE3       -2.9120    1.5690   20.6160 C.ar  564  TRP564      0.0012
     68  CZ2       -0.5510    1.5960   22.2280 C.ar  564  TRP564      0.0191
     69  CZ3       -2.9600    1.3090   21.9840 C.ar  564  TRP564      0.0001
     70  CH2       -1.7770    1.3300   22.7790 C.ar  564  TRP564      0.0015
     71  N         -5.5030    6.9670   19.9040 N.3   581  ILE581     -0.1245
     72  CA        -6.1530    5.9810   19.0580 C.3   581  ILE581      0.1561
     73  C         -7.2190    6.6940   18.2600 C.2   581  ILE581      0.2260
     74  O         -8.1440    7.2590   18.8310 O.2   581  ILE581     -0.2867
     75  CB        -6.8450    4.8540   19.8790 C.3   581  ILE581      0.0252
     76  CG1       -5.8300    3.9430   20.5500 C.3   581  ILE581      0.0019
     77  CG2       -7.7690    3.9970   19.0080 C.3   581  ILE581      0.0019
     78  CD1       -6.3960    3.3280   21.8450 C.3   581  ILE581      0.0001
     79  N         -8.6770    8.0330   31.5540 N.3   617  TYR617     -0.1241
     80  CA        -8.1100    8.4290   30.2370 C.3   617  TYR617      0.1605
     81  C         -9.0820    9.2140   29.3310 C.2   617  TYR617      0.2264
     82  O        -10.2760    8.9020   29.2370 O.2   617  TYR617     -0.2867
     83  CB        -7.5890    7.2090   29.4710 C.3   617  TYR617      0.0534
     84  CG        -8.6580    6.1670   29.1590 C.ar  617  TYR617     -0.0201
     85  CD1       -9.3350    6.1760   27.9490 C.ar  617  TYR617     -0.0009
     86  CD2       -8.9850    5.1660   30.0940 C.ar  617  TYR617     -0.0009
     87  CE1      -10.3090    5.1990   27.6620 C.ar  617  TYR617      0.0417
     88  CE2       -9.9350    4.2010   29.8320 C.ar  617  TYR617      0.0417
     89  CZ       -10.6120    4.2170   28.6230 C.ar  617  TYR617      0.1957
     90  OH       -11.5870    3.2490   28.3720 O.3   617  TYR617     -0.2866
     91  N         -9.3180    8.2730   21.4690 N.3   629  ILE629     -0.1231
     92  CA        -9.1410    7.7810   22.8270 C.3   629  ILE629      0.1692
     93  C         -7.6980    8.0690   23.2730 C.2   629  ILE629      0.2592
     94  O         -6.7720    8.0470   22.4600 O.2   629  ILE629     -0.2718
     95  CB        -9.4310    6.2620   22.9560 C.3   629  ILE629      0.0266
     96  CG1      -10.8840    5.9130   22.6120 C.3   629  ILE629      0.0019
     97  CG2       -9.2310    5.8170   24.3800 C.3   629  ILE629      0.0020
     98  CD1      -11.1510    5.5530   21.2010 C.3   629  ILE629      0.0001
     99  N         -7.4890    8.3240   24.5580 N.am  630  GLU630     -0.1966
    100  CA        -6.1380    8.4370   25.0650 C.3   630  GLU630      0.1733
    101  C         -5.4740    7.0800   25.3420 C.2   630  GLU630      0.2616
    102  O         -6.0260    6.2440   26.0400 O.2   630  GLU630     -0.2715
    103  CB        -6.1390    9.2630   26.3400 C.3   630  GLU630      0.0429
    104  CG        -4.7550    9.6650   26.8270 C.3   630  GLU630      0.1163
    105  CD        -4.7930   10.1460   28.2500 C.2   630  GLU630      0.3649
    106  OE1       -5.8930   10.3820   28.7910 O.co2 630  GLU630     -0.2457
    107  OE2       -3.7160   10.2770   28.8440 O.co2 630  GLU630     -0.2457
    108  N         -4.2850    6.8620   24.8000 N.am  631  VAL631     -0.1963
    109  CA        -3.5870    5.6060   25.0450 C.3   631  VAL631      0.1727
    110  C         -3.0650    5.6390   26.4700 C.2   631  VAL631      0.2616
    111  O         -2.4320    6.6390   26.8920 O.2   631  VAL631     -0.2715
    112  CB        -2.3840    5.3740   24.0490 C.3   631  VAL631      0.0290
    113  CG1       -1.5930    4.1360   24.4360 C.3   631  VAL631      0.0023
    114  CG2       -2.8690    5.2470   22.6110 C.3   631  VAL631      0.0023
    115  N         -3.3180    4.5580   27.2080 N.am  632  VAL632     -0.1977
    116  CA        -2.6470    4.3630   28.4960 C.3   632  VAL632      0.1596
    117  C         -1.5260    3.3250   28.3200 C.2   632  VAL632      0.2287
    118  O         -1.8050    2.1620   28.1040 O.2   632  VAL632     -0.2864
    119  CB        -3.6210    3.9100   29.6210 C.3   632  VAL632      0.0276
    120  CG1       -2.8560    3.5530   30.8820 C.3   632  VAL632      0.0022
    121  CG2       -4.6900    4.9670   29.8970 C.3   632  VAL632      0.0022
    122  N          0.4190   -0.9700   29.9550 N.3   635  SER635     -0.1202
    123  CA        -0.7210   -1.7350   30.3550 C.3   635  SER635      0.2020
    124  C         -1.0230   -2.8240   29.3290 C.2   635  SER635      0.2619
    125  O         -0.5410   -2.7670   28.1980 O.2   635  SER635     -0.2717
    126  CB        -1.9300   -0.8010   30.5690 C.3   635  SER635      0.2103
    127  OG        -2.3210   -0.1430   29.3860 O.3   635  SER635     -0.2182
    128  N         -1.7940   -3.8260   29.7480 N.am  636  ASP636     -0.1959
    129  CA        -2.2670   -4.8770   28.8530 C.3   636  ASP636      0.1840
    130  C         -3.5850   -5.4670   29.3730 C.2   636  ASP636      0.2622
    131  O         -3.9130   -5.3250   30.5550 O.2   636  ASP636     -0.2715
    132  CB        -1.2030   -5.9590   28.7100 C.3   636  ASP636      0.1450
    133  CG        -1.2610   -6.6690   27.3730 C.2   636  ASP636      0.3671
    134  OD1       -2.0770   -6.3030   26.5080 O.co2 636  ASP636     -0.2456
    135  OD2       -0.4850   -7.6250   27.1880 O.co2 636  ASP636     -0.2456
    136  N         -4.3560   -6.1090   28.4980 N.am  637  THR637     -0.1951
    137  CA        -5.6040   -6.7510   28.9270 C.3   637  THR637      0.1897
    138  C         -5.3050   -7.8980   29.8640 C.2   637  THR637      0.2313
    139  O         -4.2630   -8.5550   29.7350 O.2   637  THR637     -0.2863
    140  CB        -6.4180   -7.3310   27.7530 C.3   637  THR637      0.1794
    141  OG1       -5.6480   -8.3400   27.0890 O.3   637  THR637     -0.2208
    142  CG2       -6.7900   -6.2400   26.7660 C.3   637  THR637      0.0378
    143  N         -4.7810  -10.8490   27.7190 N.3   640  ASN640     -0.1240
    144  CA        -3.4330  -10.9830   27.1530 C.3   640  ASN640      0.1653
    145  C         -2.4710  -11.5910   28.1530 C.2   640  ASN640      0.2266
    146  O         -1.6680  -12.4510   27.8320 O.2   640  ASN640     -0.2867
    147  CB        -2.8990   -9.6360   26.6580 C.3   640  ASN640      0.1155
    148  CG        -2.9890   -9.4860   25.1440 C.2   640  ASN640      0.2627
    149  OD1       -3.8550  -10.0700   24.4920 O.2   640  ASN640     -0.2716
    150  ND2       -2.0810   -8.7040   24.5810 N.am  640  ASN640     -0.0877
    151  N        -11.2130   -9.4640   28.3550 N.3   701  ASP701     -0.1239
    152  CA       -10.7710   -8.7980   27.1260 C.3   701  ASP701      0.1674
    153  C        -10.9270   -7.2830   27.2030 C.2   701  ASP701      0.2266
    154  O        -10.2130   -6.5480   26.5200 O.2   701  ASP701     -0.2867
    155  CB       -11.4710   -9.3630   25.8750 C.3   701  ASP701      0.1410
    156  CG       -10.6670  -10.4700   25.1950 C.2   701  ASP701      0.3668
    157  OD1      -11.2740  -11.3650   24.5700 O.co2 701  ASP701     -0.2456
    158  OD2       -9.4220  -10.4660   25.2800 O.co2 701  ASP701     -0.2456
    159  N         -8.1430   -3.8640   31.8850 N.3   704  MET704     -0.1245
    160  CA        -6.7140   -3.6850   31.7680 C.3   704  MET704      0.1570
    161  C         -6.0490   -3.4270   33.0960 C.2   704  MET704      0.2261
    162  O         -6.6120   -2.7720   33.9570 O.2   704  MET704     -0.2867
    163  CB        -6.4140   -2.5600   30.7780 C.3   704  MET704      0.0387
    164  CG        -6.9930   -2.8670   29.4050 C.3   704  MET704      0.0595
    165  SD        -6.1390   -2.2660   27.9410 S.3   704  MET704     -0.1393
    166  CE        -4.4180   -2.2380   28.4080 C.3   704  MET704      0.0692
    167  N         -8.2430   -1.0230   35.1950 N.3   712  PHE712     -0.1241
    168  CA        -9.2540   -0.1160   34.5970 C.3   712  PHE712      0.1605
    169  C         -9.9450   -0.7740   33.3780 C.2   712  PHE712      0.2264
    170  O         -9.5610   -1.8650   32.9710 O.2   712  PHE712     -0.2867
    171  CB        -8.6600    1.2640   34.2480 C.3   712  PHE712      0.0534
    172  CG        -7.7650    1.2390   33.0390 C.ar  712  PHE712     -0.0203
    173  CD1       -8.2650    1.5610   31.7740 C.ar  712  PHE712     -0.0042
    174  CD2       -6.4250    0.8340   33.1420 C.ar  712  PHE712     -0.0042
    175  CE1       -7.4360    1.5290   30.6490 C.ar  712  PHE712     -0.0003
    176  CE2       -5.5930    0.7760   32.0020 C.ar  712  PHE712     -0.0003
    177  CZ        -6.0950    1.1340   30.7660 C.ar  712  PHE712     -0.0000
    178  N        -12.0650   -0.6510   29.4030 N.3   714  ILE714     -0.1231
    179  CA       -12.1660   -0.1090   28.0620 C.3   714  ILE714      0.1692
    180  C        -13.4110   -0.7130   27.3970 C.2   714  ILE714      0.2592
    181  O        -14.0140   -1.6570   27.9450 O.2   714  ILE714     -0.2718
    182  CB       -10.9140   -0.4520   27.1990 C.3   714  ILE714      0.0266
    183  CG1      -10.7180   -1.9740   27.1000 C.3   714  ILE714      0.0019
    184  CG2       -9.6780    0.2540   27.7530 C.3   714  ILE714      0.0020
    185  CD1       -9.4910   -2.4080   26.3690 C.3   714  ILE714      0.0001
    186  N        -13.7820   -0.1670   26.2330 N.am  715  ASP715     -0.1974
    187  CA       -14.8930   -0.6600   25.4220 C.3   715  ASP715      0.1709
    188  C        -16.2220   -0.7490   26.1430 C.2   715  ASP715      0.2293
    189  O        -16.7170   -1.8430   26.4160 O.2   715  ASP715     -0.2864
    190  CB       -14.5470   -2.0100   24.7940 C.3   715  ASP715      0.1436
    191  CG       -13.5830   -1.8770   23.6410 C.2   715  ASP715      0.3671
    192  OD1      -13.7450   -0.9150   22.8540 O.co2 715  ASP715     -0.2456
    193  OD2      -12.6730   -2.7310   23.5190 O.co2 715  ASP715     -0.2456
@<TRIPOS>BOND
     1     1     2    1
     2     4     3    2
     3     3     2    1
     4     2     5    1
     5    27    26   ar
     6    27    25   ar
     7    26    24   ar
     8     5     6    1
     9    25    23   ar
    10    24    22   ar
    11    23    22   ar
    12     6     7    1
    13    22    21    1
    14    21    18    1
    15     7     8    1
    16    47    46    2
    17     8     9    1
    18    17    12   am
    19    17    18    1
    20    11    12    1
    21    11    10    1
    22    11    14    1
    23    42    41   ar
    24    12    13    2
    25    15    14    1
    26    18    19    1
    27    46    45    1
    28    50    51    1
    29    50    56    1
    30    31    30    2
    31    14    16    1
    32    19    20    2
    33    19    28   am
    34    52    51    1
    35    52    53    2
    36    51    54    1
    37    41    40    1
    38    41    43   ar
    39    37    38    1
    40    37    40    1
    41    37    36    1
    42    38    44   am
    43    38    39    2
    44    44    45    1
    45    56    55    1
    46    45    48    1
    47    30    36   am
    48    30    29    1
    49    28    29    1
    50    57    58    1
    51    29    32    1
    52    60    59    2
    53    54    55    1
    54    48    49    1
    55    59    58    1
    56    58    61    1
    57    32    33    1
    58    61    62    1
    59    33    34    1
    60    73    74    2
    61    73    72    1
    62    62    63   ar
    63    62    64   ar
    64    63    65   ar
    65    77    75    1
    66    72    75    1
    67    72    71    1
    68    34    35    1
    69    75    76    1
    70    64    67   ar
    71    64    66   ar
    72    65    66   ar
    73    76    78    1
    74    67    69   ar
    75    66    68   ar
    76    98    96    1
    77    91    92    1
    78    69    70   ar
    79    68    70   ar
    80    94    93    2
    81   114   112    1
    82    96    95    1
    83    92    95    1
    84    92    93    1
    85   192   191   ar
    86    95    97    1
    87    93    99   am
    88   193   191   ar
    89   191   190    1
    90   112   113    1
    91   112   109    1
    92   149   148    2
    93    99   100    1
    94   157   156   ar
    95   150   148   am
    96   190   187    1
    97   108   109    1
    98   108   101   am
    99   109   110    1
   100   100   101    1
   101   100   103    1
   102   148   147    1
   103   156   158   ar
   104   156   155    1
   105   101   102    2
   106   187   188    1
   107   187   186    1
   108   155   152    1
   109   188   189    2
   110   186   180   am
   111   103   104    1
   112   185   183    1
   113   110   111    2
   114   110   115   am
   115   134   133   ar
   116   154   153    2
   117   147   144    1
   118   142   140    1
   119   104   105    1
   120   141   140    1
   121   183   182    1
   122   152   153    1
   123   152   151    1
   124   144   143    1
   125   144   145    1
   126   135   133   ar
   127   182   184    1
   128   182   179    1
   129   115   116    1
   130   133   132    1
   131   180   181    2
   132   180   179    1
   133    87    85   ar
   134    87    89   ar
   135   140   137    1
   136   146   145    2
   137   165   166    1
   138   165   164    1
   139    85    84   ar
   140   179   178    1
   141   118   117    2
   142   125   124    2
   143   105   106   ar
   144   105   107   ar
   145   117   116    1
   146    90    89    1
   147   116   119    1
   148   136   137    1
   149   136   130   am
   150    89    88   ar
   151   132   129    1
   152   129   130    1
   153   129   128    1
   154   137   138    1
   155    84    83    1
   156    84    86   ar
   157    82    81    2
   158   124   128   am
   159   124   123    1
   160    81    80    1
   161   130   131    2
   162   127   126    1
   163   164   163    1
   164    83    80    1
   165   119   121    1
   166   119   120    1
   167   139   138    2
   168    88    86   ar
   169   122   123    1
   170    80    79    1
   171   123   126    1
   172   175   177   ar
   173   175   173   ar
   174   177   176   ar
   175   163   160    1
   176   160   159    1
   177   160   161    1
   178   173   172   ar
   179   176   174   ar
   180   170   169    2
   181   172   174   ar
   182   172   171    1
   183   161   162    2
   184   169   168    1
   185   171   168    1
   186   168   167    1
