@<TRIPOS>MOLECULE
tmp/2wxvC00.pdb
 166 158 0 0 0
SMALL
GASTEIGER

@<TRIPOS>ATOM
      1  N        -32.4930  167.4080   96.5070 N.3     9  GLU9       -0.1245
      2  CA       -32.1510  166.4330   95.4680 C.3     9  GLU9        0.1567
      3  C        -31.7000  167.0830   94.1550 C.2     9  GLU9        0.2260
      4  O        -32.1900  168.1450   93.7700 O.2     9  GLU9       -0.2867
      5  CB       -33.3520  165.5290   95.1840 C.3     9  GLU9        0.0388
      6  CG       -34.3600  166.1550   94.2370 C.3     9  GLU9        0.1160
      7  CD       -35.7100  165.4810   94.2830 C.2     9  GLU9        0.3649
      8  OE1      -35.9790  164.7770   95.2800 O.co2   9  GLU9       -0.2457
      9  OE2      -36.4990  165.6560   93.3260 O.co2   9  GLU9       -0.2457
     10  N        -31.7720  167.8660   90.4150 N.3    11  ILE11      -0.1231
     11  CA       -32.8640  167.8820   89.4380 C.3    11  ILE11       0.1692
     12  C        -32.3900  168.3000   88.0460 C.2    11  ILE11       0.2592
     13  O        -33.1880  168.3830   87.1050 O.2    11  ILE11      -0.2718
     14  CB       -34.0050  168.8420   89.8680 C.3    11  ILE11       0.0266
     15  CG1      -33.4450  170.2370   90.1560 C.3    11  ILE11       0.0019
     16  CG2      -34.7040  168.3020   91.0950 C.3    11  ILE11       0.0020
     17  CD1      -34.5090  171.2520   90.5160 C.3    11  ILE11       0.0001
     18  N        -31.0910  168.5710   87.9290 N.am   12  GLY12      -0.1957
     19  CA       -30.5150  168.9820   86.6600 C.3    12  GLY12       0.1869
     20  C        -29.0040  168.8280   86.6230 C.2    12  GLY12       0.2309
     21  O        -28.3270  168.9790   87.6440 O.2    12  GLY12      -0.2863
     22  N        -23.0880  173.2810   82.0000 N.3    16  TYR16      -0.1241
     23  CA       -23.1810  174.4680   82.8460 C.3    16  TYR16       0.1605
     24  C        -22.8550  174.1880   84.3110 C.2    16  TYR16       0.2264
     25  O        -22.2970  175.0410   85.0050 O.2    16  TYR16      -0.2867
     26  CB       -24.5890  175.0730   82.7520 C.3    16  TYR16       0.0534
     27  CG       -25.7010  174.1580   83.2430 C.ar   16  TYR16      -0.0201
     28  CD1      -25.9520  173.9920   84.6070 C.ar   16  TYR16      -0.0009
     29  CD2      -26.5050  173.4680   82.3430 C.ar   16  TYR16      -0.0009
     30  CE1      -26.9740  173.1640   85.0570 C.ar   16  TYR16       0.0417
     31  CE2      -27.5300  172.6410   82.7840 C.ar   16  TYR16       0.0417
     32  CZ       -27.7610  172.4950   84.1390 C.ar   16  TYR16       0.1957
     33  OH       -28.8020  171.6980   84.5620 O.3    16  TYR16      -0.2866
     34  N        -28.0290  171.5590   89.0700 N.3    19  VAL19      -0.1245
     35  CA       -29.1390  172.2300   89.7460 C.3    19  VAL19       0.1561
     36  C        -29.7480  171.3320   90.8160 C.2    19  VAL19       0.2260
     37  O        -30.1560  170.2070   90.5320 O.2    19  VAL19      -0.2867
     38  CB       -30.2650  172.6150   88.7710 C.3    19  VAL19       0.0252
     39  CG1      -31.3190  173.4030   89.5070 C.3    19  VAL19       0.0019
     40  CG2      -29.7110  173.4210   87.6060 C.3    19  VAL19       0.0019
     41  N        -35.1260  176.2430   93.3800 N.3    32  ALA32      -0.1245
     42  CA       -34.2100  175.5370   92.4910 C.3    32  ALA32       0.1562
     43  C        -32.8680  176.2600   92.4300 C.2    32  ALA32       0.2260
     44  O        -32.7700  177.3810   91.9300 O.2    32  ALA32      -0.2867
     45  CB       -34.8000  175.4280   91.1070 C.3    32  ALA32       0.0290
     46  N        -29.1470  176.6010   91.2090 N.3    34  LYS34      -0.1245
     47  CA       -28.1590  176.2380   90.1900 C.3    34  LYS34       0.1561
     48  C        -26.7300  176.5380   90.6360 C.2    34  LYS34       0.2260
     49  O        -26.4100  177.6700   90.9900 O.2    34  LYS34      -0.2867
     50  CB       -28.4340  176.9840   88.8880 C.3    34  LYS34       0.0271
     51  CG       -27.3520  176.7790   87.8500 C.3    34  LYS34       0.0035
     52  CD       -27.9200  176.7050   86.4370 C.3    34  LYS34       0.0206
     53  CE       -28.1480  178.0810   85.8410 C.3    34  LYS34       0.1093
     54  NZ       -28.7280  177.9910   84.4630 N.3    34  LYS34      -0.1314
     55  N        -27.5400  185.2240   81.2680 N.3    52  GLU52      -0.1245
     56  CA       -28.7590  184.7160   81.8660 C.3    52  GLU52       0.1567
     57  C        -29.1710  185.6520   83.0000 C.2    52  GLU52       0.2260
     58  O        -30.3170  186.0930   83.0630 O.2    52  GLU52      -0.2867
     59  CB       -28.5890  183.2860   82.3950 C.3    52  GLU52       0.0388
     60  CG       -29.8300  182.8140   83.1640 C.3    52  GLU52       0.1160
     61  CD       -29.9720  181.3010   83.2750 C.2    52  GLU52       0.3649
     62  OE1      -29.1330  180.6640   83.9540 O.co2  52  GLU52      -0.2457
     63  OE2      -30.9360  180.7520   82.6870 O.co2  52  GLU52      -0.2457
     64  N        -39.4390  181.9030   84.0890 N.3    65  VAL65      -0.1245
     65  CA       -38.9580  181.4340   85.3820 C.3    65  VAL65       0.1561
     66  C        -38.3150  182.5950   86.1380 C.2    65  VAL65       0.2260
     67  O        -37.6420  183.4470   85.5460 O.2    65  VAL65      -0.2867
     68  CB       -37.9360  180.2840   85.2350 C.3    65  VAL65       0.0252
     69  CG1      -36.6960  180.7580   84.4790 C.3    65  VAL65       0.0019
     70  CG2      -37.5500  179.7690   86.6110 C.3    65  VAL65       0.0019
     71  N        -33.4660  180.0870   91.6970 N.3    81  PHE81      -0.1227
     72  CA       -34.7080  180.2550   90.9390 C.3    81  PHE81       0.1736
     73  C        -35.8940  179.7530   91.7520 C.2    81  PHE81       0.2595
     74  O        -35.7320  178.9930   92.7120 O.2    81  PHE81      -0.2718
     75  CB       -34.6770  179.4460   89.6410 C.3    81  PHE81       0.0547
     76  CG       -33.5660  179.8130   88.6970 C.ar   81  PHE81      -0.0202
     77  CD1      -32.3010  179.2540   88.8400 C.ar   81  PHE81      -0.0042
     78  CD2      -33.8120  180.6380   87.6090 C.ar   81  PHE81      -0.0042
     79  CE1      -31.3100  179.5040   87.9130 C.ar   81  PHE81      -0.0003
     80  CE2      -32.8280  180.8930   86.6780 C.ar   81  PHE81      -0.0003
     81  CZ       -31.5730  180.3230   86.8280 C.ar   81  PHE81      -0.0000
     82  N        -37.0910  180.1580   91.3430 N.am   82  GLU82      -0.1965
     83  CA       -38.3150  179.5250   91.8270 C.3    82  GLU82       0.1733
     84  C        -38.3640  178.0820   91.3460 C.2    82  GLU82       0.2616
     85  O        -37.9660  177.7850   90.2220 O.2    82  GLU82      -0.2715
     86  CB       -39.5350  180.2550   91.2910 C.3    82  GLU82       0.0429
     87  CG       -39.5320  180.3830   89.7910 C.3    82  GLU82       0.1163
     88  CD       -40.9040  180.6910   89.2500 C.2    82  GLU82       0.3649
     89  OE1      -41.0040  181.3220   88.1720 O.co2  82  GLU82      -0.2457
     90  OE2      -41.8860  180.2960   89.9130 O.co2  82  GLU82      -0.2457
     91  N        -38.8620  177.1900   92.1950 N.am   83  PHE83      -0.1960
     92  CA       -38.9530  175.7760   91.8510 C.3    83  PHE83       0.1771
     93  C        -40.2540  175.4630   91.1110 C.2    83  PHE83       0.2619
     94  O        -41.3360  175.8350   91.5600 O.2    83  PHE83      -0.2715
     95  CB       -38.8570  174.9310   93.1220 C.3    83  PHE83       0.0574
     96  CG       -38.9590  173.4560   92.8830 C.ar   83  PHE83      -0.0200
     97  CD1      -40.1870  172.8180   92.9230 C.ar   83  PHE83      -0.0042
     98  CD2      -37.8260  172.7020   92.6320 C.ar   83  PHE83      -0.0042
     99  CE1      -40.2830  171.4570   92.7180 C.ar   83  PHE83      -0.0003
    100  CE2      -37.9150  171.3360   92.4260 C.ar   83  PHE83      -0.0003
    101  CZ       -39.1430  170.7140   92.4690 C.ar   83  PHE83      -0.0000
    102  N        -40.1360  174.7950   89.9660 N.am   84  LEU84      -0.1963
    103  CA       -41.2840  174.1650   89.3210 C.3    84  LEU84       0.1728
    104  C        -41.1360  172.6420   89.2790 C.2    84  LEU84       0.2616
    105  O        -40.0420  172.1100   89.4830 O.2    84  LEU84      -0.2715
    106  CB       -41.4770  174.7210   87.9130 C.3    84  LEU84       0.0311
    107  CG       -42.1770  176.0800   87.9260 C.3    84  LEU84       0.0022
    108  CD1      -41.1640  177.1790   88.2200 C.3    84  LEU84       0.0001
    109  CD2      -42.8650  176.3140   86.5830 C.3    84  LEU84       0.0001
    110  N        -42.2400  171.9430   89.0210 N.am   85  HIS85      -0.1959
    111  CA       -42.3310  170.5230   89.3560 C.3    85  HIS85       0.1787
    112  C        -41.7800  169.5890   88.2900 C.2    85  HIS85       0.2620
    113  O        -41.3870  168.4600   88.5880 O.2    85  HIS85      -0.2715
    114  CB       -43.7840  170.1540   89.6650 C.3    85  HIS85       0.0785
    115  CG       -44.3490  170.8920   90.8370 C.ar   85  HIS85       0.0821
    116  ND1      -45.2030  171.9670   90.6990 N.ar   85  HIS85      -0.2267
    117  CD2      -44.1410  170.7440   92.1670 C.ar   85  HIS85       0.1154
    118  CE1      -45.4930  172.4510   91.8940 C.ar   85  HIS85       0.1986
    119  NE2      -44.8610  171.7270   92.8020 N.ar   85  HIS85      -0.2212
    120  N        -41.7370  170.0670   87.0530 N.am   86  GLN86      -0.1963
    121  CA       -41.5350  169.1880   85.9160 C.3    86  GLN86       0.1733
    122  C        -41.2920  170.0200   84.6620 C.2    86  GLN86       0.2616
    123  O        -41.8670  171.0980   84.5080 O.2    86  GLN86      -0.2715
    124  CB       -42.7810  168.3180   85.7330 C.3    86  GLN86       0.0408
    125  CG       -42.6230  167.1670   84.7600 C.3    86  GLN86       0.0908
    126  CD       -43.5980  166.0460   85.0430 C.2    86  GLN86       0.2608
    127  OE1      -44.6860  165.9880   84.4630 O.2    86  GLN86      -0.2717
    128  NE2      -43.2140  165.1460   85.9430 N.am   86  GLN86      -0.0878
    129  N        -40.4500  169.5280   83.7600 N.am   87  ASP87      -0.1971
    130  CA       -40.3330  170.1630   82.4520 C.3    87  ASP87       0.1709
    131  C        -41.3200  169.5430   81.4590 C.2    87  ASP87       0.2293
    132  O        -41.8800  168.4840   81.7160 O.2    87  ASP87      -0.2864
    133  CB       -38.8970  170.0560   81.9280 C.3    87  ASP87       0.1436
    134  CG       -38.4770  168.6320   81.6580 C.2    87  ASP87       0.3671
    135  OD1      -39.3510  167.8260   81.2810 O.co2  87  ASP87      -0.2456
    136  OD2      -37.2750  168.3230   81.8180 O.co2  87  ASP87      -0.2456
    137  N        -40.6960  165.7940   79.8710 N.3    90  LYS90      -0.1245
    138  CA       -41.0310  164.6280   80.6680 C.3    90  LYS90       0.1561
    139  C        -42.5400  164.4560   80.7780 C.2    90  LYS90       0.2260
    140  O        -43.0310  163.3500   80.9820 O.2    90  LYS90      -0.2867
    141  CB       -40.4170  164.7610   82.0600 C.3    90  LYS90       0.0271
    142  CG       -40.8920  163.7280   83.0580 C.3    90  LYS90       0.0035
    143  CD       -40.0200  163.7160   84.3070 C.3    90  LYS90       0.0206
    144  CE       -40.6600  162.9010   85.4250 C.3    90  LYS90       0.1093
    145  NZ       -39.7250  162.6850   86.5670 N.3    90  LYS90      -0.1314
    146  N        -41.0270  174.8710   81.7700 N.3   135  LEU135     -0.1245
    147  CA       -41.3520  174.2650   83.0600 C.3   135  LEU135      0.1561
    148  C        -42.8140  174.4350   83.4370 C.2   135  LEU135      0.2260
    149  O        -43.4460  175.4420   83.1150 O.2   135  LEU135     -0.2867
    150  CB       -40.4580  174.8460   84.1580 C.3   135  LEU135      0.0270
    151  CG       -38.9620  174.7750   83.8140 C.3   135  LEU135      0.0019
    152  CD1      -38.1070  175.2180   84.9870 C.3   135  LEU135      0.0001
    153  CD2      -38.6120  173.3510   83.4110 C.3   135  LEU135      0.0001
    154  N        -37.7540  178.8370   80.5750 N.3   145  ALA145     -0.1231
    155  CA       -36.5350  178.7520   81.3860 C.3   145  ALA145      0.1694
    156  C        -35.2930  178.5150   80.5400 C.2   145  ALA145      0.2592
    157  O        -35.3620  178.3860   79.3190 O.2   145  ALA145     -0.2718
    158  CB       -36.6440  177.6430   82.3880 C.3   145  ALA145      0.0304
    159  N        -34.1490  178.4670   81.2130 N.am  146  ASP146     -0.1974
    160  CA       -32.8450  178.3030   80.5660 C.3   146  ASP146      0.1709
    161  C        -32.5400  179.3830   79.5300 C.2   146  ASP146      0.2293
    162  O        -32.6280  179.1560   78.3230 O.2   146  ASP146     -0.2864
    163  CB       -32.7130  176.9300   79.9000 C.3   146  ASP146      0.1436
    164  CG       -31.2720  176.6140   79.5220 C.2   146  ASP146      0.3671
    165  OD1      -30.4350  177.5430   79.4950 O.co2 146  ASP146     -0.2456
    166  OD2      -30.9800  175.4310   79.2560 O.co2 146  ASP146     -0.2456
@<TRIPOS>BOND
     1   162   161    2
     2   166   164   ar
     3   157   156    2
     4   165   164   ar
     5   164   163    1
     6   161   160    1
     7   137   138    1
     8   163   160    1
     9   156   159   am
    10   156   155    1
    11   160   159    1
    12   154   155    1
    13   138   139    1
    14   138   141    1
    15   139   140    2
    16    55    56    1
    17   135   134   ar
    18   155   158    1
    19   131   132    2
    20   131   130    1
    21   134   136   ar
    22   134   133    1
    23   146   147    1
    24    56    59    1
    25    56    57    1
    26   133   130    1
    27    22    23    1
    28   141   142    1
    29    29    31   ar
    30    29    27   ar
    31    59    60    1
    32   130   129    1
    33    63    61   ar
    34    26    23    1
    35    26    27    1
    36    31    32   ar
    37    23    24    1
    38    57    58    2
    39   142   143    1
    40   147   148    1
    41   147   150    1
    42   149   148    2
    43    60    61    1
    44    27    28   ar
    45    61    62   ar
    46   153   151    1
    47   129   122   am
    48   151   150    1
    49   151   152    1
    50    64    65    1
    51    32    33    1
    52    32    30   ar
    53   143   144    1
    54    24    25    2
    55    54    53    1
    56   127   126    2
    57    69    68    1
    58   123   122    2
    59    28    30   ar
    60   122   121    1
    61   125   126    1
    62   125   124    1
    63   126   128   am
    64    68    65    1
    65    68    70    1
    66    65    66    1
    67   144   145    1
    68    67    66    2
    69   124   121    1
    70    53    52    1
    71   121   120    1
    72    52    51    1
    73   109   107    1
    74    20    19    1
    75    20    21    2
    76    19    18    1
    77    80    81   ar
    78    80    78   ar
    79    81    79   ar
    80   120   112   am
    81    13    12    2
    82    40    38    1
    83    78    76   ar
    84    51    50    1
    85    79    77   ar
    86   106   107    1
    87   106   103    1
    88   107   108    1
    89    18    12   am
    90    12    11    1
    91    89    88   ar
    92   112   113    2
    93   112   111    1
    94    76    77   ar
    95    76    75    1
    96    38    39    1
    97    38    35    1
    98    50    47    1
    99   110   104   am
   100   110   111    1
   101    34    35    1
   102    88    87    1
   103    88    90   ar
   104   104   103    1
   105   104   105    2
   106   103   102    1
   107   111   114    1
   108    11    14    1
   109    11    10    1
   110    75    72    1
   111   114   115    1
   112    35    36    1
   113    87    86    1
   114    14    15    1
   115    14    16    1
   116   102    93   am
   117    15    17    1
   118    47    48    1
   119    47    46    1
   120    85    84    2
   121    37    36    2
   122    48    49    2
   123   116   115   ar
   124   116   118   ar
   125   115   117   ar
   126    72    71    1
   127    72    73    1
   128    45    42    1
   129    93    94    2
   130    93    92    1
   131    86    83    1
   132    82    73   am
   133    82    83    1
   134    84    83    1
   135    84    91   am
   136    73    74    2
   137    92    91    1
   138    92    95    1
   139   118   119   ar
   140    44    43    2
   141   117   119   ar
   142   100   101   ar
   143   100    98   ar
   144    43    42    1
   145   101    99   ar
   146    42    41    1
   147    98    96   ar
   148    99    97   ar
   149    96    97   ar
   150    96    95    1
   151     9     7   ar
   152     4     3    2
   153     3     2    1
   154     6     7    1
   155     6     5    1
   156     7     8   ar
   157     5     2    1
   158     2     1    1
