@<TRIPOS>MOLECULE
tmp/2wy3D00.pdb
 102 97 0 0 0
SMALL
GASTEIGER

@<TRIPOS>ATOM
      1  N         46.8720   -8.1310   90.5910 N.3     1  VAL1       -0.1245
      2  CA        46.2700   -6.8750   90.1670 C.3     1  VAL1        0.1561
      3  C         47.1410   -5.6940   90.5630 C.2     1  VAL1        0.2260
      4  O         47.5330   -5.5630   91.7200 O.2     1  VAL1       -0.2867
      5  CB        44.8770   -6.6700   90.8000 C.3     1  VAL1        0.0252
      6  CG1       44.3600   -5.2820   90.4830 C.3     1  VAL1        0.0019
      7  CG2       43.9050   -7.7240   90.3040 C.3     1  VAL1        0.0019
      8  N         48.0600   -4.8770   94.4400 N.3    14  LEU14      -0.1245
      9  CA        46.9740   -5.0060   95.3960 C.3    14  LEU14       0.1561
     10  C         47.0880   -6.3130   96.1780 C.2    14  LEU14       0.2260
     11  O         47.2980   -7.3800   95.5960 O.2    14  LEU14      -0.2867
     12  CB        45.6260   -4.9350   94.6760 C.3    14  LEU14       0.0270
     13  CG        44.3740   -5.1860   95.5170 C.3    14  LEU14       0.0019
     14  CD1       44.2510   -4.1410   96.6200 C.3    14  LEU14       0.0001
     15  CD2       43.1320   -5.1850   94.6260 C.3    14  LEU14       0.0001
     16  N         44.5740   -7.9410   98.9090 N.3    16  VAL16      -0.1245
     17  CA        43.2950   -7.6800   99.5790 C.3    16  VAL16       0.1561
     18  C         43.3310   -7.9770  101.0740 C.2    16  VAL16       0.2260
     19  O         42.5450   -7.4220  101.8420 O.2    16  VAL16      -0.2867
     20  CB        42.0860   -8.4030   98.9150 C.3    16  VAL16       0.0252
     21  CG1       41.8110   -7.8350   97.5120 C.3    16  VAL16       0.0019
     22  CG2       42.3030   -9.9110   98.8820 C.3    16  VAL16       0.0019
     23  N         35.3020   -4.8200   97.4380 N.3    53  PHE53      -0.1241
     24  CA        34.1450   -5.1480   98.2510 C.3    53  PHE53       0.1605
     25  C         34.4870   -6.3920   99.0620 C.2    53  PHE53       0.2264
     26  O         34.8660   -7.4120   98.4980 O.2    53  PHE53      -0.2867
     27  CB        32.9350   -5.4650   97.3650 C.3    53  PHE53       0.0534
     28  CG        31.8010   -6.1460   98.1040 C.ar   53  PHE53      -0.0203
     29  CD1       31.2810   -5.5950   99.2730 C.ar   53  PHE53      -0.0042
     30  CD2       31.2670   -7.3380   97.6340 C.ar   53  PHE53      -0.0042
     31  CE1       30.2430   -6.2220   99.9680 C.ar   53  PHE53      -0.0003
     32  CE2       30.2260   -7.9740   98.3270 C.ar   53  PHE53      -0.0003
     33  CZ        29.7170   -7.4090   99.4920 C.ar   53  PHE53      -0.0000
     34  N         32.8150   -9.0590  101.6930 N.3    55  TRP55      -0.1241
     35  CA        31.5050   -9.4820  102.2020 C.3    55  TRP55       0.1605
     36  C         31.4270   -9.4570  103.7290 C.2    55  TRP55       0.2264
     37  O         32.3440   -9.9270  104.4100 O.2    55  TRP55      -0.2867
     38  CB        31.2110  -10.9110  101.6990 C.3    55  TRP55       0.0550
     39  CG        29.8080  -11.3890  101.8870 C.ar   55  TRP55       0.0003
     40  CD1       28.6640  -10.6420  101.8540 C.ar   55  TRP55       0.0946
     41  CD2       29.3940  -12.7520  102.0810 C.ar   55  TRP55       0.0152
     42  NE1       27.5570  -11.4580  102.0220 N.ar   55  TRP55      -0.2442
     43  CE2       27.9820  -12.7550  102.1720 C.ar   55  TRP55       0.0810
     44  CE3       30.0810  -13.9620  102.1760 C.ar   55  TRP55       0.0012
     45  CZ2       27.2440  -13.9280  102.3590 C.ar   55  TRP55       0.0191
     46  CZ3       29.3440  -15.1360  102.3690 C.ar   55  TRP55       0.0001
     47  CH2       27.9420  -15.1060  102.4530 C.ar   55  TRP55       0.0015
     48  N         36.0290  -13.3410  101.3140 N.3    61  VAL61      -0.1231
     49  CA        35.2850  -13.2540  100.0630 C.3    61  VAL61       0.1692
     50  C         35.2790  -11.7960   99.6030 C.2    61  VAL61       0.2592
     51  O         34.6140  -10.9520  100.2050 O.2    61  VAL61      -0.2718
     52  CB        33.8460  -13.7900  100.2380 C.3    61  VAL61       0.0266
     53  CG1       33.0260  -13.5880   98.9670 C.3    61  VAL61       0.0020
     54  CG2       33.8730  -15.2870  100.6500 C.3    61  VAL61       0.0020
     55  N         36.0550  -11.5020   98.5610 N.am   62  VAL62      -0.1966
     56  CA        36.2830  -10.1170   98.1330 C.3    62  VAL62       0.1727
     57  C         36.0110   -9.9830   96.6440 C.2    62  VAL62       0.2616
     58  O         36.2590  -10.9130   95.8790 O.2    62  VAL62      -0.2715
     59  CB        37.7430   -9.6690   98.4280 C.3    62  VAL62       0.0290
     60  CG1       37.9590   -8.1960   98.0430 C.3    62  VAL62       0.0023
     61  CG2       38.0770   -9.8660   99.8830 C.3    62  VAL62       0.0023
     62  N         35.4630   -8.8510   96.2250 N.am   63  ASP63      -0.1957
     63  CA        35.2500   -8.6160   94.8030 C.3    63  ASP63       0.1840
     64  C         35.9250   -7.2810   94.5100 C.2    63  ASP63       0.2621
     65  O         36.3020   -6.5610   95.4340 O.2    63  ASP63      -0.2715
     66  CB        33.7520   -8.5350   94.4910 C.3    63  ASP63       0.1450
     67  CG        33.4060   -8.9160   93.0390 C.2    63  ASP63       0.3671
     68  OD1       34.3100   -8.9660   92.1680 O.co2  63  ASP63      -0.2456
     69  OD2       32.2060   -9.1870   92.7880 O.co2  63  ASP63      -0.2456
     70  N         36.0900   -6.9620   93.2330 N.am   64  LEU64      -0.1977
     71  CA        36.8340   -5.7690   92.8390 C.3    64  LEU64       0.1596
     72  C         36.3090   -5.2670   91.5060 C.2    64  LEU64       0.2287
     73  O         36.0620   -6.0650   90.6010 O.2    64  LEU64      -0.2864
     74  CB        38.3150   -6.1230   92.6870 C.3    64  LEU64       0.0297
     75  CG        39.3110   -5.0260   92.2980 C.3    64  LEU64       0.0022
     76  CD1       39.4930   -4.0670   93.4840 C.3    64  LEU64       0.0001
     77  CD2       40.6420   -5.6610   91.9010 C.3    64  LEU64       0.0001
     78  N         37.5960   -3.6490   84.6660 N.3    74  ARG74      -0.1245
     79  CA        37.2380   -4.8850   85.3490 C.3    74  ARG74       0.1563
     80  C         35.9220   -4.6760   86.0870 C.2    74  ARG74       0.2260
     81  O         35.8370   -3.8220   86.9560 O.2    74  ARG74      -0.2867
     82  CB        38.3350   -5.2950   86.3400 C.3    74  ARG74       0.0307
     83  CG        38.0540   -6.6060   87.0870 C.3    74  ARG74       0.0489
     84  CD        39.0060   -6.7240   88.2880 C.3    74  ARG74       0.2205
     85  NE        38.7760   -7.9180   89.1040 N.pl3  74  ARG74      -0.0865
     86  CZ        39.7150   -8.8120   89.3990 C.cat  74  ARG74       0.5346
     87  NH1       39.4160   -9.8580   90.1570 N.pl3  74  ARG74       0.1354
     88  NH2       40.9530   -8.6580   88.9430 N.pl3  74  ARG74       0.1354
     89  N         32.7800   -9.3280   89.7980 N.3    77  SER77      -0.1202
     90  CA        32.5150  -10.6680   89.2880 C.3    77  SER77       0.2020
     91  C         31.0110  -10.8810   89.1930 C.2    77  SER77       0.2618
     92  O         30.5130  -11.5100   88.2540 O.2    77  SER77      -0.2717
     93  CB        33.1360  -11.7250   90.2000 C.3    77  SER77       0.2103
     94  OG        32.4100  -11.8360   91.4120 O.3    77  SER77      -0.2182
     95  N         30.2880  -10.3440   90.1700 N.am   78  ASP78      -0.1973
     96  CA        28.8390  -10.4820   90.2150 C.3    78  ASP78       0.1709
     97  C         28.1990   -9.1130   90.0290 C.2    78  ASP78       0.2293
     98  O         28.2660   -8.2650   90.9260 O.2    78  ASP78      -0.2864
     99  CB        28.4050  -11.0840   91.5570 C.3    78  ASP78       0.1436
    100  CG        26.9220  -11.3940   91.6070 C.2    78  ASP78       0.3671
    101  OD1       26.1750  -10.9140   90.7310 O.co2  78  ASP78      -0.2456
    102  OD2       26.4960  -12.1240   92.5280 O.co2  78  ASP78      -0.2456
@<TRIPOS>BOND
     1    78    79    1
     2    79    80    1
     3    79    82    1
     4    80    81    2
     5    82    83    1
     6    83    84    1
     7    92    91    2
     8    84    85    1
     9    88    86    1
    10    85    86    2
    11    91    90    1
    12    91    95   am
    13    90    89    1
    14    90    93    1
    15    86    87    1
    16    97    96    1
    17    97    98    2
    18     2     3    1
    19     2     1    1
    20     2     5    1
    21    95    96    1
    22    93    94    1
    23    96    99    1
    24     7     5    1
    25     6     5    1
    26     3     4    2
    27    73    72    2
    28   101   100   ar
    29    72    71    1
    30    99   100    1
    31   100   102   ar
    32    77    75    1
    33    68    67   ar
    34    75    74    1
    35    75    76    1
    36    74    71    1
    37    69    67   ar
    38    71    70    1
    39    67    66    1
    40    70    64   am
    41     8     9    1
    42    66    63    1
    43    64    63    1
    44    64    65    2
    45    15    13    1
    46    12     9    1
    47    12    13    1
    48    63    62    1
    49     9    10    1
    50    13    14    1
    51    11    10    2
    52    58    57    2
    53    62    57   am
    54    57    56    1
    55    27    28    1
    56    27    24    1
    57    23    24    1
    58    21    20    1
    59    30    28   ar
    60    30    32   ar
    61    60    59    1
    62    28    29   ar
    63    56    59    1
    64    56    55    1
    65    24    25    1
    66    32    33   ar
    67    59    61    1
    68    26    25    2
    69    55    50   am
    70    22    20    1
    71    16    17    1
    72    20    17    1
    73    53    52    1
    74    29    31   ar
    75    33    31   ar
    76    17    18    1
    77    50    49    1
    78    50    51    2
    79    49    52    1
    80    49    48    1
    81    52    54    1
    82    18    19    2
    83    34    35    1
    84    38    39    1
    85    38    35    1
    86    40    39   ar
    87    40    42   ar
    88    39    41   ar
    89    42    43   ar
    90    41    43   ar
    91    41    44   ar
    92    43    45   ar
    93    44    46   ar
    94    35    36    1
    95    45    47   ar
    96    46    47   ar
    97    36    37    2
