@<TRIPOS>MOLECULE
tmp/2wy3A00.pdb
 105 98 0 0 0
SMALL
GASTEIGER

@<TRIPOS>ATOM
      1  N         24.8060   56.5310   90.3950 N.3     7  ARG7       -0.1245
      2  CA        23.8720   55.8750   89.4810 C.3     7  ARG7        0.1563
      3  C         23.1760   54.7130   90.1750 C.2     7  ARG7        0.2260
      4  O         23.8410   53.8260   90.7110 O.2     7  ARG7       -0.2867
      5  CB        24.6060   55.3580   88.2310 C.3     7  ARG7        0.0307
      6  CG        23.6770   54.7200   87.1900 C.3     7  ARG7        0.0489
      7  CD        24.4710   54.2070   85.9890 C.3     7  ARG7        0.2205
      8  NE        25.0330   52.8830   86.2410 N.pl3   7  ARG7       -0.0865
      9  CZ        24.5560   51.7570   85.7180 C.cat   7  ARG7        0.5346
     10  NH1       25.1260   50.5940   86.0050 N.pl3   7  ARG7        0.1354
     11  NH2       23.5130   51.7940   84.9000 N.pl3   7  ARG7        0.1354
     12  N         20.3910   51.5070   89.6550 N.3     9  ASN9       -0.1240
     13  CA        19.8220   50.6350   88.6410 C.3     9  ASN9        0.1653
     14  C         18.8590   49.6760   89.3420 C.2     9  ASN9        0.2266
     15  O         19.2870   48.8220   90.1080 O.2     9  ASN9       -0.2867
     16  CB        20.9670   49.8830   87.9430 C.3     9  ASN9        0.1155
     17  CG        20.4880   48.7900   86.9940 C.2     9  ASN9        0.2627
     18  OD1       19.3070   48.6990   86.6580 O.2     9  ASN9       -0.2716
     19  ND2       21.4240   47.9510   86.5540 N.am    9  ASN9       -0.0877
     20  N         15.3150   47.0610   89.0090 N.3    11  MET11      -0.1245
     21  CA        14.5190   46.3030   88.0520 C.3    11  MET11       0.1570
     22  C         13.4190   45.5320   88.7750 C.2    11  MET11       0.2261
     23  O         13.6420   44.9910   89.8570 O.2    11  MET11      -0.2867
     24  CB        15.3920   45.3370   87.2460 C.3    11  MET11       0.0387
     25  CG        14.5770   44.4590   86.2920 C.3    11  MET11       0.0595
     26  SD        15.5880   43.4090   85.2330 S.3    11  MET11      -0.1393
     27  CE        16.2880   44.6310   84.1290 C.3    11  MET11       0.0692
     28  N         15.2220   44.0690   92.1340 N.3    24  LEU24      -0.1231
     29  CA        16.6760   43.9830   92.0410 C.3    24  LEU24       0.1693
     30  C         17.2340   45.4010   92.0550 C.2    24  LEU24       0.2592
     31  O         16.6100   46.3110   91.5160 O.2    24  LEU24      -0.2718
     32  CB        17.0870   43.2970   90.7330 C.3    24  LEU24       0.0284
     33  CG        16.5090   41.9130   90.4460 C.3    24  LEU24       0.0019
     34  CD1       16.7510   41.5130   88.9880 C.3    24  LEU24       0.0001
     35  CD2       17.1010   40.8970   91.4020 C.3    24  LEU24       0.0001
     36  N         18.4010   45.6010   92.6590 N.am   25  ALA25      -0.1966
     37  CA        18.9820   46.9410   92.6790 C.3    25  ALA25       0.1728
     38  C         20.4890   46.9190   92.8270 C.2    25  ALA25       0.2616
     39  O         21.0490   46.0330   93.4670 O.2    25  ALA25      -0.2715
     40  CB        18.3580   47.8010   93.8150 C.3    25  ALA25       0.0334
     41  N         21.1380   47.9120   92.2380 N.am   26  GLU26      -0.1977
     42  CA        22.5730   48.0900   92.4110 C.3    26  GLU26       0.1602
     43  C         22.8870   49.5730   92.3070 C.2    26  GLU26       0.2287
     44  O         22.1190   50.3380   91.7270 O.2    26  GLU26      -0.2864
     45  CB        23.3580   47.3100   91.3520 C.3    26  GLU26       0.0415
     46  CG        23.1760   47.8520   89.9430 C.3    26  GLU26       0.1163
     47  CD        24.0820   47.1850   88.9120 C.2    26  GLU26       0.3649
     48  OE1       24.8180   46.2370   89.2670 O.co2  26  GLU26      -0.2457
     49  OE2       24.0530   47.6150   87.7370 O.co2  26  GLU26      -0.2457
     50  N         25.0110   46.9510   96.6230 N.3    36  ARG36      -0.1231
     51  CA        24.2370   45.8290   96.1190 C.3    36  ARG36       0.1694
     52  C         23.0110   45.7060   96.9980 C.2    36  ARG36       0.2592
     53  O         22.9500   46.2920   98.0750 O.2    36  ARG36      -0.2718
     54  CB        25.0510   44.5360   96.1360 C.3    36  ARG36       0.0321
     55  CG        25.5800   44.1610   97.4950 C.3    36  ARG36       0.0489
     56  CD        26.4680   42.9230   97.3920 C.3    36  ARG36       0.2205
     57  NE        27.0290   42.5740   98.6880 N.pl3  36  ARG36      -0.0865
     58  CZ        26.4420   41.7590   99.5580 C.cat  36  ARG36       0.5346
     59  NH1       27.0260   41.4970  100.7190 N.pl3  36  ARG36       0.1354
     60  NH2       25.2710   41.2040   99.2650 N.pl3  36  ARG36       0.1354
     61  N         22.0140   44.9760   96.5240 N.am   37  TYR37      -0.1976
     62  CA        20.7760   44.8350   97.2690 C.3    37  TYR37       0.1639
     63  C         20.4620   43.3570   97.4080 C.2    37  TYR37       0.2290
     64  O         20.3700   42.6320   96.4140 O.2    37  TYR37      -0.2864
     65  CB        19.6370   45.5970   96.5760 C.3    37  TYR37       0.0560
     66  CG        18.2900   45.3870   97.2250 C.ar   37  TYR37      -0.0198
     67  CD1       17.9620   46.0280   98.4200 C.ar   37  TYR37      -0.0009
     68  CD2       17.3460   44.5430   96.6510 C.ar   37  TYR37      -0.0009
     69  CE1       16.7330   45.8330   99.0180 C.ar   37  TYR37       0.0417
     70  CE2       16.1230   44.3350   97.2430 C.ar   37  TYR37       0.0417
     71  CZ        15.8140   44.9820   98.4220 C.ar   37  TYR37       0.1957
     72  OH        14.5870   44.7740   99.0080 O.3    37  TYR37      -0.2866
     73  N         12.8930   48.4010   84.1100 N.3    92  GLN92      -0.1245
     74  CA        14.1390   48.8280   84.7180 C.3    92  GLN92       0.1566
     75  C         14.1760   50.3430   84.7320 C.2    92  GLN92       0.2260
     76  O         13.7920   50.9860   83.7590 O.2    92  GLN92      -0.2867
     77  CB        15.3110   48.2970   83.8980 C.3    92  GLN92       0.0367
     78  CG        16.6610   48.8120   84.3260 C.3    92  GLN92       0.0905
     79  CD        17.7710   48.3440   83.4160 C.2    92  GLN92       0.2608
     80  OE1       17.5710   48.1810   82.2120 O.2    92  GLN92      -0.2717
     81  NE2       18.9520   48.1310   83.9810 N.am   92  GLN92      -0.0878
     82  N         16.8820   53.4740   85.5010 N.3    94  ILE94      -0.1245
     83  CA        18.2320   53.9340   85.7880 C.3    94  ILE94       0.1561
     84  C         18.1380   55.3900   86.2170 C.2    94  ILE94       0.2260
     85  O         17.6290   56.2270   85.4710 O.2    94  ILE94      -0.2867
     86  CB        19.1430   53.8510   84.5440 C.3    94  ILE94       0.0252
     87  CG1       19.2120   52.4150   84.0100 C.3    94  ILE94       0.0019
     88  CG2       20.5350   54.4150   84.8760 C.3    94  ILE94       0.0019
     89  CD1       20.0620   51.4890   84.8410 C.3    94  ILE94       0.0001
     90  N         13.2670   51.3850   80.9620 N.3   112  TYR112     -0.1241
     91  CA        13.4260   50.3700   79.9320 C.3   112  TYR112      0.1605
     92  C         12.4070   49.2590   80.1560 C.2   112  TYR112      0.2264
     93  O         12.3090   48.7200   81.2550 O.2   112  TYR112     -0.2867
     94  CB        14.8410   49.7810   79.9910 C.3   112  TYR112      0.0534
     95  CG        15.9400   50.8070   79.8060 C.ar  112  TYR112     -0.0201
     96  CD1       16.3300   51.6260   80.8530 C.ar  112  TYR112     -0.0009
     97  CD2       16.5820   50.9600   78.5770 C.ar  112  TYR112     -0.0009
     98  CE1       17.3200   52.5740   80.6870 C.ar  112  TYR112      0.0417
     99  CE2       17.5850   51.9090   78.4070 C.ar  112  TYR112      0.0417
    100  CZ        17.9450   52.7100   79.4670 C.ar  112  TYR112      0.1957
    101  OH        18.9370   53.6530   79.3210 O.3   112  TYR112     -0.2866
    102  N         14.0030   45.6740   78.1830 N.3   115  GLY115     -0.1225
    103  CA        15.3030   46.0810   77.6820 C.3   115  GLY115      0.1811
    104  C         15.2810   47.2820   76.7580 C.2   115  GLY115      0.2280
    105  O         16.3340   47.7710   76.3590 O.2   115  GLY115     -0.2866
@<TRIPOS>BOND
     1   105   104    2
     2   104   103    1
     3   103   102    1
     4    99    97   ar
     5    99   100   ar
     6    97    95   ar
     7   101   100    1
     8   100    98   ar
     9    95    94    1
    10    95    96   ar
    11    91    94    1
    12    91    92    1
    13    91    90    1
    14    92    93    2
    15    98    96   ar
    16    80    79    2
    17    79    81   am
    18    79    78    1
    19    76    75    2
    20    77    78    1
    21    77    74    1
    22    87    86    1
    23    87    89    1
    24    73    74    1
    25    27    26    1
    26    86    88    1
    27    86    83    1
    28    74    75    1
    29    11     9    1
    30    26    25    1
    31    85    84    2
    32    82    83    1
    33     9    10    1
    34     9     8    2
    35    83    84    1
    36     7     8    1
    37     7     6    1
    38    25    24    1
    39    19    17   am
    40    18    17    2
    41    17    16    1
    42     6     5    1
    43    24    21    1
    44    49    47   ar
    45    16    13    1
    46    21    22    1
    47    21    20    1
    48     5     2    1
    49    13    14    1
    50    13    12    1
    51    22    23    2
    52    47    48   ar
    53    47    46    1
    54    34    33    1
    55    14    15    2
    56     2     3    1
    57     2     1    1
    58    46    45    1
    59     3     4    2
    60    33    32    1
    61    33    35    1
    62    32    29    1
    63    45    42    1
    64    31    30    2
    65    44    43    2
    66    29    30    1
    67    29    28    1
    68    30    36   am
    69    41    42    1
    70    41    38   am
    71    43    42    1
    72    36    37    1
    73    37    38    1
    74    37    40    1
    75    38    39    2
    76    51    54    1
    77    51    50    1
    78    51    52    1
    79    54    55    1
    80    64    63    2
    81    61    52   am
    82    61    62    1
    83    65    66    1
    84    65    62    1
    85    68    66   ar
    86    68    70   ar
    87    52    53    2
    88    66    67   ar
    89    70    71   ar
    90    62    63    1
    91    56    55    1
    92    56    57    1
    93    67    69   ar
    94    71    72    1
    95    71    69   ar
    96    57    58    2
    97    60    58    1
    98    58    59    1
