@<TRIPOS>MOLECULE
tmp/2wy3C00.pdb
 83 77 0 0 0
SMALL
GASTEIGER

@<TRIPOS>ATOM
      1  N         15.6450   23.1590   92.5650 N.3     8  ASN8       -0.1240
      2  CA        15.0750   24.0150   91.5370 C.3     8  ASN8        0.1653
      3  C         16.1730   24.9680   91.0890 C.2     8  ASN8        0.2266
      4  O         16.6100   25.8130   91.8700 O.2     8  ASN8       -0.2867
      5  CB        13.8870   24.7670   92.1530 C.3     8  ASN8        0.1155
      6  CG        13.3140   25.8440   91.2500 C.2     8  ASN8        0.2627
      7  OD1       13.6430   25.9400   90.0660 O.2     8  ASN8       -0.2716
      8  ND2       12.4310   26.6630   91.8170 N.am    8  ASN8       -0.0877
      9  N         17.5890   27.6350   87.8360 N.3    10  MET10      -0.1245
     10  CA        17.1970   28.4220   86.6670 C.3    10  MET10       0.1570
     11  C         18.3830   29.2170   86.1370 C.2    10  MET10       0.2261
     12  O         19.1820   29.7520   86.9050 O.2    10  MET10      -0.2867
     13  CB        16.0470   29.3640   86.9970 C.3    10  MET10       0.0387
     14  CG        15.6620   30.2810   85.8470 C.3    10  MET10       0.0595
     15  SD        14.1860   31.2440   86.2240 S.3    10  MET10      -0.1393
     16  CE        12.9180   29.9850   86.0940 C.3    10  MET10       0.0692
     17  N         20.3710   30.6790   89.4090 N.3    23  LEU23      -0.1231
     18  CA        19.5320   30.7510   90.5940 C.3    23  LEU23       0.1693
     19  C         19.2750   29.3270   91.0760 C.2    23  LEU23       0.2592
     20  O         19.1190   28.4140   90.2660 O.2    23  LEU23      -0.2718
     21  CB        18.2030   31.4360   90.2600 C.3    23  LEU23       0.0284
     22  CG        18.2370   32.8680   89.7200 C.3    23  LEU23       0.0019
     23  CD1       16.8800   33.2530   89.1670 C.3    23  LEU23       0.0001
     24  CD2       18.6610   33.8360   90.8010 C.3    23  LEU23       0.0001
     25  N         19.2380   29.1220   92.3900 N.am   24  ALA24      -0.1966
     26  CA        18.9640   27.7820   92.9110 C.3    24  ALA24       0.1728
     27  C         18.3790   27.7770   94.3160 C.2    24  ALA24       0.2616
     28  O         18.6740   28.6460   95.1400 O.2    24  ALA24      -0.2715
     29  CB        20.2220   26.9150   92.8730 C.3    24  ALA24       0.0334
     30  N         17.5560   26.7690   94.5790 N.am   25  GLU25      -0.1977
     31  CA        17.0300   26.5300   95.9130 C.3    25  GLU25       0.1602
     32  C         16.7940   25.0290   96.0620 C.2    25  GLU25       0.2287
     33  O         16.6890   24.3050   95.0700 O.2    25  GLU25      -0.2864
     34  CB        15.7210   27.2920   96.1250 C.3    25  GLU25       0.0415
     35  CG        14.5940   26.8090   95.2330 C.3    25  GLU25       0.1163
     36  CD        13.2970   27.5770   95.4310 C.2    25  GLU25       0.3649
     37  OE1       13.2740   28.5430   96.2270 O.co2  25  GLU25      -0.2457
     38  OE2       12.2950   27.2070   94.7810 O.co2  25  GLU25      -0.2457
     39  N         20.7550   29.6870   97.4670 N.3    36  TYR36      -0.1241
     40  CA        22.0170   29.8800   96.7790 C.3    36  TYR36       0.1605
     41  C         22.2750   31.3630   96.6210 C.2    36  TYR36       0.2264
     42  O         21.4880   32.0880   96.0060 O.2    36  TYR36      -0.2867
     43  CB        22.0220   29.1610   95.4300 C.3    36  TYR36       0.0534
     44  CG        23.2730   29.4180   94.6250 C.ar   36  TYR36      -0.0201
     45  CD1       24.4870   28.8540   94.9940 C.ar   36  TYR36      -0.0009
     46  CD2       23.2380   30.2360   93.4990 C.ar   36  TYR36      -0.0009
     47  CE1       25.6400   29.1000   94.2530 C.ar   36  TYR36       0.0417
     48  CE2       24.3750   30.4880   92.7590 C.ar   36  TYR36       0.0417
     49  CZ        25.5720   29.9160   93.1410 C.ar   36  TYR36       0.1957
     50  OH        26.6990   30.1700   92.4010 O.3    36  TYR36      -0.2866
     51  N         14.6240   26.2900   83.2590 N.3    85  GLN85      -0.1245
     52  CA        14.5360   25.8590   84.6530 C.3    85  GLN85       0.1566
     53  C         14.5620   24.3480   84.7130 C.2    85  GLN85       0.2260
     54  O         13.8950   23.6770   83.9210 O.2    85  GLN85      -0.2867
     55  CB        13.2400   26.3790   85.2830 C.3    85  GLN85       0.0367
     56  CG        12.9450   25.8390   86.6740 C.3    85  GLN85       0.0905
     57  CD        11.6030   26.3150   87.2090 C.2    85  GLN85       0.2608
     58  OE1       10.6350   26.4580   86.4600 O.2    85  GLN85      -0.2717
     59  NE2       11.5410   26.5570   88.5090 N.am   85  GLN85      -0.0878
     60  N         13.9060   21.2140   87.3790 N.3    87  ILE87      -0.1245
     61  CA        13.4810   20.7110   88.6800 C.3    87  ILE87       0.1561
     62  C         13.9410   19.2640   88.7990 C.2    87  ILE87       0.2260
     63  O         13.5870   18.4350   87.9710 O.2    87  ILE87      -0.2867
     64  CB        11.9580   20.7400   88.8260 C.3    87  ILE87       0.0252
     65  CG1       11.4230   22.1610   88.6290 C.3    87  ILE87       0.0019
     66  CG2       11.5480   20.1780   90.1830 C.3    87  ILE87       0.0019
     67  CD1       11.8370   23.1170   89.7070 C.3    87  ILE87       0.0001
     68  N         11.7130   23.3250   81.9980 N.3   105  TYR105     -0.1241
     69  CA        10.7430   24.3330   81.6070 C.3   105  TYR105      0.1605
     70  C         11.4620   25.4570   80.8800 C.2   105  TYR105      0.2264
     71  O         12.4780   25.9730   81.3620 O.2   105  TYR105     -0.2867
     72  CB        10.0500   24.8990   82.8470 C.3   105  TYR105      0.0534
     73  CG         9.3670   23.8600   83.7110 C.ar  105  TYR105     -0.0201
     74  CD1       10.0990   23.0640   84.5840 C.ar  105  TYR105     -0.0009
     75  CD2        7.9870   23.6900   83.6670 C.ar  105  TYR105     -0.0009
     76  CE1        9.4800   22.1170   85.3820 C.ar  105  TYR105      0.0417
     77  CE2        7.3590   22.7420   84.4580 C.ar  105  TYR105      0.0417
     78  CZ         8.1100   21.9590   85.3130 C.ar  105  TYR105      0.1957
     79  OH         7.4930   21.0200   86.1060 O.3   105  TYR105     -0.2866
     80  N          8.8390   29.0040   81.4080 N.3   108  GLY108     -0.1225
     81  CA         7.7510   28.5780   82.2700 C.3   108  GLY108      0.1811
     82  C          6.9380   27.4020   81.7620 C.2   108  GLY108      0.2280
     83  O          6.0540   26.9090   82.4630 O.2   108  GLY108     -0.2866
@<TRIPOS>BOND
     1    70    71    2
     2    70    69    1
     3    80    81    1
     4    69    68    1
     5    69    72    1
     6    82    81    1
     7    82    83    2
     8    72    73    1
     9    51    52    1
    10    75    73   ar
    11    75    77   ar
    12    73    74   ar
    13    54    53    2
    14    77    78   ar
    15    74    76   ar
    16    52    53    1
    17    52    55    1
    18    55    56    1
    19    78    76   ar
    20    78    79    1
    21    14    15    1
    22    14    13    1
    23    16    15    1
    24    11    10    1
    25    11    12    2
    26    58    57    2
    27    10    13    1
    28    10     9    1
    29    56    57    1
    30    57    59   am
    31    60    61    1
    32    63    62    2
    33    65    64    1
    34    65    67    1
    35    61    62    1
    36    61    64    1
    37    64    66    1
    38    23    22    1
    39    17    18    1
    40    22    21    1
    41    22    24    1
    42     7     6    2
    43    21    18    1
    44    20    19    2
    45    18    19    1
    46    19    25   am
    47     3     2    1
    48     3     4    2
    49     6     8   am
    50     6     5    1
    51     2     5    1
    52     2     1    1
    53    25    26    1
    54    50    49    1
    55    48    49   ar
    56    48    46   ar
    57    29    26    1
    58    26    27    1
    59    49    47   ar
    60    46    44   ar
    61    47    45   ar
    62    27    30   am
    63    27    28    2
    64    30    31    1
    65    44    45   ar
    66    44    43    1
    67    38    36   ar
    68    33    32    2
    69    35    36    1
    70    35    34    1
    71    43    40    1
    72    36    37   ar
    73    31    32    1
    74    31    34    1
    75    42    41    2
    76    41    40    1
    77    40    39    1
