@<TRIPOS>MOLECULE
tmp/2wy4A00.pdb
 240 230 0 0 0
SMALL
GASTEIGER

@<TRIPOS>ATOM
      1  N         16.5030   -3.6910    6.1220 N.3    27  TYR27      -0.1241
      2  CA        16.5090   -5.0760    5.6890 C.3    27  TYR27       0.1605
      3  C         17.8300   -5.7760    5.9700 C.2    27  TYR27       0.2264
      4  O         17.8370   -6.9530    6.2520 O.2    27  TYR27      -0.2867
      5  CB        16.1510   -5.2090    4.1900 C.3    27  TYR27       0.0534
      6  CG        14.6680   -4.9430    3.9420 C.ar   27  TYR27      -0.0201
      7  CD1       13.7160   -5.7760    4.4760 C.ar   27  TYR27      -0.0009
      8  CD2       14.2350   -3.8620    3.1970 C.ar   27  TYR27      -0.0009
      9  CE1       12.3920   -5.5570    4.3090 C.ar   27  TYR27       0.0417
     10  CE2       12.8870   -3.6480    3.0110 C.ar   27  TYR27       0.0417
     11  CZ        11.9620   -4.4780    3.5900 C.ar   27  TYR27       0.1957
     12  OH        10.6150   -4.2280    3.4110 O.3    27  TYR27      -0.2866
     13  N         17.5290   -6.6300    9.7000 N.3    30  MET30      -0.1245
     14  CA        16.5540   -7.6440    9.9630 C.3    30  MET30       0.1570
     15  C         16.9530   -9.0080    9.4350 C.2    30  MET30       0.2261
     16  O         16.7960   -9.9990   10.1200 O.2    30  MET30      -0.2867
     17  CB        15.1680   -7.2750    9.4840 C.3    30  MET30       0.0387
     18  CG        14.1040   -8.2670    9.9170 C.3    30  MET30       0.0595
     19  SD        12.4190   -7.6750    9.6590 S.3    30  MET30      -0.1393
     20  CE        12.3790   -7.5520    7.8790 C.3    30  MET30       0.0692
     21  N         13.0420  -14.7490    9.0450 N.3    37  VAL37      -0.1245
     22  CA        11.9930  -14.0490    8.2850 C.3    37  VAL37       0.1561
     23  C         12.3640  -13.8630    6.8230 C.2    37  VAL37       0.2260
     24  O         11.4750  -13.6090    6.0060 O.2    37  VAL37      -0.2867
     25  CB        11.5720  -12.6690    8.9040 C.3    37  VAL37       0.0252
     26  CG1       11.2650  -12.8010   10.3740 C.3    37  VAL37       0.0019
     27  CG2       12.6270  -11.6160    8.6440 C.3    37  VAL37       0.0019
     28  N         10.2800  -15.1500    3.7230 N.3    40  MET40      -0.1230
     29  CA         8.9670  -14.5570    3.5270 C.3    40  MET40       0.1702
     30  C          9.0150  -13.5210    2.3870 C.2    40  MET40       0.2592
     31  O          8.0340  -13.3150    1.6540 O.2    40  MET40      -0.2718
     32  CB         8.5170  -13.8690    4.7990 C.3    40  MET40       0.0401
     33  CG         8.3260  -14.8010    5.9760 C.3    40  MET40       0.0596
     34  SD         8.0260  -13.9350    7.5540 S.3    40  MET40      -0.1393
     35  CE         6.3740  -13.4520    7.4350 C.3    40  MET40       0.0692
     36  N         10.1720  -12.8970    2.2200 N.am   41  PHE41      -0.1962
     37  CA        10.3710  -11.8400    1.2500 C.3    41  PHE41       0.1771
     38  C         10.9100  -12.3790   -0.0620 C.2    41  PHE41       0.2619
     39  O         11.5720  -13.4060   -0.0820 O.2    41  PHE41      -0.2715
     40  CB        11.3960  -10.8490    1.7980 C.3    41  PHE41       0.0574
     41  CG        10.9150  -10.0910    3.0040 C.ar   41  PHE41      -0.0200
     42  CD1       11.0000  -10.6230    4.2910 C.ar   41  PHE41      -0.0042
     43  CD2       10.4040   -8.8450    2.8510 C.ar   41  PHE41      -0.0042
     44  CE1       10.5320   -9.9170    5.3440 C.ar   41  PHE41      -0.0003
     45  CE2        9.9570   -8.1460    3.9230 C.ar   41  PHE41      -0.0003
     46  CZ        10.0310   -8.6930    5.1860 C.ar   41  PHE41      -0.0000
     47  N         10.6130  -11.6560   -1.1310 N.am   42  ASN42      -0.1972
     48  CA        11.1460  -11.9960   -2.4310 C.3    42  ASN42       0.1688
     49  C         12.4840  -11.2910   -2.6290 C.2    42  ASN42       0.2292
     50  O         12.5520  -10.0810   -2.7200 O.2    42  ASN42      -0.2864
     51  CB        10.1440  -11.6140   -3.5210 C.3    42  ASN42       0.1181
     52  CG         8.8870  -12.4410   -3.4380 C.2    42  ASN42       0.2629
     53  OD1        8.9450  -13.6770   -3.5870 O.2    42  ASN42      -0.2716
     54  ND2        7.7520  -11.7990   -3.1740 N.am   42  ASN42      -0.0877
     55  N         12.9210   -8.7130   -5.3360 N.3    45  LYS45      -0.1231
     56  CA        12.3360   -7.3930   -5.0190 C.3    45  LYS45       0.1693
     57  C         13.2750   -6.5780   -4.1120 C.2    45  LYS45       0.2591
     58  O         13.1490   -5.3640   -4.0380 O.2    45  LYS45      -0.2718
     59  CB        10.9270   -7.5600   -4.3920 C.3    45  LYS45       0.0285
     60  CG         9.8690   -6.4950   -4.7490 C.3    45  LYS45       0.0035
     61  CD         8.5860   -6.6170   -3.9230 C.3    45  LYS45       0.0206
     62  CE         7.7410   -5.3760   -4.0030 C.3    45  LYS45       0.1093
     63  NZ         6.6390   -5.1170   -3.0170 N.3    45  LYS45      -0.1314
     64  N         14.2170   -7.2630   -3.4620 N.am   46  GLN46      -0.1979
     65  CA        15.2030   -6.5660   -2.6530 C.3    46  GLN46       0.1601
     66  C         16.2900   -6.0540   -3.5930 C.2    46  GLN46       0.2287
     67  O         16.6980   -4.9040   -3.5360 O.2    46  GLN46      -0.2864
     68  CB        15.8310   -7.5270   -1.6420 C.3    46  GLN46       0.0394
     69  CG        14.9720   -7.9070   -0.4390 C.3    46  GLN46       0.0908
     70  CD        14.7240   -6.7600    0.5050 C.2    46  GLN46       0.2608
     71  OE1       15.6570   -6.0360    0.8690 O.2    46  GLN46      -0.2717
     72  NE2       13.4540   -6.5740    0.8850 N.am   46  GLN46      -0.0878
     73  N         11.2320   -3.3670   -3.1580 N.3    51  GLN51      -0.1245
     74  CA        10.6890   -3.4790   -1.8020 C.3    51  GLN51       0.1566
     75  C         11.2490   -2.4200   -0.8320 C.2    51  GLN51       0.2260
     76  O         10.4980   -1.8660   -0.0650 O.2    51  GLN51      -0.2867
     77  CB        10.8160   -4.9160   -1.2860 C.3    51  GLN51       0.0367
     78  CG        10.3320   -5.0940    0.1490 C.3    51  GLN51       0.0905
     79  CD         8.8560   -4.8390    0.2520 C.2    51  GLN51       0.2608
     80  OE1        8.0950   -4.9950   -0.7100 O.2    51  GLN51      -0.2717
     81  NE2        8.4200   -4.4660    1.4610 N.am   51  GLN51      -0.0878
     82  N          9.2110    0.4810   -1.5740 N.3    54  ALA54      -0.1231
     83  CA         7.8470    0.3230   -1.1400 C.3    54  ALA54       0.1694
     84  C          7.7170    0.5810    0.3700 C.2    54  ALA54       0.2591
     85  O          6.7710    1.2160    0.8360 O.2    54  ALA54      -0.2718
     86  CB         7.3310   -1.0610   -1.4590 C.3    54  ALA54       0.0304
     87  N          8.6530    0.0310    1.1640 N.am   55  LEU55      -0.1980
     88  CA         8.6120    0.2320    2.6000 C.3    55  LEU55       0.1596
     89  C          8.8200    1.6800    2.9310 C.2    55  LEU55       0.2287
     90  O          8.1210    2.2080    3.8140 O.2    55  LEU55      -0.2864
     91  CB         9.6550   -0.6440    3.2830 C.3    55  LEU55       0.0297
     92  CG         9.6620   -0.5190    4.8070 C.3    55  LEU55       0.0022
     93  CD1        8.2870   -0.8340    5.4210 C.3    55  LEU55       0.0001
     94  CD2       10.7790   -1.4060    5.3620 C.3    55  LEU55       0.0001
     95  N          5.6900    3.5010    2.3650 N.3    58  ALA58      -0.1231
     96  CA         4.6990    3.2280    3.4010 C.3    58  ALA58       0.1694
     97  C          5.0200    3.9830    4.7010 C.2    58  ALA58       0.2591
     98  O          4.0850    4.4040    5.4040 O.2    58  ALA58      -0.2718
     99  CB         4.6530    1.7690    3.6670 C.3    58  ALA58       0.0304
    100  N          6.3110    4.0810    5.0510 N.am   59  ILE59      -0.1980
    101  CA         6.6860    4.8470    6.2250 C.3    59  ILE59       0.1595
    102  C          6.3330    6.3070    5.9920 C.2    59  ILE59       0.2287
    103  O          5.8220    6.9660    6.8820 O.2    59  ILE59      -0.2864
    104  CB         8.1790    4.6070    6.5960 C.3    59  ILE59       0.0276
    105  CG1        8.3840    3.1440    6.9830 C.3    59  ILE59       0.0022
    106  CG2        8.5720    5.4980    7.7740 C.3    59  ILE59       0.0022
    107  CD1        9.8150    2.7170    7.1190 C.3    59  ILE59       0.0001
    108  N         -4.8520    2.5610    1.9580 N.3    75  PHE75      -0.1241
    109  CA        -3.5100    2.1140    1.6090 C.3    75  PHE75       0.1605
    110  C         -3.1750    0.8430    2.4050 C.2    75  PHE75       0.2264
    111  O         -2.7770   -0.1820    1.8750 O.2    75  PHE75      -0.2867
    112  CB        -2.4580    3.2000    1.9090 C.3    75  PHE75       0.0534
    113  CG        -1.0440    2.7350    1.7110 C.ar   75  PHE75      -0.0203
    114  CD1       -0.5520    2.5430    0.4580 C.ar   75  PHE75      -0.0042
    115  CD2       -0.2250    2.4570    2.7980 C.ar   75  PHE75      -0.0042
    116  CE1        0.7100    2.0850    0.2630 C.ar   75  PHE75      -0.0003
    117  CE2        1.0600    2.0220    2.5900 C.ar   75  PHE75      -0.0003
    118  CZ         1.5240    1.8200    1.3290 C.ar   75  PHE75      -0.0000
    119  N         -4.6170   -2.6190    1.6440 N.3    78  LYS78      -0.1231
    120  CA        -4.0160   -3.3660    0.5510 C.3    78  LYS78       0.1693
    121  C         -2.7310   -4.0380    0.9680 C.2    78  LYS78       0.2591
    122  O         -2.4760   -5.1860    0.5650 O.2    78  LYS78      -0.2718
    123  CB        -3.7430   -2.4690   -0.6420 C.3    78  LYS78       0.0285
    124  CG        -4.9390   -1.6780   -1.1010 C.3    78  LYS78       0.0035
    125  CD        -6.1910   -2.5340   -1.1660 C.3    78  LYS78       0.0206
    126  CE        -7.3980   -1.7290   -1.6010 C.3    78  LYS78       0.1093
    127  NZ        -7.8340   -0.6960   -0.5820 N.3    78  LYS78      -0.1314
    128  N         -1.9200   -3.3490    1.7710 N.am   79  VAL79      -0.1980
    129  CA        -0.6940   -3.9630    2.2540 C.3    79  VAL79       0.1595
    130  C         -1.0490   -5.1780    3.1340 C.2    79  VAL79       0.2287
    131  O         -0.4030   -6.2050    3.0550 O.2    79  VAL79      -0.2864
    132  CB         0.1520   -3.0050    3.0930 C.3    79  VAL79       0.0276
    133  CG1        1.3720   -3.7240    3.6150 C.3    79  VAL79       0.0022
    134  CG2        0.5590   -1.7720    2.2640 C.3    79  VAL79       0.0022
    135  N         -1.0140   -8.6150    1.5420 N.3    82  THR82      -0.1203
    136  CA         0.2930   -9.2420    1.3860 C.3    82  THR82       0.1994
    137  C          0.7590   -9.8470    2.6970 C.2    82  THR82       0.2617
    138  O          1.1670  -11.0090    2.7690 O.2    82  THR82      -0.2717
    139  CB         1.3020   -8.1860    0.9430 C.3    82  THR82       0.1784
    140  OG1        0.9670   -7.7800   -0.3840 O.3    82  THR82      -0.2211
    141  CG2        2.7190   -8.7430    0.8980 C.3    82  THR82       0.0376
    142  N          0.6520   -9.0610    3.7500 N.am   83  HIS83      -0.1975
    143  CA         1.0960   -9.5090    5.0620 C.3    83  HIS83       0.1656
    144  C          0.3510  -10.7640    5.5330 C.2    83  HIS83       0.2291
    145  O          0.9780  -11.7280    5.9670 O.2    83  HIS83      -0.2864
    146  CB         0.8800   -8.3820    6.0530 C.3    83  HIS83       0.0771
    147  CG         1.9180   -7.2990    5.9990 C.ar   83  HIS83       0.0820
    148  ND1        1.8030   -6.1250    6.7200 N.ar   83  HIS83      -0.2267
    149  CD2        3.0920   -7.2150    5.3300 C.ar   83  HIS83       0.1154
    150  CE1        2.8830   -5.3840    6.5220 C.ar   83  HIS83       0.1986
    151  NE2        3.6690   -6.0160    5.6640 N.ar   83  HIS83      -0.2212
    152  N          1.2850  -13.8750    3.6190 N.3    86  LEU86      -0.1245
    153  CA         2.6230  -14.3850    3.9120 C.3    86  LEU86       0.1561
    154  C          2.8420  -14.7970    5.3680 C.2    86  LEU86       0.2260
    155  O          3.9310  -15.2100    5.7400 O.2    86  LEU86      -0.2867
    156  CB         3.6630  -13.3450    3.4990 C.3    86  LEU86       0.0270
    157  CG         3.8230  -13.2810    1.9680 C.3    86  LEU86       0.0019
    158  CD1        4.6950  -12.1300    1.5380 C.3    86  LEU86       0.0001
    159  CD2        4.3680  -14.6200    1.4150 C.3    86  LEU86       0.0001
    160  N          2.4440  -12.9080    8.2050 N.3    88  VAL88      -0.1245
    161  CA         2.9060  -11.8930    9.1270 C.3    88  VAL88       0.1561
    162  C          1.9750  -11.9130   10.3340 C.2    88  VAL88       0.2260
    163  O          0.7580  -11.7550   10.2150 O.2    88  VAL88      -0.2867
    164  CB         2.8670  -10.5170    8.4750 C.3    88  VAL88       0.0252
    165  CG1        3.1750   -9.4530    9.4950 C.3    88  VAL88       0.0019
    166  CG2        3.8220  -10.4640    7.2850 C.3    88  VAL88       0.0019
    167  N          5.4650  -10.3980   14.9260 N.3    92  HIS92      -0.1226
    168  CA         6.6030   -9.9720   14.0880 C.3    92  HIS92       0.1752
    169  C          6.7880   -8.4710   14.1730 C.2    92  HIS92       0.2596
    170  O          7.8490   -7.9930   13.9160 O.2    92  HIS92      -0.2718
    171  CB         6.3810  -10.2930   12.6180 C.3    92  HIS92       0.0759
    172  CG         6.5040  -11.7420   12.2630 C.ar   92  HIS92       0.0818
    173  ND1        5.4530  -12.4580   11.7390 N.ar   92  HIS92      -0.2268
    174  CD2        7.5580  -12.5890   12.3120 C.ar   92  HIS92       0.1154
    175  CE1        5.8550  -13.6980   11.5060 C.ar   92  HIS92       0.1986
    176  NE2        7.1370  -13.7940   11.8180 N.ar   92  HIS92      -0.2212
    177  N          5.7480   -7.7360   14.5380 N.am   93  TYR93      -0.1976
    178  CA         5.8450   -6.2840   14.5600 C.3    93  TYR93       0.1639
    179  C          6.9240   -5.7440   15.5200 C.2    93  TYR93       0.2290
    180  O          7.6000   -4.7750   15.1530 O.2    93  TYR93      -0.2864
    181  CB         4.4720   -5.5880   14.7170 C.3    93  TYR93       0.0560
    182  CG         3.6740   -5.5870   13.4460 C.ar   93  TYR93      -0.0198
    183  CD1        2.9350   -6.6910   13.0750 C.ar   93  TYR93      -0.0009
    184  CD2        3.7060   -4.4980   12.5840 C.ar   93  TYR93      -0.0009
    185  CE1        2.2540   -6.7210   11.8910 C.ar   93  TYR93       0.0417
    186  CE2        3.0260   -4.5240   11.3990 C.ar   93  TYR93       0.0417
    187  CZ         2.2960   -5.6250   11.0630 C.ar   93  TYR93       0.1957
    188  OH         1.5910   -5.6370    9.8780 O.3    93  TYR93      -0.2866
    189  N          9.7460   -7.1060   16.0630 N.3    95  ILE95      -0.1231
    190  CA        11.0010   -7.3620   15.3690 C.3    95  ILE95       0.1692
    191  C         11.2660   -6.2320   14.3910 C.2    95  ILE95       0.2591
    192  O         12.3300   -5.6480   14.3400 O.2    95  ILE95      -0.2718
    193  CB        10.9510   -8.7220   14.6430 C.3    95  ILE95       0.0266
    194  CG1       10.9090   -9.8480   15.6720 C.3    95  ILE95       0.0019
    195  CG2       12.1280   -8.8690   13.7600 C.3    95  ILE95       0.0020
    196  CD1       10.6530  -11.2260   15.0630 C.3    95  ILE95       0.0001
    197  N         10.2670   -5.9400   13.5700 N.am   96  VAL96      -0.1980
    198  CA        10.3680   -4.8320   12.6300 C.3    96  VAL96       0.1595
    199  C         10.6710   -3.5230   13.3470 C.2    96  VAL96       0.2287
    200  O         11.5090   -2.7430   12.8990 O.2    96  VAL96      -0.2864
    201  CB         9.0980   -4.7500   11.7110 C.3    96  VAL96       0.0276
    202  CG1        9.0120   -3.4170   10.9980 C.3    96  VAL96       0.0022
    203  CG2        9.1290   -5.9110   10.7290 C.3    96  VAL96       0.0022
    204  N          6.0430    4.4650   15.8150 N.3   122  TYR122     -0.1241
    205  CA         6.0330    3.0860   15.3440 C.3   122  TYR122      0.1605
    206  C          5.0010    2.2450   16.0970 C.2   122  TYR122      0.2264
    207  O          4.2800    1.4530   15.5250 O.2   122  TYR122     -0.2867
    208  CB         7.4080    2.4050   15.4110 C.3   122  TYR122      0.0534
    209  CG         7.3010    0.9760   14.8910 C.ar  122  TYR122     -0.0201
    210  CD1        7.3020    0.7300   13.5130 C.ar  122  TYR122     -0.0009
    211  CD2        7.0580   -0.0770   15.7370 C.ar  122  TYR122     -0.0009
    212  CE1        7.1380   -0.5070   13.0210 C.ar  122  TYR122      0.0417
    213  CE2        6.9120   -1.3490   15.2480 C.ar  122  TYR122      0.0417
    214  CZ         6.9150   -1.5640   13.8820 C.ar  122  TYR122      0.1957
    215  OH         6.7410   -2.8430   13.3910 O.3   122  TYR122     -0.2866
    216  N          1.6680    3.0230   14.5230 N.3   125  ILE125     -0.1231
    217  CA         1.5730    2.5690   13.1380 C.3   125  ILE125      0.1692
    218  C          1.4080    1.0560   13.1340 C.2   125  ILE125      0.2591
    219  O          0.5390    0.5020   12.4760 O.2   125  ILE125     -0.2718
    220  CB         2.8430    2.9880   12.4100 C.3   125  ILE125      0.0266
    221  CG1        2.9140    4.4870   12.2710 C.3   125  ILE125      0.0019
    222  CG2        2.8750    2.3740   11.0250 C.3   125  ILE125      0.0020
    223  CD1        4.2850    4.9820   11.8960 C.3   125  ILE125      0.0001
    224  N          2.2080    0.3840   13.9460 N.am  126  ALA126     -0.1980
    225  CA         2.1200   -1.0480   14.0480 C.3   126  ALA126      0.1597
    226  C          0.7410   -1.4800   14.4940 C.2   126  ALA126      0.2287
    227  O          0.2060   -2.4330   13.9600 O.2   126  ALA126     -0.2864
    228  CB         3.1760   -1.5960   14.9770 C.3   126  ALA126      0.0319
    229  N         -1.7600   -1.3950   11.6030 N.3   129  TYR129     -0.1241
    230  CA        -1.6100   -2.5350   10.7020 C.3   129  TYR129      0.1605
    231  C         -2.0980   -3.8290   11.3600 C.2   129  TYR129      0.2264
    232  O         -2.8770   -4.6030   10.7700 O.2   129  TYR129     -0.2867
    233  CB        -0.1520   -2.7270   10.3010 C.3   129  TYR129      0.0534
    234  CG         0.3230   -1.9010    9.1270 C.ar  129  TYR129     -0.0201
    235  CD1        0.5430   -0.5530    9.2560 C.ar  129  TYR129     -0.0009
    236  CD2        0.5630   -2.5000    7.8860 C.ar  129  TYR129     -0.0009
    237  CE1        0.9840    0.2040    8.1970 C.ar  129  TYR129      0.0417
    238  CE2        0.9800   -1.7490    6.8250 C.ar  129  TYR129      0.0417
    239  CZ         1.1960   -0.4020    6.9580 C.ar  129  TYR129      0.1957
    240  OH         1.6000    0.2910    5.8390 O.3   129  TYR129     -0.2866
@<TRIPOS>BOND
     1    55    56    1
     2    56    59    1
     3    56    57    1
     4    60    59    1
     5    60    61    1
     6    57    58    2
     7    57    64   am
     8    62    61    1
     9    62    63    1
    10    66    67    2
    11    66    65    1
    12    53    52    2
    13    51    52    1
    14    51    48    1
    15    64    65    1
    16    52    54   am
    17    73    74    1
    18    50    49    2
    19    65    68    1
    20    49    48    1
    21    48    47    1
    22    74    77    1
    23    74    75    1
    24    68    69    1
    25   126   125    1
    26   126   127    1
    27    82    83    1
    28    86    83    1
    29    77    78    1
    30   125   124    1
    31    83    84    1
    32    47    38   am
    33   124   123    1
    34    75    76    2
    35    80    79    2
    36   123   120    1
    37    69    70    1
    38   140   139    1
    39    39    38    2
    40    38    37    1
    41    78    79    1
    42    79    81   am
    43   116   114   ar
    44   116   118   ar
    45    84    85    2
    46    84    87   am
    47   114   113   ar
    48    70    71    2
    49    70    72   am
    50   120   121    1
    51   120   119    1
    52   122   121    2
    53   141   139    1
    54   139   136    1
    55   121   128   am
    56    87    88    1
    57    37    40    1
    58    37    36    1
    59   118   117   ar
    60   136   135    1
    61   136   137    1
    62   159   157    1
    63   158   157    1
    64   109   112    1
    65   109   108    1
    66   109   110    1
    67    31    30    2
    68   113   112    1
    69   113   115   ar
    70   128   129    1
    71    40    41    1
    72   111   110    2
    73   157   156    1
    74    36    30   am
    75   129   132    1
    76   129   130    1
    77   134   132    1
    78    95    96    1
    79    30    29    1
    80   117   115   ar
    81    88    89    1
    82    88    91    1
    83   137   138    2
    84   137   142   am
    85    43    41   ar
    86    43    45   ar
    87    89    90    2
    88    41    42   ar
    89    10     8   ar
    90    10    11   ar
    91   131   130    2
    92   132   133    1
    93     8     6   ar
    94    91    92    1
    95    96    99    1
    96    96    97    1
    97    12    11    1
    98   156   153    1
    99    29    28    1
   100    29    32    1
   101    11     9   ar
   102   152   153    1
   103   142   143    1
   104   153   154    1
   105    45    46   ar
   106     6     5    1
   107     6     7   ar
   108     5     2    1
   109    42    44   ar
   110     9     7   ar
   111    97   100   am
   112    97    98    2
   113    32    33    1
   114    92    94    1
   115    92    93    1
   116   100   101    1
   117   143   144    1
   118   143   146    1
   119    46    44   ar
   120   149   151   ar
   121   149   147   ar
   122   154   155    2
   123   144   145    2
   124   151   150   ar
   125     2     3    1
   126     2     1    1
   127   240   239    1
   128     3     4    2
   129    33    34    1
   130   102   101    1
   131   102   103    2
   132   147   146    1
   133   147   148   ar
   134    24    23    2
   135   101   104    1
   136   150   148   ar
   137   104   105    1
   138   104   106    1
   139    23    22    1
   140   238   239   ar
   141   238   236   ar
   142   239   237   ar
   143   105   107    1
   144   166   164    1
   145    35    34    1
   146    20    19    1
   147   236   234   ar
   148   237   235   ar
   149   160   161    1
   150    22    25    1
   151    22    21    1
   152   164   161    1
   153   164   165    1
   154    27    25    1
   155    25    26    1
   156   161   162    1
   157   234   235   ar
   158   234   233    1
   159    15    14    1
   160    15    16    2
   161    17    18    1
   162    17    14    1
   163    19    18    1
   164    13    14    1
   165   188   187    1
   166   163   162    2
   167   233   230    1
   168   230   231    1
   169   230   229    1
   170   203   201    1
   171   232   231    2
   172   202   201    1
   173   222   220    1
   174   187   186   ar
   175   187   185   ar
   176   186   184   ar
   177   175   173   ar
   178   175   176   ar
   179   201   198    1
   180   173   172   ar
   181   176   174   ar
   182   185   183   ar
   183   223   221    1
   184   172   174   ar
   185   172   171    1
   186   221   220    1
   187   220   217    1
   188   219   218    2
   189   184   182   ar
   190   171   168    1
   191   198   199    1
   192   198   197    1
   193   200   199    2
   194   212   210   ar
   195   212   214   ar
   196   183   182   ar
   197   218   217    1
   198   218   224   am
   199   217   216    1
   200   215   214    1
   201   182   181    1
   202   210   209   ar
   203   197   191   am
   204   195   193    1
   205   214   213   ar
   206   170   169    2
   207   224   225    1
   208   227   226    2
   209   225   226    1
   210   225   228    1
   211   168   169    1
   212   168   167    1
   213   169   177   am
   214   192   191    2
   215   191   190    1
   216   177   178    1
   217   178   181    1
   218   178   179    1
   219   193   190    1
   220   193   194    1
   221   209   208    1
   222   209   211   ar
   223   196   194    1
   224   180   179    2
   225   213   211   ar
   226   205   208    1
   227   205   204    1
   228   205   206    1
   229   190   189    1
   230   207   206    2
