@<TRIPOS>MOLECULE
tmp/2wybB00.pdb
 166 165 0 0 0
SMALL
GASTEIGER

@<TRIPOS>ATOM
      1  N         35.9610   59.9740   48.7190 N.3     1  SER1       -0.1217
      2  CA        35.4930   60.5370   50.0170 C.3     1  SER1        0.1889
      3  C         36.1600   61.8660   50.3110 C.2     1  SER1        0.2288
      4  O         37.2930   62.0940   49.9000 O.2     1  SER1       -0.2866
      5  CB        35.8710   59.5830   51.1370 C.3     1  SER1        0.2089
      6  OG        35.0940   58.4010   51.0030 O.3     1  SER1       -0.2183
      7  N         31.8900   60.5730   53.0500 N.3    22  PRO22      -0.2102
      8  CA        32.3750   59.3660   52.3550 C.3    22  PRO22       0.1504
      9  C         31.6580   59.1080   51.0220 C.2    22  PRO22       0.2576
     10  O         30.4430   59.3490   50.9040 O.2    22  PRO22      -0.2718
     11  CB        32.0540   58.2400   53.3440 C.3    22  PRO22       0.0282
     12  CG        30.9520   58.7910   54.2100 C.3    22  PRO22       0.0208
     13  CD        31.3140   60.2380   54.3690 C.3    22  PRO22       0.0893
     14  N         32.4180   58.6340   50.0390 N.am   23  HIS23      -0.1962
     15  CA        31.9000   58.2530   48.7300 C.3    23  HIS23       0.1787
     16  C         31.9880   56.7320   48.5840 C.2    23  HIS23       0.2620
     17  O         33.0800   56.1670   48.4490 O.2    23  HIS23      -0.2715
     18  CB        32.6770   58.9370   47.5920 C.3    23  HIS23       0.0785
     19  CG        32.7610   60.4310   47.7080 C.ar   23  HIS23       0.0821
     20  ND1       33.8680   61.1460   47.2980 N.ar   23  HIS23      -0.2267
     21  CD2       31.8800   61.3450   48.1870 C.ar   23  HIS23       0.1154
     22  CE1       33.6670   62.4350   47.5180 C.ar   23  HIS23       0.1986
     23  NE2       32.4680   62.5840   48.0560 N.ar   23  HIS23      -0.2212
     24  N         30.8330   56.0710   48.5980 N.am   24  PHE24      -0.1974
     25  CA        30.7840   54.6110   48.6420 C.3    24  PHE24       0.1639
     26  C         29.5910   54.0810   47.8340 C.2    24  PHE24       0.2290
     27  O         28.7210   54.8690   47.4550 O.2    24  PHE24      -0.2864
     28  CB        30.7600   54.1480   50.1130 C.3    24  PHE24       0.0560
     29  CG        31.9580   53.3100   50.5140 C.ar   24  PHE24      -0.0200
     30  CD1       33.1880   53.4490   49.8630 C.ar   24  PHE24      -0.0042
     31  CD2       31.8440   52.3570   51.5210 C.ar   24  PHE24      -0.0042
     32  CE1       34.2910   52.6500   50.2230 C.ar   24  PHE24      -0.0003
     33  CE2       32.9370   51.5530   51.8930 C.ar   24  PHE24      -0.0003
     34  CZ        34.1580   51.6960   51.2430 C.ar   24  PHE24      -0.0000
     35  N         26.1690   51.8650   53.3520 N.3    32  PHE32      -0.1241
     36  CA        26.0650   52.4540   54.7070 C.3    32  PHE32       0.1605
     37  C         24.6620   52.3740   55.3070 C.2    32  PHE32       0.2264
     38  O         23.6420   52.4350   54.5880 O.2    32  PHE32      -0.2867
     39  CB        26.5330   53.9180   54.7340 C.3    32  PHE32       0.0534
     40  CG        28.0310   54.0860   54.8910 C.ar   32  PHE32      -0.0203
     41  CD1       28.6750   53.7420   56.0940 C.ar   32  PHE32      -0.0042
     42  CD2       28.8020   54.6010   53.8420 C.ar   32  PHE32      -0.0042
     43  CE1       30.0650   53.9040   56.2400 C.ar   32  PHE32      -0.0003
     44  CE2       30.2020   54.7690   53.9830 C.ar   32  PHE32      -0.0003
     45  CZ        30.8250   54.4280   55.1780 C.ar   32  PHE32      -0.0000
     46  N         28.8060   49.5750   57.8440 N.3    50  LEU50      -0.1245
     47  CA        28.6730   48.7000   56.6860 C.3    50  LEU50       0.1561
     48  C         27.8920   47.4530   57.1050 C.2    50  LEU50       0.2260
     49  O         27.8250   47.1570   58.2980 O.2    50  LEU50      -0.2867
     50  CB        30.0520   48.3400   56.1300 C.3    50  LEU50       0.0270
     51  CG        30.9600   49.5180   55.7460 C.3    50  LEU50       0.0019
     52  CD1       32.2950   48.9990   55.2440 C.3    50  LEU50       0.0001
     53  CD2       30.2830   50.4110   54.6930 C.3    50  LEU50       0.0001
     54  N         28.2210   44.4990   60.3970 N.3    53  LEU53      -0.1245
     55  CA        29.1320   44.9380   61.4590 C.3    53  LEU53       0.1561
     56  C         28.3920   45.5860   62.6460 C.2    53  LEU53       0.2260
     57  O         27.7050   46.5930   62.4710 O.2    53  LEU53      -0.2867
     58  CB        30.2080   45.8950   60.9080 C.3    53  LEU53       0.0270
     59  CG        30.9570   45.5490   59.6080 C.3    53  LEU53       0.0019
     60  CD1       31.9900   46.6390   59.2690 C.3    53  LEU53       0.0001
     61  CD2       31.6160   44.1840   59.6420 C.3    53  LEU53       0.0001
     62  N         30.9600   52.6740   62.1450 N.3    57  ASN57      -0.1225
     63  CA        32.2000   52.9280   61.3830 C.3    57  ASN57       0.1785
     64  C         32.5920   54.4060   61.2460 C.2    57  ASN57       0.2597
     65  O         33.7590   54.7400   61.3920 O.2    57  ASN57      -0.2718
     66  CB        32.2010   52.2450   60.0040 C.3    57  ASN57       0.1169
     67  CG        32.2090   50.7310   60.0990 C.2    57  ASN57       0.2627
     68  OD1       31.3270   50.0710   59.5500 O.2    57  ASN57      -0.2716
     69  ND2       33.2080   50.1670   60.7980 N.am   57  ASN57      -0.0877
     70  N         31.6150   55.2650   60.9570 N.am   58  ILE58      -0.1980
     71  CA        31.7890   56.7250   60.9120 C.3    58  ILE58       0.1595
     72  C         30.7080   57.3160   61.8240 C.2    58  ILE58       0.2287
     73  O         29.5290   57.0120   61.6560 O.2    58  ILE58      -0.2864
     74  CB        31.6180   57.2750   59.4430 C.3    58  ILE58       0.0276
     75  CG1       32.7670   56.7860   58.5290 C.3    58  ILE58       0.0022
     76  CG2       31.4570   58.8130   59.4320 C.3    58  ILE58       0.0022
     77  CD1       32.6260   57.1490   57.0030 C.3    58  ILE58       0.0001
     78  N         36.3580   58.6690   57.9270 N.3    68  HIS68      -0.1226
     79  CA        37.4350   57.9840   57.2210 C.3    68  HIS68       0.1752
     80  C         37.4020   58.2990   55.7330 C.2    68  HIS68       0.2597
     81  O         36.3520   58.6270   55.1780 O.2    68  HIS68      -0.2718
     82  CB        37.3170   56.4610   57.3950 C.3    68  HIS68       0.0759
     83  CG        37.3430   56.0060   58.8200 C.ar   68  HIS68       0.0818
     84  ND1       38.4890   56.0240   59.5900 N.ar   68  HIS68      -0.2268
     85  CD2       36.3630   55.5080   59.6120 C.ar   68  HIS68       0.1154
     86  CE1       38.2080   55.5680   60.7970 C.ar   68  HIS68       0.1986
     87  NE2       36.9260   55.2480   60.8360 N.ar   68  HIS68      -0.2212
     88  N         38.5610   58.1600   55.0960 N.am   69  THR69      -0.1939
     89  CA        38.7010   58.2370   53.6520 C.3    69  THR69       0.2028
     90  C         39.7000   57.1560   53.2390 C.2    69  THR69       0.2642
     91  O         40.6970   56.9290   53.9510 O.2    69  THR69      -0.2714
     92  CB        39.2790   59.6010   53.2100 C.3    69  THR69       0.1808
     93  OG1       40.5720   59.7900   53.8040 O.3    69  THR69      -0.2208
     94  CG2       38.3600   60.7780   53.6070 C.3    69  THR69       0.0379
     95  N         39.4490   56.4960   52.0990 N.am   70  VAL70      -0.1977
     96  CA        40.4090   55.5380   51.5430 C.3    70  VAL70       0.1596
     97  C         41.7580   56.2330   51.2970 C.2    70  VAL70       0.2287
     98  O         41.8130   57.2870   50.6680 O.2    70  VAL70      -0.2864
     99  CB        39.8740   54.8390   50.2500 C.3    70  VAL70       0.0276
    100  CG1       40.9830   54.0230   49.5500 C.3    70  VAL70       0.0022
    101  CG2       38.6860   53.9080   50.5890 C.3    70  VAL70       0.0022
    102  N         40.4890   44.1650   63.5930 N.3   158  VAL158     -0.1231
    103  CA        39.6480   45.1380   62.9030 C.3   158  VAL158      0.1692
    104  C         38.3440   45.5030   63.6360 C.2   158  VAL158      0.2591
    105  O         38.0080   46.6930   63.7350 O.2   158  VAL158     -0.2718
    106  CB        39.3510   44.6960   61.4220 C.3   158  VAL158      0.0266
    107  CG1       38.6550   43.3240   61.3610 C.3   158  VAL158      0.0020
    108  CG2       38.5240   45.7640   60.6890 C.3   158  VAL158      0.0020
    109  N         37.6140   44.5040   64.1360 N.am  159  LEU159     -0.1980
    110  CA        36.3200   44.7650   64.8180 C.3   159  LEU159      0.1596
    111  C         36.5320   45.3960   66.1890 C.2   159  LEU159      0.2287
    112  O         35.8140   46.3350   66.5680 O.2   159  LEU159     -0.2864
    113  CB        35.4610   43.4870   64.9490 C.3   159  LEU159      0.0297
    114  CG        34.9530   42.8330   63.6520 C.3   159  LEU159      0.0022
    115  CD1       34.3110   41.4700   63.9550 C.3   159  LEU159      0.0001
    116  CD2       33.9760   43.7050   62.8930 C.3   159  LEU159      0.0001
    117  N         37.2270   49.2150   65.8270 N.3   162  TRP162     -0.1241
    118  CA        36.0790   50.1390   65.7270 C.3   162  TRP162      0.1605
    119  C         35.2540   50.2080   67.0000 C.2   162  TRP162      0.2264
    120  O         34.7310   51.2700   67.3410 O.2   162  TRP162     -0.2867
    121  CB        35.2050   49.9010   64.4860 C.3   162  TRP162      0.0550
    122  CG        35.6360   50.8140   63.3620 C.ar  162  TRP162      0.0003
    123  CD1       35.3180   52.1370   63.2160 C.ar  162  TRP162      0.0946
    124  CD2       36.5130   50.4940   62.2780 C.ar  162  TRP162      0.0152
    125  NE1       35.9220   52.6510   62.0970 N.ar  162  TRP162     -0.2442
    126  CE2       36.6610   51.6690   61.5000 C.ar  162  TRP162      0.0810
    127  CE3       37.1760   49.3260   61.8740 C.ar  162  TRP162      0.0012
    128  CZ2       37.4520   51.7130   60.3360 C.ar  162  TRP162      0.0191
    129  CZ3       37.9610   49.3690   60.7160 C.ar  162  TRP162      0.0001
    130  CH2       38.0950   50.5610   59.9630 C.ar  162  TRP162      0.0015
    131  N         42.1850   48.7990   58.5240 N.3   185  PRO185     -0.2102
    132  CA        42.6890   48.1120   57.3220 C.3   185  PRO185      0.1504
    133  C         43.2300   49.0160   56.2120 C.2   185  PRO185      0.2576
    134  O         44.3610   48.8080   55.7700 O.2   185  PRO185     -0.2718
    135  CB        41.4690   47.3330   56.8080 C.3   185  PRO185      0.0282
    136  CG        40.4900   47.3280   57.9550 C.3   185  PRO185      0.0208
    137  CD        40.7420   48.5790   58.7120 C.3   185  PRO185      0.0893
    138  N         42.4370   49.9880   55.7520 N.am  186  TRP186     -0.1963
    139  CA        42.7910   50.7110   54.5250 C.3   186  TRP186      0.1771
    140  C         42.2120   52.1200   54.4050 C.2   186  TRP186      0.2619
    141  O         41.9750   52.6040   53.2930 O.2   186  TRP186     -0.2715
    142  CB        42.4580   49.8790   53.2700 C.3   186  TRP186      0.0590
    143  CG        41.1840   49.0300   53.3680 C.ar  186  TRP186      0.0006
    144  CD1       41.1220   47.6810   53.5920 C.ar  186  TRP186      0.0946
    145  CD2       39.8230   49.4690   53.2050 C.ar  186  TRP186      0.0152
    146  NE1       39.8100   47.2530   53.6070 N.ar  186  TRP186     -0.2442
    147  CE2       38.9910   48.3250   53.3690 C.ar  186  TRP186      0.0810
    148  CE3       39.2210   50.7130   52.9450 C.ar  186  TRP186      0.0012
    149  CZ2       37.5940   48.3890   53.2790 C.ar  186  TRP186      0.0191
    150  CZ3       37.8310   50.7820   52.8620 C.ar  186  TRP186      0.0001
    151  CH2       37.0280   49.6210   53.0260 C.ar  186  TRP186      0.0015
    152  N         42.0160   52.7810   55.5460 N.am  187  VAL187     -0.1977
    153  CA        41.5470   54.1610   55.5460 C.3   187  VAL187      0.1596
    154  C         42.3440   55.1080   56.4370 C.2   187  VAL187      0.2287
    155  O         42.9390   54.6950   57.4440 O.2   187  VAL187     -0.2864
    156  CB        40.0440   54.2890   55.9420 C.3   187  VAL187      0.0276
    157  CG1       39.1430   53.7760   54.8240 C.3   187  VAL187      0.0022
    158  CG2       39.7570   53.6090   57.2980 C.3   187  VAL187      0.0022
    159  N         41.2500   61.6310   49.4300 N.3   269  ASN269     -0.1240
    160  CA        41.8470   60.4300   48.8220 C.3   269  ASN269      0.1653
    161  C         43.2320   60.6120   48.2120 C.2   269  ASN269      0.2266
    162  O         43.7430   59.6870   47.5840 O.2   269  ASN269     -0.2867
    163  CB        40.8950   59.7420   47.8130 C.3   269  ASN269      0.1155
    164  CG        39.5410   59.4040   48.4200 C.2   269  ASN269      0.2627
    165  OD1       38.5010   59.8380   47.9180 O.2   269  ASN269     -0.2716
    166  ND2       39.5470   58.6260   49.5050 N.am  269  ASN269     -0.0877
@<TRIPOS>BOND
     1    20    22   ar
     2    20    19   ar
     3    27    26    2
     4    22    23   ar
     5   162   161    2
     6    18    19    1
     7    18    15    1
     8    19    21   ar
     9   163   164    1
    10   163   160    1
    11    26    25    1
    12   165   164    2
    13    23    21   ar
    14   161   160    1
    15   164   166   am
    16    17    16    2
    17    16    24   am
    18    16    15    1
    19    24    25    1
    20    25    28    1
    21     1     2    1
    22    15    14    1
    23   160   159    1
    24   100    99    1
    25    30    32   ar
    26    30    29   ar
    27     4     3    2
    28     2     3    1
    29     2     5    1
    30    14     9   am
    31    28    29    1
    32    32    34   ar
    33    99   101    1
    34    99    96    1
    35    29    31   ar
    36    98    97    2
    37    10     9    2
    38     6     5    1
    39     9     8    1
    40    34    33   ar
    41    97    96    1
    42    31    33   ar
    43    96    95    1
    44    95    90   am
    45     8     7    1
    46     8    11    1
    47   150   148   ar
    48   150   151   ar
    49   148   145   ar
    50   151   149   ar
    51     7    13    1
    52   145   143   ar
    53   145   147   ar
    54    92    94    1
    55    92    89    1
    56    92    93    1
    57    90    89    1
    58    90    91    2
    59   142   143    1
    60   142   139    1
    61   149   147   ar
    62   141   140    2
    63    11    12    1
    64    35    36    1
    65   143   144   ar
    66   147   146   ar
    67   144   146   ar
    68    89    88    1
    69    42    44   ar
    70    42    40   ar
    71    44    45   ar
    72    12    13    1
    73   140   139    1
    74   140   152   am
    75   139   138    1
    76    38    37    2
    77    53    51    1
    78    36    39    1
    79    36    37    1
    80    39    40    1
    81   157   156    1
    82    40    41   ar
    83    88    80   am
    84    81    80    2
    85    45    43   ar
    86    52    51    1
    87   153   152    1
    88   153   156    1
    89   153   154    1
    90    80    79    1
    91    51    50    1
    92   138   133   am
    93   134   133    2
    94   156   158    1
    95    41    43   ar
    96    50    47    1
    97   133   132    1
    98   154   155    2
    99    47    48    1
   100    47    46    1
   101   135   132    1
   102   135   136    1
   103    77    75    1
   104    48    49    2
   105    79    82    1
   106    79    78    1
   107   132   131    1
   108    82    83    1
   109   136   137    1
   110   131   137    1
   111    75    74    1
   112    83    84   ar
   113    83    85   ar
   114    60    59    1
   115    76    74    1
   116    74    71    1
   117    68    67    2
   118    84    86   ar
   119    59    61    1
   120    59    58    1
   121    85    87   ar
   122   130   128   ar
   123   130   129   ar
   124    66    67    1
   125    66    63    1
   126    67    69   am
   127   128   126   ar
   128    54    55    1
   129   108   106    1
   130   129   127   ar
   131    86    87   ar
   132    58    55    1
   133    71    70    1
   134    71    72    1
   135    70    64   am
   136    64    63    1
   137    64    65    2
   138   107   106    1
   139    63    62    1
   140   106   103    1
   141    55    56    1
   142   126   125   ar
   143   126   124   ar
   144    73    72    2
   145   127   124   ar
   146   125   123   ar
   147   124   122   ar
   148    57    56    2
   149   116   114    1
   150   103   102    1
   151   103   104    1
   152   123   122   ar
   153   122   121    1
   154   104   105    2
   155   104   109   am
   156   114   115    1
   157   114   113    1
   158   109   110    1
   159   121   118    1
   160   110   113    1
   161   110   111    1
   162   118   117    1
   163   118   119    1
   164   111   112    2
   165   119   120    2
