@<TRIPOS>MOLECULE
tmp/2wycB00.pdb
 151 150 0 0 0
SMALL
GASTEIGER

@<TRIPOS>ATOM
      1  N         36.0570   59.7070   48.6640 N.3     1  SER1       -0.1217
      2  CA        35.5930   60.2130   49.9950 C.3     1  SER1        0.1889
      3  C         36.2570   61.5570   50.3220 C.2     1  SER1        0.2288
      4  O         37.4080   61.7850   49.9290 O.2     1  SER1       -0.2866
      5  CB        35.9300   59.2000   51.0880 C.3     1  SER1        0.2089
      6  OG        35.1250   58.0390   50.9620 O.3     1  SER1       -0.2183
      7  N         31.9460   60.3800   53.0640 N.3    22  PRO22      -0.2102
      8  CA        32.4650   59.1700   52.4120 C.3    22  PRO22       0.1504
      9  C         31.7810   58.9270   51.0720 C.2    22  PRO22       0.2576
     10  O         30.5830   59.2130   50.9230 O.2    22  PRO22      -0.2718
     11  CB        32.0940   58.0500   53.3990 C.3    22  PRO22       0.0282
     12  CG        30.9580   58.6040   54.2000 C.3    22  PRO22       0.0208
     13  CD        31.3230   60.0530   54.3630 C.3    22  PRO22       0.0893
     14  N         32.5480   58.4320   50.1080 N.am   23  HIS23      -0.1962
     15  CA        32.0200   58.0930   48.7950 C.3    23  HIS23       0.1787
     16  C         32.0880   56.5860   48.6400 C.2    23  HIS23       0.2620
     17  O         33.1670   56.0150   48.5280 O.2    23  HIS23      -0.2715
     18  CB        32.8130   58.7930   47.6860 C.3    23  HIS23       0.0785
     19  CG        32.8060   60.2900   47.7850 C.ar   23  HIS23       0.0821
     20  ND1       33.8180   61.0740   47.2690 N.ar   23  HIS23      -0.2267
     21  CD2       31.9150   61.1450   48.3470 C.ar   23  HIS23       0.1154
     22  CE1       33.5520   62.3470   47.5100 C.ar   23  HIS23       0.1986
     23  NE2       32.4000   62.4170   48.1570 N.ar   23  HIS23      -0.2212
     24  N         30.9240   55.9390   48.6420 N.am   24  PHE24      -0.1974
     25  CA        30.8520   54.4780   48.6600 C.3    24  PHE24       0.1639
     26  C         29.6490   53.9810   47.8400 C.2    24  PHE24       0.2290
     27  O         28.8000   54.7850   47.4480 O.2    24  PHE24      -0.2864
     28  CB        30.7980   53.9850   50.1220 C.3    24  PHE24       0.0560
     29  CG        31.9920   53.1420   50.5340 C.ar   24  PHE24      -0.0200
     30  CD1       33.1950   53.2060   49.8300 C.ar   24  PHE24      -0.0042
     31  CD2       31.8950   52.2640   51.6090 C.ar   24  PHE24      -0.0042
     32  CE1       34.2970   52.4100   50.1980 C.ar   24  PHE24      -0.0003
     33  CE2       32.9860   51.4780   52.0010 C.ar   24  PHE24      -0.0003
     34  CZ        34.1910   51.5490   51.2920 C.ar   24  PHE24      -0.0000
     35  N         26.2300   51.7660   53.3730 N.3    32  PHE32      -0.1241
     36  CA        26.1470   52.3140   54.7400 C.3    32  PHE32       0.1605
     37  C         24.7430   52.2400   55.3270 C.2    32  PHE32       0.2264
     38  O         23.7500   52.2980   54.6010 O.2    32  PHE32      -0.2867
     39  CB        26.6170   53.7620   54.8000 C.3    32  PHE32       0.0534
     40  CG        28.1020   53.9070   54.9400 C.ar   32  PHE32      -0.0203
     41  CD1       28.7460   53.5050   56.1200 C.ar   32  PHE32      -0.0042
     42  CD2       28.8570   54.4710   53.9130 C.ar   32  PHE32      -0.0042
     43  CE1       30.1260   53.6490   56.2600 C.ar   32  PHE32      -0.0003
     44  CE2       30.2500   54.6160   54.0440 C.ar   32  PHE32      -0.0003
     45  CZ        30.8780   54.2040   55.2160 C.ar   32  PHE32      -0.0000
     46  N         28.8600   49.4510   57.8890 N.3    50  LEU50      -0.1245
     47  CA        28.7240   48.5690   56.7360 C.3    50  LEU50       0.1561
     48  C         27.9080   47.3380   57.1180 C.2    50  LEU50       0.2260
     49  O         27.8770   46.9760   58.2920 O.2    50  LEU50      -0.2867
     50  CB        30.1110   48.1940   56.1890 C.3    50  LEU50       0.0270
     51  CG        30.9620   49.3910   55.7000 C.3    50  LEU50       0.0019
     52  CD1       32.2610   48.8900   55.0740 C.3    50  LEU50       0.0001
     53  CD2       30.2150   50.2440   54.6830 C.3    50  LEU50       0.0001
     54  N         28.2260   44.3830   60.3180 N.3    53  LEU53      -0.1245
     55  CA        29.1610   44.8010   61.3820 C.3    53  LEU53       0.1561
     56  C         28.4430   45.4040   62.5900 C.2    53  LEU53       0.2260
     57  O         27.7210   46.3940   62.4570 O.2    53  LEU53      -0.2867
     58  CB        30.1870   45.8180   60.8490 C.3    53  LEU53       0.0270
     59  CG        30.9310   45.4510   59.5560 C.3    53  LEU53       0.0019
     60  CD1       31.9920   46.5200   59.2090 C.3    53  LEU53       0.0001
     61  CD2       31.5540   44.0530   59.6520 C.3    53  LEU53       0.0001
     62  N         31.0220   52.5310   62.1060 N.3    57  ASN57      -0.1225
     63  CA        32.2410   52.7650   61.3220 C.3    57  ASN57       0.1785
     64  C         32.6330   54.2250   61.1860 C.2    57  ASN57       0.2597
     65  O         33.8160   54.5600   61.2840 O.2    57  ASN57      -0.2718
     66  CB        32.1400   52.1280   59.9330 C.3    57  ASN57       0.1169
     67  CG        32.1850   50.6130   59.9910 C.2    57  ASN57       0.2627
     68  OD1       31.3120   49.9500   59.4430 O.2    57  ASN57      -0.2716
     69  ND2       33.1990   50.0520   60.6860 N.am   57  ASN57      -0.0877
     70  N         31.6410   55.0770   60.9410 N.am   58  ILE58      -0.1980
     71  CA        31.8290   56.5320   60.8780 C.3    58  ILE58       0.1595
     72  C         30.7790   57.1320   61.8170 C.2    58  ILE58       0.2287
     73  O         29.6070   56.8000   61.7150 O.2    58  ILE58      -0.2864
     74  CB        31.6380   57.0600   59.4360 C.3    58  ILE58       0.0276
     75  CG1       32.8020   56.5820   58.5340 C.3    58  ILE58       0.0022
     76  CG2       31.5300   58.5960   59.4250 C.3    58  ILE58       0.0022
     77  CD1       32.6220   56.9010   57.0360 C.3    58  ILE58       0.0001
     78  N         36.3730   58.4570   57.9060 N.3    68  HIS68      -0.1241
     79  CA        37.4410   57.7660   57.1850 C.3    68  HIS68       0.1621
     80  C         37.4260   58.1060   55.7170 C.2    68  HIS68       0.2264
     81  O         36.3860   58.4750   55.1630 O.2    68  HIS68      -0.2867
     82  CB        37.2990   56.2510   57.3300 C.3    68  HIS68       0.0745
     83  CG        37.3400   55.7890   58.7470 C.ar   68  HIS68       0.0817
     84  ND1       38.4890   55.8330   59.5080 N.ar   68  HIS68      -0.2268
     85  CD2       36.3710   55.2880   59.5470 C.ar   68  HIS68       0.1154
     86  CE1       38.2220   55.3860   60.7230 C.ar   68  HIS68       0.1986
     87  NE2       36.9480   55.0370   60.7670 N.ar   68  HIS68      -0.2212
     88  N         39.4630   56.4270   51.9930 N.3    70  VAL70      -0.1245
     89  CA        40.4020   55.4300   51.4610 C.3    70  VAL70       0.1561
     90  C         41.7690   56.0990   51.2730 C.2    70  VAL70       0.2260
     91  O         41.8610   57.2000   50.7080 O.2    70  VAL70      -0.2867
     92  CB        39.8800   54.7760   50.1500 C.3    70  VAL70       0.0252
     93  CG1       40.9580   53.8800   49.4890 C.3    70  VAL70       0.0019
     94  CG2       38.6230   53.9170   50.4480 C.3    70  VAL70       0.0019
     95  N         40.4050   44.0360   63.4660 N.3   158  VAL158     -0.1231
     96  CA        39.5680   45.0420   62.7990 C.3   158  VAL158      0.1692
     97  C         38.2770   45.4200   63.5500 C.2   158  VAL158      0.2591
     98  O         37.9740   46.6050   63.7100 O.2   158  VAL158     -0.2718
     99  CB        39.2510   44.6360   61.3210 C.3   158  VAL158      0.0266
    100  CG1       38.5210   43.2640   61.2290 C.3   158  VAL158      0.0020
    101  CG2       38.4460   45.7260   60.6180 C.3   158  VAL158      0.0020
    102  N         37.5330   44.4150   64.0080 N.am  159  LEU159     -0.1980
    103  CA        36.2910   44.6660   64.7650 C.3   159  LEU159      0.1596
    104  C         36.5820   45.2700   66.1400 C.2   159  LEU159      0.2287
    105  O         35.9430   46.2550   66.5290 O.2   159  LEU159     -0.2864
    106  CB        35.4640   43.3810   64.9060 C.3   159  LEU159      0.0297
    107  CG        35.0530   42.7330   63.5670 C.3   159  LEU159      0.0022
    108  CD1       34.3210   41.4470   63.8180 C.3   159  LEU159      0.0001
    109  CD2       34.1790   43.6630   62.7510 C.3   159  LEU159      0.0001
    110  N         37.3050   49.0940   65.6480 N.3   162  TRP162     -0.1241
    111  CA        36.1770   50.0310   65.5540 C.3   162  TRP162      0.1605
    112  C         35.3540   50.1070   66.8320 C.2   162  TRP162      0.2264
    113  O         34.8530   51.1730   67.1800 O.2   162  TRP162     -0.2867
    114  CB        35.2970   49.7850   64.3210 C.3   162  TRP162      0.0550
    115  CG        35.7080   50.7050   63.2160 C.ar  162  TRP162      0.0003
    116  CD1       35.4710   52.0460   63.1460 C.ar  162  TRP162      0.0946
    117  CD2       36.4850   50.3750   62.0590 C.ar  162  TRP162      0.0152
    118  NE1       36.0310   52.5710   62.0060 N.ar  162  TRP162     -0.2442
    119  CE2       36.6550   51.5690   61.3160 C.ar  162  TRP162      0.0810
    120  CE3       37.0370   49.1890   61.5660 C.ar  162  TRP162      0.0012
    121  CZ2       37.3650   51.6140   60.1020 C.ar  162  TRP162      0.0191
    122  CZ3       37.7370   49.2280   60.3460 C.ar  162  TRP162      0.0001
    123  CH2       37.8950   50.4400   59.6320 C.ar  162  TRP162      0.0015
    124  N         42.1090   48.6890   58.4740 N.3   185  PRO185     -0.2102
    125  CA        42.6470   48.0060   57.2840 C.3   185  PRO185      0.1504
    126  C         43.1950   48.8940   56.1590 C.2   185  PRO185      0.2576
    127  O         44.3500   48.7060   55.7520 O.2   185  PRO185     -0.2718
    128  CB        41.4720   47.1450   56.7890 C.3   185  PRO185      0.0282
    129  CG        40.4590   47.1640   57.8930 C.3   185  PRO185      0.0208
    130  CD        40.6590   48.4530   58.6220 C.3   185  PRO185      0.0893
    131  N         42.4100   49.8550   55.6690 N.am  186  TRP186     -0.1963
    132  CA        42.7970   50.5370   54.4290 C.3   186  TRP186      0.1771
    133  C         42.2190   51.9440   54.3040 C.2   186  TRP186      0.2619
    134  O         42.0180   52.4510   53.1970 O.2   186  TRP186     -0.2715
    135  CB        42.4510   49.6720   53.1940 C.3   186  TRP186      0.0590
    136  CG        41.1670   48.8660   53.3120 C.ar  186  TRP186      0.0006
    137  CD1       41.0730   47.5260   53.5750 C.ar  186  TRP186      0.0946
    138  CD2       39.8200   49.3270   53.1100 C.ar  186  TRP186      0.0152
    139  NE1       39.7590   47.1290   53.5740 N.ar  186  TRP186     -0.2442
    140  CE2       38.9660   48.2120   53.2970 C.ar  186  TRP186      0.0810
    141  CE3       39.2520   50.5700   52.7910 C.ar  186  TRP186      0.0012
    142  CZ2       37.5700   48.3000   53.1770 C.ar  186  TRP186      0.0191
    143  CZ3       37.8600   50.6620   52.6800 C.ar  186  TRP186      0.0001
    144  CH2       37.0340   49.5270   52.8770 C.ar  186  TRP186      0.0015
    145  N         41.9720   52.5810   55.4470 N.am  187  VAL187     -0.1977
    146  CA        41.5150   53.9640   55.4360 C.3   187  VAL187      0.1596
    147  C         42.3270   54.8760   56.3460 C.2   187  VAL187      0.2287
    148  O         42.9230   54.4300   57.3480 O.2   187  VAL187     -0.2864
    149  CB        40.0110   54.1100   55.8060 C.3   187  VAL187      0.0276
    150  CG1       39.1200   53.4810   54.7290 C.3   187  VAL187      0.0022
    151  CG2       39.7180   53.5320   57.2020 C.3   187  VAL187      0.0022
@<TRIPOS>BOND
     1    20    22   ar
     2    20    19   ar
     3    27    26    2
     4    22    23   ar
     5    18    19    1
     6    18    15    1
     7    19    21   ar
     8    26    25    1
     9    23    21   ar
    10    17    16    2
    11    16    24   am
    12    16    15    1
    13    24    25    1
    14    25    28    1
    15     1     2    1
    16    15    14    1
    17    93    92    1
    18    30    32   ar
    19    30    29   ar
    20     4     3    2
    21     2     3    1
    22     2     5    1
    23    14     9   am
    24    28    29    1
    25    92    94    1
    26    92    89    1
    27    32    34   ar
    28    29    31   ar
    29    91    90    2
    30    10     9    2
    31     6     5    1
    32     9     8    1
    33    90    89    1
    34    34    33   ar
    35    89    88    1
    36    31    33   ar
    37     8     7    1
    38     8    11    1
    39   143   141   ar
    40   143   144   ar
    41   141   138   ar
    42   144   142   ar
    43     7    13    1
    44   138   140   ar
    45   138   136   ar
    46   142   140   ar
    47   135   136    1
    48   135   132    1
    49   134   133    2
    50   140   139   ar
    51   136   137   ar
    52    35    36    1
    53    11    12    1
    54   139   137   ar
    55    42    44   ar
    56    42    40   ar
    57    44    45   ar
    58    12    13    1
    59   133   132    1
    60   133   145   am
    61   132   131    1
    62    38    37    2
    63    53    51    1
    64   150   149    1
    65    36    39    1
    66    36    37    1
    67    39    40    1
    68    40    41   ar
    69    52    51    1
    70    81    80    2
    71    45    43   ar
    72   146   145    1
    73   146   149    1
    74   146   147    1
    75   131   126   am
    76    51    50    1
    77    80    79    1
    78   127   126    2
    79   149   151    1
    80    41    43   ar
    81   126   125    1
    82    50    47    1
    83   147   148    2
    84    47    48    1
    85    47    46    1
    86   128   125    1
    87   128   129    1
    88    77    75    1
    89    48    49    2
    90    79    82    1
    91    79    78    1
    92   125   124    1
    93    82    83    1
    94   129   130    1
    95   124   130    1
    96    75    74    1
    97    83    84   ar
    98    83    85   ar
    99    60    59    1
   100    76    74    1
   101    74    71    1
   102    68    67    2
   103    84    86   ar
   104    85    87   ar
   105    59    61    1
   106    59    58    1
   107   123   121   ar
   108   123   122   ar
   109    66    67    1
   110    66    63    1
   111    67    69   am
   112   121   119   ar
   113    54    55    1
   114   122   120   ar
   115   101    99    1
   116    86    87   ar
   117    58    55    1
   118    71    70    1
   119    71    72    1
   120    70    64   am
   121    64    65    2
   122    64    63    1
   123   100    99    1
   124   119   118   ar
   125   119   117   ar
   126    99    96    1
   127    63    62    1
   128    55    56    1
   129   120   117   ar
   130    73    72    2
   131   118   116   ar
   132   117   115   ar
   133    57    56    2
   134   109   107    1
   135    96    95    1
   136    96    97    1
   137   116   115   ar
   138   115   114    1
   139    97    98    2
   140    97   102   am
   141   107   108    1
   142   107   106    1
   143   102   103    1
   144   114   111    1
   145   103   106    1
   146   103   104    1
   147   111   110    1
   148   111   112    1
   149   104   105    2
   150   112   113    2
