@<TRIPOS>MOLECULE
tmp/2wydB01.pdb
 91 90 0 0 0
SMALL
GASTEIGER

@<TRIPOS>ATOM
      1  N         32.5400   58.3810   49.9410 N.3    23  HIS23      -0.1226
      2  CA        32.0120   58.1140   48.6010 C.3    23  HIS23       0.1752
      3  C         32.0940   56.6060   48.3880 C.2    23  HIS23       0.2596
      4  O         33.1690   56.0630   48.1500 O.2    23  HIS23      -0.2718
      5  CB        32.8040   58.8540   47.5070 C.3    23  HIS23       0.0759
      6  CG        32.8520   60.3480   47.6790 C.ar   23  HIS23       0.0818
      7  ND1       33.9200   61.1100   47.2560 N.ar   23  HIS23      -0.2268
      8  CD2       31.9690   61.2140   48.2330 C.ar   23  HIS23       0.1154
      9  CE1       33.6980   62.3800   47.5500 C.ar   23  HIS23       0.1986
     10  NE2       32.5160   62.4710   48.1370 N.ar   23  HIS23      -0.2212
     11  N         30.9550   55.9320   48.5030 N.am   24  PHE24      -0.1963
     12  CA        30.9200   54.4790   48.6190 C.3    24  PHE24       0.1756
     13  C         29.7070   53.9440   47.8470 C.2    24  PHE24       0.2461
     14  O         28.8580   54.7280   47.4280 O.2    24  PHE24      -0.2730
     15  CB        30.8940   54.0690   50.1110 C.3    24  PHE24       0.0574
     16  CG        32.1010   53.2690   50.5610 C.ar   24  PHE24      -0.0200
     17  CD1       33.3910   53.6080   50.1460 C.ar   24  PHE24      -0.0042
     18  CD2       31.9370   52.1740   51.4140 C.ar   24  PHE24      -0.0042
     19  CE1       34.5040   52.8520   50.5770 C.ar   24  PHE24      -0.0003
     20  CE2       33.0300   51.4170   51.8500 C.ar   24  PHE24      -0.0003
     21  CZ        34.3170   51.7460   51.4220 C.ar   24  PHE24      -0.0000
     22  N         29.6240   52.6100   47.6440 N.am   25  PRO25      -0.2727
     23  CA        28.5460   52.0740   46.8050 C.3    25  PRO25       0.1402
     24  C         27.1470   52.3570   47.3370 C.2    25  PRO25       0.2269
     25  O         26.9340   52.4680   48.5520 O.2    25  PRO25      -0.2865
     26  CB        28.8290   50.5620   46.7910 C.3    25  PRO25       0.0296
     27  CG        30.3710   50.4920   47.0060 C.3    25  PRO25       0.0237
     28  CD        30.5810   51.5570   48.0470 C.3    25  PRO25       0.0939
     29  N         28.9370   46.9970   50.8020 N.3    30  MET30      -0.1245
     30  CA        29.4930   48.2170   51.3930 C.3    30  MET30       0.1570
     31  C         28.4750   49.3670   51.4810 C.2    30  MET30       0.2261
     32  O         28.8410   50.5380   51.5020 O.2    30  MET30      -0.2867
     33  CB        30.7530   48.6360   50.6290 C.3    30  MET30       0.0387
     34  CG        31.8100   47.5470   50.6540 C.3    30  MET30       0.0595
     35  SD        33.4090   48.0510   49.9680 S.3    30  MET30      -0.1393
     36  CE        32.9650   48.8890   48.4960 C.3    30  MET30       0.0692
     37  N         39.5810   56.2330   52.1320 N.3    70  VAL70      -0.1245
     38  CA        40.5200   55.2810   51.5500 C.3    70  VAL70       0.1561
     39  C         41.8730   55.9780   51.3060 C.2    70  VAL70       0.2260
     40  O         41.9240   57.0640   50.7220 O.2    70  VAL70      -0.2867
     41  CB        39.9470   54.6090   50.2620 C.3    70  VAL70       0.0252
     42  CG1       41.0240   53.8220   49.5100 C.3    70  VAL70       0.0019
     43  CG2       38.7680   53.6530   50.6340 C.3    70  VAL70       0.0019
     44  N         48.5410   47.9490   51.0530 N.3    75  HIS75      -0.1241
     45  CA        48.0740   47.0410   52.1050 C.3    75  HIS75       0.1621
     46  C         48.3690   45.5960   51.7470 C.2    75  HIS75       0.2264
     47  O         47.8800   44.6560   52.3820 O.2    75  HIS75      -0.2867
     48  CB        46.5980   47.3240   52.4390 C.3    75  HIS75       0.0745
     49  CG        46.3630   48.7580   52.8000 C.ar   75  HIS75       0.0817
     50  ND1       46.7780   49.3020   53.9990 N.ar   75  HIS75      -0.2268
     51  CD2       45.8420   49.7810   52.0810 C.ar   75  HIS75       0.1154
     52  CE1       46.4920   50.5940   54.0140 C.ar   75  HIS75       0.1986
     53  NE2       45.9280   50.9110   52.8590 N.ar   75  HIS75      -0.2212
     54  N         42.4940   49.7410   55.7240 N.3   186  TRP186     -0.1241
     55  CA        42.8510   50.4380   54.4760 C.3   186  TRP186      0.1605
     56  C         42.3040   51.8590   54.3680 C.2   186  TRP186      0.2264
     57  O         42.0970   52.3740   53.2580 O.2   186  TRP186     -0.2867
     58  CB        42.4760   49.5900   53.2320 C.3   186  TRP186      0.0550
     59  CG        41.2050   48.7570   53.3780 C.ar  186  TRP186      0.0003
     60  CD1       41.1400   47.4120   53.6230 C.ar  186  TRP186      0.0946
     61  CD2       39.8410   49.2060   53.2490 C.ar  186  TRP186      0.0152
     62  NE1       39.8280   46.9960   53.6750 N.ar  186  TRP186     -0.2442
     63  CE2       39.0090   48.0730   53.4500 C.ar  186  TRP186      0.0810
     64  CE3       39.2430   50.4450   52.9720 C.ar  186  TRP186      0.0012
     65  CZ2       37.6060   48.1450   53.3930 C.ar  186  TRP186      0.0191
     66  CZ3       37.8430   50.5250   52.9310 C.ar  186  TRP186      0.0001
     67  CH2       37.0400   49.3750   53.1350 C.ar  186  TRP186      0.0015
     68  N         29.0650   58.6930   41.0760 N.3   465  GLN465     -0.1245
     69  CA        29.4240   57.8990   39.9140 C.3   465  GLN465      0.1566
     70  C         28.1530   57.2580   39.3810 C.2   465  GLN465      0.2260
     71  O         27.3680   56.6900   40.1510 O.2   465  GLN465     -0.2867
     72  CB        30.4630   56.8320   40.2850 C.3   465  GLN465      0.0367
     73  CG        30.9590   56.0040   39.0930 C.3   465  GLN465      0.0905
     74  CD        31.6370   54.7040   39.5010 C.2   465  GLN465      0.2608
     75  OE1       32.0000   54.5090   40.6620 O.2   465  GLN465     -0.2717
     76  NE2       31.8140   53.8090   38.5420 N.am  465  GLN465     -0.0878
     77  N         25.5400   54.6480   40.9110 N.3   476  VAL476     -0.1231
     78  CA        26.0350   53.3820   41.4760 C.3   476  VAL476      0.1692
     79  C         26.8120   53.5920   42.7870 C.2   476  VAL476      0.2593
     80  O         26.9140   52.6830   43.6080 O.2   476  VAL476     -0.2718
     81  CB        26.8950   52.5770   40.4710 C.3   476  VAL476      0.0266
     82  CG1       26.0370   52.0670   39.2790 C.3   476  VAL476      0.0020
     83  CG2       28.0810   53.3790   39.9890 C.3   476  VAL476      0.0020
     84  N         27.3710   54.7830   42.9730 N.am  477  GLY477     -0.1942
     85  CA        28.1770   55.0600   44.1570 C.3   477  GLY477      0.2014
     86  C         28.4700   56.5330   44.2930 C.2   477  GLY477      0.2639
     87  O         28.2000   57.3130   43.3700 O.2   477  GLY477     -0.2714
     88  N         29.0300   56.9140   45.4410 N.am  478  GLY478     -0.1954
     89  CA        29.3650   58.3040   45.7180 C.3   478  GLY478      0.1869
     90  C         28.9120   58.7110   47.0990 C.2   478  GLY478      0.2309
     91  O         28.8460   57.8740   48.0200 O.2   478  GLY478     -0.2863
@<TRIPOS>BOND
     1    76    74   am
     2    73    74    1
     3    73    72    1
     4    82    81    1
     5    70    69    1
     6    70    71    2
     7    74    75    2
     8    69    72    1
     9    69    68    1
    10    83    81    1
    11    81    78    1
    12    77    78    1
    13    78    79    1
    14    79    84   am
    15    79    80    2
    16    84    85    1
    17    87    86    2
    18    85    86    1
    19    86    88   am
    20    88    89    1
    21    89    90    1
    22    26    23    1
    23    26    27    1
    24    23    24    1
    25    23    22    1
    26    27    28    1
    27    90    91    2
    28     7     9   ar
    29     7     6   ar
    30    24    25    2
    31    14    13    2
    32     5     6    1
    33     5     2    1
    34     9    10   ar
    35    22    13   am
    36    22    28    1
    37     6     8   ar
    38    13    12    1
    39    10     8   ar
    40     4     3    2
    41     3    11   am
    42     3     2    1
    43    36    35    1
    44    11    12    1
    45     2     1    1
    46    12    15    1
    47    42    41    1
    48    35    34    1
    49    15    16    1
    50    17    16   ar
    51    17    19   ar
    52    41    43    1
    53    41    38    1
    54    16    18   ar
    55    19    21   ar
    56    33    34    1
    57    33    30    1
    58    40    39    2
    59    29    30    1
    60    44    45    1
    61    39    38    1
    62    30    31    1
    63    18    20   ar
    64    21    20   ar
    65    31    32    2
    66    38    37    1
    67    46    45    1
    68    46    47    2
    69    51    49   ar
    70    51    53   ar
    71    45    48    1
    72    48    49    1
    73    49    50   ar
    74    53    52   ar
    75    66    64   ar
    76    66    67   ar
    77    64    61   ar
    78    67    65   ar
    79    58    59    1
    80    58    55    1
    81    61    59   ar
    82    61    63   ar
    83    57    56    2
    84    59    60   ar
    85    65    63   ar
    86    63    62   ar
    87    60    62   ar
    88    50    52   ar
    89    56    55    1
    90    55    54    1
