@<TRIPOS>MOLECULE
tmp/2wyfA00.pdb
 93 89 0 0 0
SMALL
GASTEIGER

@<TRIPOS>ATOM
      1  N         17.3880   22.2030   71.6140 N.3    36  TYR36      -0.1227
      2  CA        16.0640   21.6080   71.6590 C.3    36  TYR36       0.1736
      3  C         15.3440   21.8990   73.0050 C.2    36  TYR36       0.2596
      4  O         14.4090   21.1840   73.3920 O.2    36  TYR36      -0.2718
      5  CB        16.2100   20.1150   71.4370 C.3    36  TYR36       0.0548
      6  CG        17.1180   19.4120   72.4300 C.ar   36  TYR36      -0.0200
      7  CD1       16.6160   18.9010   73.6480 C.ar   36  TYR36      -0.0009
      8  CD2       18.4680   19.2110   72.1490 C.ar   36  TYR36      -0.0009
      9  CE1       17.4490   18.2220   74.5560 C.ar   36  TYR36       0.0417
     10  CE2       19.3010   18.5210   73.0520 C.ar   36  TYR36       0.0417
     11  CZ        18.7890   18.0350   74.2400 C.ar   36  TYR36       0.1957
     12  OH        19.6330   17.3760   75.1150 O.3    36  TYR36      -0.2866
     13  N         15.7850   22.9450   73.7110 N.am   37  GLY37      -0.1943
     14  CA        15.2430   23.2510   75.0320 C.3    37  GLY37       0.1998
     15  C         16.2870   23.7760   76.0050 C.2    37  GLY37       0.2480
     16  O         16.1330   24.8950   76.5270 O.2    37  GLY37      -0.2729
     17  N         17.3620   22.9900   76.2630 N.am   38  PRO38      -0.2726
     18  CA        18.3160   23.4150   77.2930 C.3    38  PRO38       0.1402
     19  C         19.0550   24.6870   76.9080 C.2    38  PRO38       0.2269
     20  O         19.0760   25.0680   75.7400 O.2    38  PRO38      -0.2865
     21  CB        19.2920   22.2300   77.3710 C.3    38  PRO38       0.0296
     22  CG        18.5260   21.0720   76.7800 C.3    38  PRO38       0.0237
     23  CD        17.7590   21.6980   75.6790 C.3    38  PRO38       0.0939
     24  N         21.5140   12.4270   74.7140 N.3    50  HIS50      -0.1227
     25  CA        20.0740   12.5690   74.9480 C.3    50  HIS50       0.1737
     26  C         19.3340   11.3910   74.3330 C.2    50  HIS50       0.2438
     27  O         19.5940   11.0510   73.1790 O.2    50  HIS50      -0.2733
     28  CB        19.5770   13.9020   74.3360 C.3    50  HIS50       0.0758
     29  CG        18.1970   14.3140   74.7720 C.ar   50  HIS50       0.0818
     30  ND1       17.9390   14.9010   75.9950 N.ar   50  HIS50      -0.2268
     31  CD2       17.0020   14.2380   74.1390 C.ar   50  HIS50       0.1154
     32  CE1       16.6500   15.1650   76.0970 C.ar   50  HIS50       0.1986
     33  NE2       16.0590   14.7700   74.9850 N.ar   50  HIS50      -0.2212
     34  N         18.4260   10.7550   75.1070 N.am   51  PRO51      -0.2729
     35  CA        17.6210    9.6150   74.6500 C.3    51  PRO51       0.1401
     36  C         16.5920    9.9750   73.5850 C.2    51  PRO51       0.2269
     37  O         16.0840   11.1030   73.5770 O.2    51  PRO51      -0.2865
     38  CB        16.8850    9.1400   75.9170 C.3    51  PRO51       0.0296
     39  CG        17.0920   10.1860   76.9500 C.3    51  PRO51       0.0237
     40  CD        18.1650   11.1110   76.5190 C.3    51  PRO51       0.0939
     41  N         13.1040   10.0620   72.2780 N.3    53  GLN53      -0.1245
     42  CA        11.8150   10.1500   72.9460 C.3    53  GLN53       0.1566
     43  C         10.6890   10.3460   71.9660 C.2    53  GLN53       0.2260
     44  O          9.6610   10.9350   72.3280 O.2    53  GLN53      -0.2867
     45  CB        11.8120   11.3390   73.9010 C.3    53  GLN53       0.0367
     46  CG        12.9080   11.3230   74.9330 C.3    53  GLN53       0.0905
     47  CD        12.6130   12.2510   76.0520 C.2    53  GLN53       0.2608
     48  OE1       12.4140   13.4350   75.8490 O.2    53  GLN53      -0.2717
     49  NE2       12.5910   11.7250   77.2540 N.am   53  GLN53      -0.0878
     50  N         11.6210   10.9740   68.2820 N.3    55  LEU55      -0.1245
     51  CA        12.2090   11.8650   67.2610 C.3    55  LEU55       0.1561
     52  C         11.6500   11.5760   65.8760 C.2    55  LEU55       0.2260
     53  O         11.2970   10.4380   65.5650 O.2    55  LEU55      -0.2867
     54  CB        13.7380   11.7470   67.2350 C.3    55  LEU55       0.0270
     55  CG        14.5620   12.0970   68.4870 C.3    55  LEU55       0.0019
     56  CD1       16.0380   11.5640   68.4110 C.3    55  LEU55       0.0001
     57  CD2       14.5650   13.5840   68.7880 C.3    55  LEU55       0.0001
     58  N         18.8700   13.7200   68.9250 N.3    62  CYS62      -0.1235
     59  CA        18.0670   14.9120   69.1890 C.3    62  CYS62       0.1677
     60  C         18.9100   16.1710   68.9160 C.2    62  CYS62       0.2270
     61  O         19.9900   16.3510   69.4930 O.2    62  CYS62      -0.2867
     62  CB        17.5310   14.9230   70.6350 C.3    62  CYS62       0.0956
     63  SG        16.4340   16.3740   71.0710 S.3    62  CYS62      -0.0801
     64  N         13.6930   16.7930   66.4190 N.3   100  ASP100     -0.1225
     65  CA        13.1230   16.9290   67.7470 C.3   100  ASP100      0.1805
     66  C         11.8910   16.0230   67.8340 C.2   100  ASP100      0.2597
     67  O         11.5600   15.3090   66.8800 O.2   100  ASP100     -0.2718
     68  CB        12.7780   18.4050   68.0200 C.3   100  ASP100      0.1424
     69  CG        12.8130   18.7830   69.5080 C.2   100  ASP100      0.3668
     70  OD1       12.7980   17.8900   70.3780 O.co2 100  ASP100     -0.2456
     71  OD2       12.8550   20.0090   69.7830 O.co2 100  ASP100     -0.2456
     72  N         11.2300   16.0370   68.9830 N.am  101  VAL101     -0.1980
     73  CA        10.0070   15.2750   69.1760 C.3   101  VAL101      0.1595
     74  C          8.8080   16.1200   68.7200 C.2   101  VAL101      0.2287
     75  O          8.6860   17.2650   69.1220 O.2   101  VAL101     -0.2864
     76  CB         9.9000   14.8250   70.6720 C.3   101  VAL101      0.0276
     77  CG1        8.5100   14.2000   71.0040 C.3   101  VAL101      0.0022
     78  CG2       11.1190   13.8730   71.0260 C.3   101  VAL101      0.0022
     79  N          7.1550   19.3770   70.5060 N.3   104  THR104     -0.1218
     80  CA         8.1140   19.9160   71.4720 C.3   104  THR104      0.1862
     81  C          9.0850   21.0030   70.9300 C.2   104  THR104      0.2287
     82  O         10.0990   21.3060   71.5490 O.2   104  THR104     -0.2866
     83  CB         8.9070   18.7690   72.1520 C.3   104  THR104      0.1770
     84  OG1        9.7220   18.1170   71.1900 O.3   104  THR104     -0.2211
     85  CG2        7.9670   17.7380   72.7870 C.3   104  THR104      0.0375
     86  N         10.2430   25.3710   72.5160 N.3   107  ASN107     -0.1240
     87  CA        11.3570   25.8640   73.3340 C.3   107  ASN107      0.1653
     88  C         12.7490   25.8080   72.6810 C.2   107  ASN107      0.2266
     89  O         13.7470   26.1740   73.2970 O.2   107  ASN107     -0.2867
     90  CB        11.3310   25.2010   74.7270 C.3   107  ASN107      0.1155
     91  CG        11.6250   23.7150   74.6840 C.2   107  ASN107      0.2627
     92  OD1       11.5860   23.0710   73.6260 O.2   107  ASN107     -0.2716
     93  ND2       11.9310   23.1600   75.8430 N.am  107  ASN107     -0.0877
@<TRIPOS>BOND
     1    53    52    2
     2    52    51    1
     3    64    65    1
     4    67    66    2
     5    54    51    1
     6    54    55    1
     7    51    50    1
     8    65    66    1
     9    65    68    1
    10    66    72   am
    11    68    69    1
    12    56    55    1
    13    55    57    1
    14    74    75    2
    15    74    73    1
    16    60    59    1
    17    60    61    2
    18    58    59    1
    19    72    73    1
    20    73    76    1
    21    59    62    1
    22    69    71   ar
    23    69    70   ar
    24    79    80    1
    25    62    63    1
    26    76    77    1
    27    76    78    1
    28    81    80    1
    29    81    82    2
    30    84    83    1
    31     5     2    1
    32     5     6    1
    33    80    83    1
    34     1     2    1
    35     2     3    1
    36    43    44    2
    37    43    42    1
    38     8     6   ar
    39     8    10   ar
    40    83    85    1
    41    41    42    1
    42     6     7   ar
    43    86    87    1
    44    88    89    2
    45    88    87    1
    46    42    45    1
    47     3     4    2
    48     3    13   am
    49    10    11   ar
    50    27    26    2
    51    87    90    1
    52    37    36    2
    53    36    35    1
    54    92    91    2
    55     7     9   ar
    56    13    14    1
    57    45    46    1
    58    31    29   ar
    59    31    33   ar
    60    11     9   ar
    61    11    12    1
    62    26    25    1
    63    26    34   am
    64    28    29    1
    65    28    25    1
    66    35    34    1
    67    35    38    1
    68    91    90    1
    69    91    93   am
    70    24    25    1
    71    29    30   ar
    72    46    47    1
    73    33    32   ar
    74    14    15    1
    75    34    40    1
    76    23    17    1
    77    23    22    1
    78    20    19    2
    79    48    47    2
    80    38    39    1
    81    30    32   ar
    82    15    17   am
    83    15    16    2
    84    47    49   am
    85    17    18    1
    86    40    39    1
    87    22    21    1
    88    19    18    1
    89    18    21    1
