@<TRIPOS>MOLECULE
tmp/2wyiB06.pdb
 142 139 0 0 0
SMALL
GASTEIGER

@<TRIPOS>ATOM
      1  N         13.3690  -36.8450  -12.7880 N.3    11  HIS11      -0.1241
      2  CA        13.3820  -36.0720  -11.5640 C.3    11  HIS11       0.1621
      3  C         13.7820  -36.9690  -10.3910 C.2    11  HIS11       0.2264
      4  O         12.9660  -37.7420   -9.8740 O.2    11  HIS11      -0.2867
      5  CB        12.0370  -35.4260  -11.3270 C.3    11  HIS11       0.0745
      6  CG        12.0490  -34.4210  -10.2260 C.ar   11  HIS11       0.0817
      7  ND1       12.9640  -33.3930  -10.1710 N.ar   11  HIS11      -0.2268
      8  CD2       11.2560  -34.2770   -9.1430 C.ar   11  HIS11       0.1154
      9  CE1       12.7390  -32.6620   -9.0960 C.ar   11  HIS11       0.1986
     10  NE2       11.7060  -33.1750   -8.4570 N.ar   11  HIS11      -0.2212
     11  N         14.6880  -37.5480   -6.8600 N.3    13  ASP13      -0.1239
     12  CA        14.7420  -37.2360   -5.4410 C.3    13  ASP13       0.1674
     13  C         15.6950  -38.1850   -4.7910 C.2    13  ASP13       0.2266
     14  O         15.5170  -39.4000   -4.8660 O.2    13  ASP13      -0.2867
     15  CB        13.3740  -37.3660   -4.8180 C.3    13  ASP13       0.1410
     16  CG        12.4190  -36.3920   -5.3960 C.2    13  ASP13       0.3668
     17  OD1       12.6820  -35.1790   -5.2390 O.co2  13  ASP13      -0.2456
     18  OD2       11.4380  -36.8400   -6.0400 O.co2  13  ASP13      -0.2456
     19  N         13.4500  -40.2940   -0.3860 N.3    16  TRP16      -0.1241
     20  CA        12.0670  -39.8370   -0.1810 C.3    16  TRP16       0.1605
     21  C         11.2150  -40.8880    0.5320 C.2    16  TRP16       0.2264
     22  O         11.3210  -41.0530    1.7530 O.2    16  TRP16      -0.2867
     23  CB        11.4520  -39.3980   -1.5090 C.3    16  TRP16       0.0550
     24  CG        10.0900  -38.7740   -1.3850 C.ar   16  TRP16       0.0003
     25  CD1        9.5720  -38.1470   -0.2900 C.ar   16  TRP16       0.0946
     26  CD2        9.0840  -38.6890   -2.4080 C.ar   16  TRP16       0.0152
     27  NE1        8.3080  -37.7020   -0.5570 N.ar   16  TRP16      -0.2442
     28  CE2        7.9800  -38.0170   -1.8480 C.ar   16  TRP16       0.0810
     29  CE3        9.0120  -39.1190   -3.7400 C.ar   16  TRP16       0.0012
     30  CZ2        6.7890  -37.7770   -2.5700 C.ar   16  TRP16       0.0191
     31  CZ3        7.8280  -38.8810   -4.4660 C.ar   16  TRP16       0.0001
     32  CH2        6.7350  -38.2140   -3.8760 C.ar   16  TRP16       0.0015
     33  N         10.4750  -28.5830   -8.6300 N.3   123  ASP123     -0.1239
     34  CA         9.4510  -28.9870   -7.6790 C.3   123  ASP123      0.1674
     35  C          9.4520  -28.1950   -6.3670 C.2   123  ASP123      0.2266
     36  O          8.5670  -28.3870   -5.5230 O.2   123  ASP123     -0.2867
     37  CB         9.5510  -30.4950   -7.4050 C.3   123  ASP123      0.1410
     38  CG         8.2900  -31.0630   -6.7390 C.2   123  ASP123      0.3668
     39  OD1        8.3980  -32.0490   -5.9610 O.co2 123  ASP123     -0.2456
     40  OD2        7.1820  -30.5090   -6.9790 O.co2 123  ASP123     -0.2456
     41  N          8.9760  -26.2240   -3.1400 N.3   125  PHE125     -0.1241
     42  CA         7.7500  -25.7850   -2.4640 C.3   125  PHE125      0.1605
     43  C          7.8100  -24.2950   -2.1170 C.2   125  PHE125      0.2264
     44  O          7.9320  -23.9230   -0.9410 O.2   125  PHE125     -0.2867
     45  CB         7.5050  -26.5710   -1.1700 C.3   125  PHE125      0.0534
     46  CG         7.7280  -28.0490   -1.2840 C.ar  125  PHE125     -0.0203
     47  CD1        7.6000  -28.7120   -2.5040 C.ar  125  PHE125     -0.0042
     48  CD2        8.0320  -28.7900   -0.1410 C.ar  125  PHE125     -0.0042
     49  CE1        7.7980  -30.0790   -2.5850 C.ar  125  PHE125     -0.0003
     50  CE2        8.2270  -30.1600   -0.2120 C.ar  125  PHE125     -0.0003
     51  CZ         8.1130  -30.8060   -1.4300 C.ar  125  PHE125     -0.0000
     52  N          5.9710  -24.5750   -9.5730 N.3   147  ARG147     -0.1245
     53  CA         4.9160  -24.2090   -8.6270 C.3   147  ARG147      0.1563
     54  C          4.6930  -22.7180   -8.4490 C.2   147  ARG147      0.2260
     55  O          5.6430  -21.9410   -8.3510 O.2   147  ARG147     -0.2867
     56  CB         5.1590  -24.8430   -7.2530 C.3   147  ARG147      0.0307
     57  CG         5.2800  -26.3430   -7.2800 C.3   147  ARG147      0.0489
     58  CD         5.5950  -26.9260   -5.9120 C.3   147  ARG147      0.2205
     59  NE         5.5380  -28.3820   -5.9970 N.pl3 147  ARG147     -0.0865
     60  CZ         4.4290  -29.1040   -5.8440 C.cat 147  ARG147      0.5346
     61  NH1        3.2730  -28.5240   -5.5540 N.pl3 147  ARG147      0.1354
     62  NH2        4.4800  -30.4170   -5.9710 N.pl3 147  ARG147      0.1354
     63  N          3.4530  -29.2990  -16.0710 N.3   189  TRP189     -0.1227
     64  CA         4.3090  -30.1040  -15.1910 C.3   189  TRP189      0.1737
     65  C          5.4720  -30.7500  -15.9490 C.2   189  TRP189      0.2595
     66  O          5.4220  -30.8950  -17.1770 O.2   189  TRP189     -0.2718
     67  CB         3.4940  -31.1450  -14.4010 C.3   189  TRP189      0.0564
     68  CG         4.1090  -31.6210  -13.0780 C.ar  189  TRP189      0.0003
     69  CD1        4.3520  -32.9270  -12.6980 C.ar  189  TRP189      0.0946
     70  CD2        4.5130  -30.8050  -11.9600 C.ar  189  TRP189      0.0152
     71  NE1        4.8840  -32.9630  -11.4290 N.ar  189  TRP189     -0.2442
     72  CE2        4.9870  -31.6820  -10.9500 C.ar  189  TRP189      0.0810
     73  CE3        4.5120  -29.4240  -11.7110 C.ar  189  TRP189      0.0012
     74  CZ2        5.4630  -31.2130   -9.7110 C.ar  189  TRP189      0.0191
     75  CZ3        4.9900  -28.9600  -10.4820 C.ar  189  TRP189      0.0001
     76  CH2        5.4590  -29.8520   -9.5000 C.ar  189  TRP189      0.0015
     77  N          6.5110  -31.1310  -15.2030 N.am  190  TYR190     -0.1976
     78  CA         7.7220  -31.7110  -15.7840 C.3   190  TYR190      0.1639
     79  C          7.5150  -33.1550  -16.2340 C.2   190  TYR190      0.2290
     80  O          8.4690  -33.8540  -16.5720 O.2   190  TYR190     -0.2864
     81  CB         8.9140  -31.5970  -14.8190 C.3   190  TYR190      0.0560
     82  CG         8.6550  -32.1200  -13.4220 C.ar  190  TYR190     -0.0198
     83  CD1        8.5400  -33.4970  -13.1730 C.ar  190  TYR190     -0.0009
     84  CD2        8.5390  -31.2440  -12.3420 C.ar  190  TYR190     -0.0009
     85  CE1        8.3040  -33.9850  -11.8930 C.ar  190  TYR190      0.0417
     86  CE2        8.3090  -31.7220  -11.0530 C.ar  190  TYR190      0.0417
     87  CZ         8.1890  -33.0960  -10.8370 C.ar  190  TYR190      0.1957
     88  OH         7.9640  -33.5790   -9.5670 O.3   190  TYR190     -0.2866
     89  N          9.0750  -38.2800  -11.7460 N.3   230  ASP230     -0.1239
     90  CA         9.7890  -38.6730  -10.5200 C.3   230  ASP230      0.1674
     91  C         10.3650  -40.0580  -10.6770 C.2   230  ASP230      0.2266
     92  O          9.6130  -41.0130  -10.8770 O.2   230  ASP230     -0.2867
     93  CB         8.8640  -38.7020   -9.2980 C.3   230  ASP230      0.1410
     94  CG         8.0620  -37.4440   -9.1350 C.2   230  ASP230      0.3668
     95  OD1        8.4880  -36.3850   -9.6570 O.co2 230  ASP230     -0.2456
     96  OD2        7.0000  -37.5310   -8.4710 O.co2 230  ASP230     -0.2456
     97  N          2.2790  -26.7200    0.7350 N.3   292  LEU292     -0.1245
     98  CA         3.2170  -27.5950    1.4370 C.3   292  LEU292      0.1561
     99  C          4.1100  -26.8090    2.3930 C.2   292  LEU292      0.2260
    100  O          5.1910  -27.2660    2.7800 O.2   292  LEU292     -0.2867
    101  CB         4.0590  -28.4360    0.4590 C.3   292  LEU292      0.0270
    102  CG         3.3240  -29.1030   -0.7200 C.3   292  LEU292      0.0019
    103  CD1        4.2870  -29.8650   -1.6400 C.3   292  LEU292      0.0001
    104  CD2        2.1430  -29.9830   -0.2540 C.3   292  LEU292      0.0001
    105  N         15.0920  -31.1320   -1.1890 N.3   349  HIS349     -0.1226
    106  CA        13.8400  -30.6590   -0.5950 C.3   349  HIS349      0.1752
    107  C         13.1460  -31.7020    0.2790 C.2   349  HIS349      0.2596
    108  O         12.7800  -31.4060    1.4140 O.2   349  HIS349     -0.2718
    109  CB        12.8930  -30.0510   -1.6440 C.3   349  HIS349      0.0759
    110  CG        12.6870  -30.9120   -2.8490 C.ar  349  HIS349      0.0818
    111  ND1       13.6670  -31.1060   -3.8040 N.ar  349  HIS349     -0.2268
    112  CD2       11.6150  -31.6310   -3.2580 C.ar  349  HIS349      0.1154
    113  CE1       13.2070  -31.9060   -4.7510 C.ar  349  HIS349      0.1986
    114  NE2       11.9630  -32.2350   -4.4440 N.ar  349  HIS349     -0.2212
    115  N         13.0110  -32.9270   -0.2260 N.am  350  ASP350     -0.1974
    116  CA        12.3790  -34.0060    0.5440 C.3   350  ASP350      0.1709
    117  C         13.1430  -34.3720    1.8170 C.2   350  ASP350      0.2293
    118  O         12.5770  -34.9960    2.7290 O.2   350  ASP350     -0.2864
    119  CB        12.1810  -35.2510   -0.3220 C.3   350  ASP350      0.1436
    120  CG        11.1960  -35.0220   -1.4320 C.2   350  ASP350      0.3671
    121  OD1       10.1300  -34.4260   -1.1680 O.co2 350  ASP350     -0.2456
    122  OD2       11.4870  -35.4230   -2.5770 O.co2 350  ASP350     -0.2456
    123  N          3.7010  -32.7490    5.1110 N.3   569  TYR569     -0.1241
    124  CA         3.6220  -31.5640    4.2490 C.3   569  TYR569      0.1605
    125  C          2.5930  -30.5430    4.7570 C.2   569  TYR569      0.2264
    126  O          2.7590  -29.3200    4.6060 O.2   569  TYR569     -0.2867
    127  CB         3.2020  -31.9600    2.8320 C.3   569  TYR569      0.0534
    128  CG         4.0880  -32.9340    2.0990 C.ar  569  TYR569     -0.0201
    129  CD1        5.0510  -32.4750    1.2160 C.ar  569  TYR569     -0.0009
    130  CD2        3.9250  -34.3160    2.2410 C.ar  569  TYR569     -0.0009
    131  CE1        5.8480  -33.3470    0.5050 C.ar  569  TYR569      0.0417
    132  CE2        4.7250  -35.2100    1.5310 C.ar  569  TYR569      0.0417
    133  CZ         5.6870  -34.7120    0.6590 C.ar  569  TYR569      0.1957
    134  OH         6.4990  -35.5560   -0.0650 O.3   569  TYR569     -0.2866
    135  N          1.2730  -37.2100    0.6030 N.3   758  ASP758     -0.1239
    136  CA         1.4240  -37.3090   -0.8480 C.3   758  ASP758      0.1674
    137  C          0.7750  -38.5880   -1.4200 C.2   758  ASP758      0.2266
    138  O         -0.2880  -39.0080   -0.9630 O.2   758  ASP758     -0.2867
    139  CB         2.9080  -37.2240   -1.2430 C.3   758  ASP758      0.1410
    140  CG         3.1120  -36.5850   -2.6040 C.2   758  ASP758      0.3668
    141  OD1        3.0320  -35.3340   -2.6870 O.co2 758  ASP758     -0.2456
    142  OD2        3.3530  -37.3330   -3.5880 O.co2 758  ASP758     -0.2456
@<TRIPOS>BOND
     1    66    65    2
     2    80    79    2
     3    79    78    1
     4    63    64    1
     5    65    77   am
     6    65    64    1
     7    78    77    1
     8    78    81    1
     9    64    67    1
    10    81    82    1
    11    67    68    1
    12    82    83   ar
    13    82    84   ar
    14    83    85   ar
    15    68    69   ar
    16    68    70   ar
    17     1     2    1
    18    69    71   ar
    19    84    86   ar
    20    70    73   ar
    21    70    72   ar
    22    85    87   ar
    23    89    90    1
    24    73    75   ar
    25     2     5    1
    26     2     3    1
    27    71    72   ar
    28     5     6    1
    29    86    87   ar
    30    72    74   ar
    31    92    91    2
    32    87    88    1
    33    91    90    1
    34    90    93    1
    35    75    76   ar
    36     3     4    2
    37     6     7   ar
    38     6     8   ar
    39     7     9   ar
    40    74    76   ar
    41    95    94   ar
    42    52    53    1
    43    93    94    1
    44     8    10   ar
    45    94    96   ar
    46     9    10   ar
    47    33    34    1
    48    53    54    1
    49    53    56    1
    50    54    55    2
    51    34    37    1
    52    34    35    1
    53    37    38    1
    54    57    56    1
    55    57    58    1
    56    40    38   ar
    57    11    12    1
    58    38    39   ar
    59    35    36    2
    60    18    16   ar
    61    59    58    1
    62    59    60    2
    63    62    60    1
    64    60    61    1
    65    12    15    1
    66    12    13    1
    67    16    17   ar
    68    16    15    1
    69    14    13    2
    70   113   114   ar
    71   113   111   ar
    72    31    32   ar
    73    31    29   ar
    74   114   112   ar
    75    32    30   ar
    76   111   110   ar
    77    29    26   ar
    78   142   140   ar
    79   112   110   ar
    80    41    42    1
    81   110   109    1
    82   141   140   ar
    83   140   139    1
    84    49    47   ar
    85    49    51   ar
    86   122   120   ar
    87    30    28   ar
    88    47    46   ar
    89    42    43    1
    90    42    45    1
    91    26    28   ar
    92    26    24   ar
    93    43    44    2
    94    28    27   ar
    95   109   106    1
    96   103   102    1
    97    23    24    1
    98    23    20    1
    99   120   121   ar
   100   120   119    1
   101    51    50   ar
   102   137   138    2
   103   137   136    1
   104    24    25   ar
   105    46    45    1
   106    46    48   ar
   107   139   136    1
   108   105   106    1
   109   136   135    1
   110   102   104    1
   111   102   101    1
   112   106   107    1
   113    27    25   ar
   114    19    20    1
   115   119   116    1
   116   115   107   am
   117   115   116    1
   118    50    48   ar
   119    20    21    1
   120   134   133    1
   121   107   108    2
   122   101    98    1
   123   131   133   ar
   124   131   129   ar
   125    21    22    2
   126   116   117    1
   127   133   132   ar
   128    97    98    1
   129   129   128   ar
   130    98    99    1
   131   132   130   ar
   132   117   118    2
   133   128   130   ar
   134   128   127    1
   135    99   100    2
   136   127   124    1
   137   124   125    1
   138   124   123    1
   139   126   125    2
