@<TRIPOS>MOLECULE
tmp/2wynD00.pdb
 167 167 0 0 0
SMALL
GASTEIGER

@<TRIPOS>ATOM
      1  N        -26.0560  -70.5570  103.0720 N.3   114  PRO114     -0.2116
      2  CA       -26.6360  -71.7680  102.4660 C.3   114  PRO114      0.1372
      3  C        -26.6080  -73.0000  103.3680 C.2   114  PRO114      0.2244
      4  O        -27.5870  -73.7680  103.4140 O.2   114  PRO114     -0.2868
      5  CB       -25.7500  -71.9960  101.2200 C.3   114  PRO114      0.0268
      6  CG       -25.3360  -70.5860  100.8160 C.3   114  PRO114      0.0207
      7  CD       -25.1000  -69.8840  102.1760 C.3   114  PRO114      0.0892
      8  N        -20.2010  -76.1330  103.9830 N.3   117  ARG117     -0.1231
      9  CA       -18.9370  -75.3980  103.8210 C.3   117  ARG117      0.1694
     10  C        -19.1910  -73.9330  103.4460 C.2   117  ARG117      0.2592
     11  O        -18.2710  -73.1050  103.4420 O.2   117  ARG117     -0.2718
     12  CB       -18.0790  -76.0590  102.7380 C.3   117  ARG117      0.0321
     13  CG       -18.7070  -75.9000  101.3300 C.3   117  ARG117      0.0489
     14  CD       -18.1090  -76.8520  100.2950 C.3   117  ARG117      0.2205
     15  NE       -16.7130  -76.5780   99.9120 N.pl3 117  ARG117     -0.0865
     16  CZ       -16.3640  -75.9380   98.7930 C.cat 117  ARG117      0.5346
     17  NH1      -17.2930  -75.4380   97.9740 N.pl3 117  ARG117      0.1354
     18  NH2      -15.0940  -75.7700   98.4970 N.pl3 117  ARG117      0.1354
     19  N        -20.4350  -73.6070  103.1110 N.am  118  PHE118     -0.1976
     20  CA       -20.7660  -72.2400  102.7410 C.3   118  PHE118      0.1639
     21  C        -21.1350  -71.4450  104.0000 C.2   118  PHE118      0.2290
     22  O        -22.3140  -71.3510  104.3770 O.2   118  PHE118     -0.2864
     23  CB       -21.8570  -72.2160  101.6640 C.3   118  PHE118      0.0560
     24  CG       -21.5150  -73.0660  100.4680 C.ar  118  PHE118     -0.0200
     25  CD1      -20.4280  -72.7340   99.6580 C.ar  118  PHE118     -0.0042
     26  CD2      -22.2340  -74.2250  100.1860 C.ar  118  PHE118     -0.0042
     27  CE1      -20.0560  -73.5460   98.5830 C.ar  118  PHE118     -0.0003
     28  CE2      -21.8760  -75.0370   99.0810 C.ar  118  PHE118     -0.0003
     29  CZ       -20.7930  -74.6790   98.2870 C.ar  118  PHE118     -0.0000
     30  N        -24.4900  -65.6980  100.2340 N.3   122  TYR122     -0.1241
     31  CA       -24.3270  -65.7820   98.7920 C.3   122  TYR122      0.1605
     32  C        -25.3570  -64.8930   98.1260 C.2   122  TYR122      0.2264
     33  O        -26.5280  -64.8900   98.5270 O.2   122  TYR122     -0.2867
     34  CB       -24.4110  -67.2550   98.2880 C.3   122  TYR122      0.0534
     35  CG       -23.1000  -67.9190   98.5620 C.ar  122  TYR122     -0.0201
     36  CD1      -22.7860  -68.3410   99.8550 C.ar  122  TYR122     -0.0009
     37  CD2      -22.1310  -68.0280   97.5730 C.ar  122  TYR122     -0.0009
     38  CE1      -21.5250  -68.9000  100.1490 C.ar  122  TYR122      0.0417
     39  CE2      -20.8760  -68.5770   97.8390 C.ar  122  TYR122      0.0417
     40  CZ       -20.5830  -68.9990   99.1330 C.ar  122  TYR122      0.1957
     41  OH       -19.3580  -69.5070   99.4150 O.3   122  TYR122     -0.2866
     42  N        -26.9730  -64.7190   94.8300 N.3   124  TRP124     -0.1227
     43  CA       -28.1980  -65.2430   94.2530 C.3   124  TRP124      0.1737
     44  C        -28.9280  -66.2400   95.1450 C.2   124  TRP124      0.2595
     45  O        -30.1590  -66.2220   95.2110 O.2   124  TRP124     -0.2718
     46  CB       -28.0690  -65.6700   92.7630 C.3   124  TRP124      0.0564
     47  CG       -27.4360  -66.9980   92.3890 C.ar  124  TRP124      0.0003
     48  CD1      -26.3070  -67.5670   92.8990 C.ar  124  TRP124      0.0946
     49  CD2      -27.8800  -67.8600   91.3360 C.ar  124  TRP124      0.0152
     50  NE1      -26.0190  -68.7430   92.2340 N.ar  124  TRP124     -0.2442
     51  CE2      -26.9720  -68.9390   91.2630 C.ar  124  TRP124      0.0810
     52  CE3      -28.9650  -67.8160   90.4400 C.ar  124  TRP124      0.0012
     53  CZ2      -27.1210  -69.9750   90.3390 C.ar  124  TRP124      0.0191
     54  CZ3      -29.1150  -68.8410   89.5330 C.ar  124  TRP124      0.0001
     55  CH2      -28.2120  -69.9130   89.4930 C.ar  124  TRP124      0.0015
     56  N        -28.1940  -67.0680   95.8840 N.am  125  ASP125     -0.1974
     57  CA       -28.8630  -67.9620   96.8260 C.3   125  ASP125      0.1709
     58  C        -29.8120  -67.2140   97.7490 C.2   125  ASP125      0.2293
     59  O        -30.8680  -67.7370   98.1390 O.2   125  ASP125     -0.2864
     60  CB       -27.8590  -68.6810   97.7160 C.3   125  ASP125      0.1436
     61  CG       -26.8540  -69.5160   96.9410 C.2   125  ASP125      0.3671
     62  OD1      -26.6960  -70.7300   97.2810 O.co2 125  ASP125     -0.2456
     63  OD2      -26.1930  -68.9550   96.0260 O.co2 125  ASP125     -0.2456
     64  N        -22.5800  -61.7100   91.2060 N.3   172  GLN172     -0.1245
     65  CA       -23.3020  -62.9540   90.8990 C.3   172  GLN172      0.1566
     66  C        -24.6000  -62.5690   90.1610 C.2   172  GLN172      0.2260
     67  O        -24.8720  -61.3980   89.9850 O.2   172  GLN172     -0.2867
     68  CB       -23.6100  -63.7860   92.1590 C.3   172  GLN172      0.0367
     69  CG       -22.8380  -65.1260   92.2490 C.3   172  GLN172      0.0905
     70  CD       -23.3960  -66.0800   93.3410 C.2   172  GLN172      0.2608
     71  OE1      -24.1200  -65.6550   94.2510 O.2   172  GLN172     -0.2717
     72  NE2      -23.0610  -67.3590   93.2370 N.am  172  GLN172     -0.0878
     73  N        -22.7840  -68.1520   88.5690 N.3   275  GLY275     -0.1225
     74  CA       -23.4520  -69.1240   89.4460 C.3   275  GLY275      0.1811
     75  C        -23.3330  -70.5470   88.9000 C.2   275  GLY275      0.2280
     76  O        -23.3980  -71.5130   89.6460 O.2   275  GLY275     -0.2866
     77  N        -20.8370  -72.5420   87.9000 N.3   277  ASP277     -0.1239
     78  CA       -19.5170  -73.1640   87.9160 C.3   277  ASP277      0.1674
     79  C        -19.6860  -74.6470   88.2510 C.2   277  ASP277      0.2266
     80  O        -19.9140  -74.9770   89.4220 O.2   277  ASP277     -0.2867
     81  CB       -18.6050  -72.4640   88.9420 C.3   277  ASP277      0.1410
     82  CG       -19.2780  -72.2310   90.3240 C.2   277  ASP277      0.3668
     83  OD1      -20.3300  -71.5540   90.4160 O.co2 277  ASP277     -0.2456
     84  OD2      -18.7000  -72.7170   91.3310 O.co2 277  ASP277     -0.2456
     85  N        -21.3150  -79.7710   87.5030 N.3   411  GLN411     -0.1231
     86  CA       -22.5240  -79.5740   88.3280 C.3   411  GLN411      0.1698
     87  C        -23.7110  -78.9020   87.6540 C.2   411  GLN411      0.2592
     88  O        -24.8580  -79.2650   87.9300 O.2   411  GLN411     -0.2718
     89  CB       -22.1600  -78.8100   89.5940 C.3   411  GLN411      0.0381
     90  CG       -21.1650  -79.5470   90.4260 C.3   411  GLN411      0.0905
     91  CD       -21.3120  -79.2130   91.8800 C.2   411  GLN411      0.2608
     92  OE1      -22.2270  -79.7040   92.5570 O.2   411  GLN411     -0.2717
     93  NE2      -20.4240  -78.3680   92.3800 N.am  411  GLN411     -0.0878
     94  N        -23.4620  -77.9160   86.7890 N.am  412  TRP412     -0.1976
     95  CA       -24.5600  -77.2150   86.1260 C.3   412  TRP412      0.1640
     96  C        -24.8190  -77.8480   84.7330 C.2   412  TRP412      0.2290
     97  O        -24.5620  -77.2340   83.6920 O.2   412  TRP412     -0.2864
     98  CB       -24.3330  -75.6750   86.1180 C.3   412  TRP412      0.0576
     99  CG       -24.4420  -75.1760   87.5530 C.ar  412  TRP412      0.0006
    100  CD1      -23.5070  -75.3290   88.5370 C.ar  412  TRP412      0.0946
    101  CD2      -25.5750  -74.5590   88.1700 C.ar  412  TRP412      0.0152
    102  NE1      -23.9840  -74.8310   89.7150 N.ar  412  TRP412     -0.2442
    103  CE2      -25.2510  -74.3500   89.5200 C.ar  412  TRP412      0.0810
    104  CE3      -26.8300  -74.1650   87.7110 C.ar  412  TRP412      0.0012
    105  CZ2      -26.1480  -73.7600   90.4320 C.ar  412  TRP412      0.0191
    106  CZ3      -27.7170  -73.5730   88.5970 C.ar  412  TRP412      0.0001
    107  CH2      -27.3710  -73.3800   89.9540 C.ar  412  TRP412      0.0015
    108  N        -31.2570  -77.9480   90.0910 N.3   418  TRP418     -0.1241
    109  CA       -30.9430  -76.9200   91.0740 C.3   418  TRP418      0.1605
    110  C        -32.2100  -76.1490   91.4020 C.2   418  TRP418      0.2264
    111  O        -32.8840  -75.6430   90.4930 O.2   418  TRP418     -0.2867
    112  CB       -29.9010  -75.9750   90.4840 C.3   418  TRP418      0.0550
    113  CG       -28.5320  -76.6300   90.4250 C.ar  418  TRP418      0.0003
    114  CD1      -27.9900  -77.2850   89.3700 C.ar  418  TRP418      0.0946
    115  CD2      -27.5640  -76.7160   91.4880 C.ar  418  TRP418      0.0152
    116  NE1      -26.7360  -77.7610   89.6880 N.ar  418  TRP418     -0.2442
    117  CE2      -26.4400  -77.3990   90.9730 C.ar  418  TRP418      0.0810
    118  CE3      -27.5220  -76.2330   92.8050 C.ar  418  TRP418      0.0012
    119  CZ2      -25.2870  -77.6480   91.7330 C.ar  418  TRP418      0.0191
    120  CZ3      -26.3730  -76.4660   93.5580 C.ar  418  TRP418      0.0001
    121  CH2      -25.2710  -77.1790   93.0140 C.ar  418  TRP418      0.0015
    122  N        -28.0730  -79.3300   98.4470 N.3   461  GLU461     -0.1245
    123  CA       -27.8910  -78.1980   97.5300 C.3   461  GLU461      0.1567
    124  C        -28.4830  -78.4330   96.1310 C.2   461  GLU461      0.2260
    125  O        -28.9710  -77.4930   95.4710 O.2   461  GLU461     -0.2867
    126  CB       -26.3970  -77.7950   97.4640 C.3   461  GLU461      0.0388
    127  CG       -25.4910  -78.8200   96.8330 C.3   461  GLU461      0.1160
    128  CD       -23.9790  -78.5060   96.9880 C.2   461  GLU461      0.3649
    129  OE1      -23.5350  -77.3880   96.6010 O.co2 461  GLU461     -0.2457
    130  OE2      -23.2220  -79.4200   97.4250 O.co2 461  GLU461     -0.2457
    131  N        -15.8430  -80.9530   95.8740 N.3   469  TYR469     -0.1241
    132  CA       -16.3420  -80.9530   97.2620 C.3   469  TYR469      0.1605
    133  C        -17.6170  -81.8280   97.3980 C.2   469  TYR469      0.2264
    134  O        -18.4400  -81.9140   96.4890 O.2   469  TYR469     -0.2867
    135  CB       -16.5710  -79.5030   97.7550 C.3   469  TYR469      0.0534
    136  CG       -17.7510  -78.7970   97.0950 C.ar  469  TYR469     -0.0201
    137  CD1      -19.0410  -78.9780   97.5880 C.ar  469  TYR469     -0.0009
    138  CD2      -17.5840  -77.9590   95.9850 C.ar  469  TYR469     -0.0009
    139  CE1      -20.1300  -78.3670   97.0140 C.ar  469  TYR469      0.0417
    140  CE2      -18.7050  -77.3290   95.3760 C.ar  469  TYR469      0.0417
    141  CZ       -19.9780  -77.5530   95.9190 C.ar  469  TYR469      0.1957
    142  OH       -21.1290  -76.9860   95.3990 O.3   469  TYR469     -0.2866
    143  N        -30.7450  -76.5740  103.0890 N.3   475  PHE475     -0.1241
    144  CA       -29.7430  -75.8540  102.3100 C.3   475  PHE475      0.1605
    145  C        -30.4840  -74.6600  101.7330 C.2   475  PHE475      0.2264
    146  O        -31.5130  -74.8360  101.0890 O.2   475  PHE475     -0.2867
    147  CB       -29.1690  -76.7140  101.1710 C.3   475  PHE475      0.0534
    148  CG       -28.0130  -76.0540  100.4650 C.ar  475  PHE475     -0.0203
    149  CD1      -26.7340  -76.2100  100.9330 C.ar  475  PHE475     -0.0042
    150  CD2      -28.2330  -75.2480   99.3720 C.ar  475  PHE475     -0.0042
    151  CE1      -25.6740  -75.5850  100.3290 C.ar  475  PHE475     -0.0003
    152  CE2      -27.1830  -74.6110   98.7430 C.ar  475  PHE475     -0.0003
    153  CZ       -25.8950  -74.7900   99.2120 C.ar  475  PHE475     -0.0000
    154  N        -31.2830  -72.1960   99.3830 N.3   477  TRP477     -0.1241
    155  CA       -32.2260  -72.0000   98.3030 C.3   477  TRP477      0.1605
    156  C        -33.1740  -73.2010   98.0840 C.2   477  TRP477      0.2264
    157  O        -34.2980  -73.0140   97.6350 O.2   477  TRP477     -0.2867
    158  CB       -31.5590  -71.5270   97.0030 C.3   477  TRP477      0.0550
    159  CG       -30.4730  -72.4160   96.3710 C.ar  477  TRP477      0.0003
    160  CD1      -30.2420  -73.7620   96.5700 C.ar  477  TRP477      0.0946
    161  CD2      -29.5420  -71.9900   95.3630 C.ar  477  TRP477      0.0152
    162  NE1      -29.1760  -74.1780   95.7650 N.ar  477  TRP477     -0.2442
    163  CE2      -28.7450  -73.1050   95.0170 C.ar  477  TRP477      0.0810
    164  CE3      -29.3100  -70.7640   94.7190 C.ar  477  TRP477      0.0012
    165  CZ2      -27.7050  -73.0150   94.0810 C.ar  477  TRP477      0.0191
    166  CZ3      -28.2830  -70.6830   93.7760 C.ar  477  TRP477      0.0001
    167  CH2      -27.4970  -71.8000   93.4700 C.ar  477  TRP477      0.0015
@<TRIPOS>BOND
     1    97    96    2
     2    96    95    1
     3    98    95    1
     4    98    99    1
     5    95    94    1
     6    94    87   am
     7    85    86    1
     8    99   101   ar
     9    99   100   ar
    10    87    88    2
    11    87    86    1
    12   104   101   ar
    13   104   106   ar
    14    77    78    1
    15    78    79    1
    16    78    81    1
    17   101   103   ar
    18    79    80    2
    19    86    89    1
    20   100   102   ar
    21    73    74    1
    22   106   107   ar
    23    75    74    1
    24    75    76    2
    25    81    82    1
    26   114   116   ar
    27   114   113   ar
    28    55    54   ar
    29    55    53   ar
    30   103   102   ar
    31   103   105   ar
    32    54    52   ar
    33    89    90    1
    34   116   117   ar
    35   107   105   ar
    36    67    66    2
    37   108   109    1
    38    66    65    1
    39    82    83   ar
    40    82    84   ar
    41    53    51   ar
    42   113   112    1
    43   113   115   ar
    44    90    91    1
    45    52    49   ar
    46   112   109    1
    47   111   110    2
    48    65    64    1
    49    65    68    1
    50   117   115   ar
    51   117   119   ar
    52   109   110    1
    53    51    49   ar
    54    51    50   ar
    55    49    47   ar
    56   115   118   ar
    57   119   121   ar
    58    91    93   am
    59    91    92    2
    60    68    69    1
    61    50    48   ar
    62    69    70    1
    63    47    46    1
    64    47    48   ar
    65    46    43    1
    66   118   120   ar
    67   121   120   ar
    68    72    70   am
    69    70    71    2
    70   167   166   ar
    71   167   165   ar
    72   166   164   ar
    73   165   163   ar
    74    43    42    1
    75    43    44    1
    76   164   161   ar
    77   163   161   ar
    78   163   162   ar
    79    44    45    2
    80    44    56   am
    81   161   159   ar
    82   140   141   ar
    83   140   138   ar
    84   142   141    1
    85   125   124    2
    86   162   160   ar
    87   131   132    1
    88    56    57    1
    89   141   139   ar
    90   138   136   ar
    91    63    61   ar
    92   124   123    1
    93   159   160   ar
    94   159   158    1
    95   134   133    2
    96   129   128   ar
    97    57    60    1
    98    57    58    1
    99   127   128    1
   100   127   126    1
   101    61    62   ar
   102    61    60    1
   103   128   130   ar
   104   158   155    1
   105   139   137   ar
   106   136   137   ar
   107   136   135    1
   108   132   133    1
   109   132   135    1
   110   126   123    1
   111   123   122    1
   112    37    39   ar
   113    37    35   ar
   114   157   156    2
   115    58    59    2
   116    39    40   ar
   117    17    16    1
   118   156   155    1
   119    32    33    2
   120    32    31    1
   121    29    27   ar
   122    29    28   ar
   123    34    35    1
   124    34    31    1
   125   155   154    1
   126    18    16    1
   127    35    36   ar
   128    27    25   ar
   129   152   153   ar
   130   152   150   ar
   131    31    30    1
   132    16    15    2
   133    28    26   ar
   134    40    41    1
   135    40    38   ar
   136   153   151   ar
   137   150   148   ar
   138    25    24   ar
   139    36    38   ar
   140    15    14    1
   141    26    24   ar
   142    14    13    1
   143   151   149   ar
   144   148   149   ar
   145   148   147    1
   146    24    23    1
   147     6     5    1
   148     6     7    1
   149   146   145    2
   150   147   144    1
   151     5     2    1
   152    13    12    1
   153    23    20    1
   154   145   144    1
   155     7     1    1
   156   144   143    1
   157     2     1    1
   158     2     3    1
   159    12     9    1
   160    20    19    1
   161    20    21    1
   162    19    10   am
   163     3     4    2
   164    11    10    2
   165    10     9    1
   166     9     8    1
   167    21    22    2
