@<TRIPOS>MOLECULE
tmp/2wynD01.pdb
 134 126 0 0 0
SMALL
GASTEIGER

@<TRIPOS>ATOM
      1  N        -11.2200  -74.6260  100.2890 N.3    29  LYS29      -0.1245
      2  CA       -11.8530  -73.4660  100.9070 C.3    29  LYS29       0.1561
      3  C        -11.4620  -73.2920  102.3870 C.2    29  LYS29       0.2260
      4  O        -11.4470  -72.1750  102.9260 O.2    29  LYS29      -0.2867
      5  CB       -13.3870  -73.5520  100.7640 C.3    29  LYS29       0.0271
      6  CG       -14.1300  -72.2870  101.1880 C.3    29  LYS29       0.0035
      7  CD       -15.6600  -72.4270  100.9680 C.3    29  LYS29       0.0206
      8  CE       -16.3560  -71.1200  101.3300 C.3    29  LYS29       0.1093
      9  NZ       -16.4760  -70.9720  102.8360 N.3    29  LYS29      -0.1314
     10  N        -20.2010  -76.1330  103.9830 N.3   117  ARG117     -0.1231
     11  CA       -18.9370  -75.3980  103.8210 C.3   117  ARG117      0.1694
     12  C        -19.1910  -73.9330  103.4460 C.2   117  ARG117      0.2592
     13  O        -18.2710  -73.1050  103.4420 O.2   117  ARG117     -0.2718
     14  CB       -18.0790  -76.0590  102.7380 C.3   117  ARG117      0.0321
     15  CG       -18.7070  -75.9000  101.3300 C.3   117  ARG117      0.0489
     16  CD       -18.1090  -76.8520  100.2950 C.3   117  ARG117      0.2205
     17  NE       -16.7130  -76.5780   99.9120 N.pl3 117  ARG117     -0.0865
     18  CZ       -16.3640  -75.9380   98.7930 C.cat 117  ARG117      0.5346
     19  NH1      -17.2930  -75.4380   97.9740 N.pl3 117  ARG117      0.1354
     20  NH2      -15.0940  -75.7700   98.4970 N.pl3 117  ARG117      0.1354
     21  N        -20.4350  -73.6070  103.1110 N.am  118  PHE118     -0.1976
     22  CA       -20.7660  -72.2400  102.7410 C.3   118  PHE118      0.1639
     23  C        -21.1350  -71.4450  104.0000 C.2   118  PHE118      0.2290
     24  O        -22.3140  -71.3510  104.3770 O.2   118  PHE118     -0.2864
     25  CB       -21.8570  -72.2160  101.6640 C.3   118  PHE118      0.0560
     26  CG       -21.5150  -73.0660  100.4680 C.ar  118  PHE118     -0.0200
     27  CD1      -20.4280  -72.7340   99.6580 C.ar  118  PHE118     -0.0042
     28  CD2      -22.2340  -74.2250  100.1860 C.ar  118  PHE118     -0.0042
     29  CE1      -20.0560  -73.5460   98.5830 C.ar  118  PHE118     -0.0003
     30  CE2      -21.8760  -75.0370   99.0810 C.ar  118  PHE118     -0.0003
     31  CZ       -20.7930  -74.6790   98.2870 C.ar  118  PHE118     -0.0000
     32  N        -24.4900  -65.6980  100.2340 N.3   122  TYR122     -0.1241
     33  CA       -24.3270  -65.7820   98.7920 C.3   122  TYR122      0.1605
     34  C        -25.3570  -64.8930   98.1260 C.2   122  TYR122      0.2264
     35  O        -26.5280  -64.8900   98.5270 O.2   122  TYR122     -0.2867
     36  CB       -24.4110  -67.2550   98.2880 C.3   122  TYR122      0.0534
     37  CG       -23.1000  -67.9190   98.5620 C.ar  122  TYR122     -0.0201
     38  CD1      -22.7860  -68.3410   99.8550 C.ar  122  TYR122     -0.0009
     39  CD2      -22.1310  -68.0280   97.5730 C.ar  122  TYR122     -0.0009
     40  CE1      -21.5250  -68.9000  100.1490 C.ar  122  TYR122      0.0417
     41  CE2      -20.8760  -68.5770   97.8390 C.ar  122  TYR122      0.0417
     42  CZ       -20.5830  -68.9990   99.1330 C.ar  122  TYR122      0.1957
     43  OH       -19.3580  -69.5070   99.4150 O.3   122  TYR122     -0.2866
     44  N        -19.8830  -61.8310   95.1920 N.3   161  ASN161     -0.1240
     45  CA       -20.3700  -63.2140   95.1190 C.3   161  ASN161      0.1653
     46  C        -20.8360  -63.6790   96.5050 C.2   161  ASN161      0.2266
     47  O        -21.8930  -64.3050   96.6620 O.2   161  ASN161     -0.2867
     48  CB       -19.2260  -64.0710   94.5470 C.3   161  ASN161      0.1155
     49  CG       -19.6020  -65.5240   94.3340 C.2   161  ASN161      0.2627
     50  OD1      -20.4800  -66.0900   95.0130 O.2   161  ASN161     -0.2716
     51  ND2      -18.9230  -66.1450   93.4100 N.am  161  ASN161     -0.0877
     52  N        -14.0800  -63.0540   97.1710 N.3   167  TYR167     -0.1241
     53  CA       -15.2530  -62.8780   96.3150 C.3   167  TYR167      0.1605
     54  C        -15.4500  -61.4360   95.8610 C.2   167  TYR167      0.2264
     55  O        -16.3770  -61.1470   95.1180 O.2   167  TYR167     -0.2867
     56  CB       -16.5230  -63.2910   97.0560 C.3   167  TYR167      0.0534
     57  CG       -16.7010  -64.7710   97.2590 C.ar  167  TYR167     -0.0201
     58  CD1      -16.1160  -65.6980   96.3820 C.ar  167  TYR167     -0.0009
     59  CD2      -17.5090  -65.2520   98.2980 C.ar  167  TYR167     -0.0009
     60  CE1      -16.3070  -67.0890   96.5560 C.ar  167  TYR167      0.0417
     61  CE2      -17.7160  -66.6310   98.4660 C.ar  167  TYR167      0.0417
     62  CZ       -17.0990  -67.5350   97.5990 C.ar  167  TYR167      0.1957
     63  OH       -17.2830  -68.9000   97.7830 O.3   167  TYR167     -0.2866
     64  N        -15.7200  -60.1040   92.0260 N.3   170  ARG170     -0.1245
     65  CA       -16.8990  -60.3990   91.1930 C.3   170  ARG170      0.1563
     66  C        -18.2230  -60.2520   91.9360 C.2   170  ARG170      0.2260
     67  O        -18.2440  -60.0960   93.1550 O.2   170  ARG170     -0.2867
     68  CB       -16.8230  -61.8260   90.6460 C.3   170  ARG170      0.0307
     69  CG       -16.6470  -62.9140   91.7310 C.3   170  ARG170      0.0489
     70  CD       -16.6960  -64.3390   91.0580 C.3   170  ARG170      0.2205
     71  NE       -16.5100  -65.4690   91.9820 N.pl3 170  ARG170     -0.0865
     72  CZ       -15.3220  -65.9460   92.3820 C.cat 170  ARG170      0.5346
     73  NH1      -14.1910  -65.3870   91.9530 N.pl3 170  ARG170      0.1354
     74  NH2      -15.2650  -66.9880   93.2270 N.pl3 170  ARG170      0.1354
     75  N        -22.5800  -61.7100   91.2060 N.3   172  GLN172     -0.1245
     76  CA       -23.3020  -62.9540   90.8990 C.3   172  GLN172      0.1566
     77  C        -24.6000  -62.5690   90.1610 C.2   172  GLN172      0.2260
     78  O        -24.8720  -61.3980   89.9850 O.2   172  GLN172     -0.2867
     79  CB       -23.6100  -63.7860   92.1590 C.3   172  GLN172      0.0367
     80  CG       -22.8380  -65.1260   92.2490 C.3   172  GLN172      0.0905
     81  CD       -23.3960  -66.0800   93.3410 C.2   172  GLN172      0.2608
     82  OE1      -24.1200  -65.6550   94.2510 O.2   172  GLN172     -0.2717
     83  NE2      -23.0610  -67.3590   93.2370 N.am  172  GLN172     -0.0878
     84  N         -8.6340  -69.1070   91.7360 N.3   242  ARG242     -0.1245
     85  CA        -9.4960  -68.8000   92.8800 C.3   242  ARG242      0.1563
     86  C         -8.8790  -69.3760   94.1730 C.2   242  ARG242      0.2260
     87  O         -8.6080  -70.5940   94.2690 O.2   242  ARG242     -0.2867
     88  CB       -10.9140  -69.4010   92.6920 C.3   242  ARG242      0.0307
     89  CG       -11.7100  -68.8500   91.4800 C.3   242  ARG242      0.0489
     90  CD       -13.0010  -69.6760   91.2730 C.3   242  ARG242      0.2205
     91  NE       -12.6660  -71.0380   90.8670 N.pl3 242  ARG242     -0.0865
     92  CZ       -13.5070  -72.0710   90.8790 C.cat 242  ARG242      0.5346
     93  NH1      -14.7670  -71.9180   91.3190 N.pl3 242  ARG242      0.1354
     94  NH2      -13.0830  -73.2530   90.4270 N.pl3 242  ARG242      0.1354
     95  N        -10.2470  -70.1430   96.9130 N.3   244  GLU244     -0.1231
     96  CA       -11.0880  -71.2250   97.4280 C.3   244  GLU244      0.1699
     97  C        -11.1160  -72.4970   96.5510 C.2   244  GLU244      0.2592
     98  O        -11.6780  -73.5170   96.9590 O.2   244  GLU244     -0.2718
     99  CB       -12.4980  -70.6830   97.7340 C.3   244  GLU244      0.0402
    100  CG       -13.4440  -70.4490   96.5130 C.3   244  GLU244      0.1161
    101  CD       -13.0820  -69.2460   95.6010 C.2   244  GLU244      0.3649
    102  OE1      -12.0270  -68.5660   95.8150 O.co2 244  GLU244     -0.2457
    103  OE2      -13.8850  -68.9560   94.6740 O.co2 244  GLU244     -0.2457
    104  N        -10.4710  -72.4570   95.3880 N.am  245  SER245     -0.1952
    105  CA       -10.3500  -73.6280   94.4880 C.3   245  SER245      0.1924
    106  C         -8.9680  -73.6240   93.8470 C.2   245  SER245      0.2314
    107  O         -8.8070  -73.9110   92.6470 O.2   245  SER245     -0.2863
    108  CB       -11.3960  -73.5520   93.3730 C.3   245  SER245      0.2116
    109  OG       -12.6800  -73.2750   93.9180 O.3   245  SER245     -0.2180
    110  N        -17.8350  -68.6830   87.8280 N.3   272  ALA272     -0.1245
    111  CA       -18.2560  -68.6200   89.2480 C.3   272  ALA272      0.1562
    112  C        -19.1610  -67.4180   89.3960 C.2   272  ALA272      0.2260
    113  O        -20.1690  -67.5090   90.0970 O.2   272  ALA272     -0.2867
    114  CB       -17.0670  -68.5190   90.2160 C.3   272  ALA272      0.0290
    115  N        -20.8370  -72.5420   87.9000 N.3   277  ASP277     -0.1239
    116  CA       -19.5170  -73.1640   87.9160 C.3   277  ASP277      0.1674
    117  C        -19.6860  -74.6470   88.2510 C.2   277  ASP277      0.2266
    118  O        -19.9140  -74.9770   89.4220 O.2   277  ASP277     -0.2867
    119  CB       -18.6050  -72.4640   88.9420 C.3   277  ASP277      0.1410
    120  CG       -19.2780  -72.2310   90.3240 C.2   277  ASP277      0.3668
    121  OD1      -20.3300  -71.5540   90.4160 O.co2 277  ASP277     -0.2456
    122  OD2      -18.7000  -72.7170   91.3310 O.co2 277  ASP277     -0.2456
    123  N        -15.8430  -80.9530   95.8740 N.3   469  TYR469     -0.1241
    124  CA       -16.3420  -80.9530   97.2620 C.3   469  TYR469      0.1605
    125  C        -17.6170  -81.8280   97.3980 C.2   469  TYR469      0.2264
    126  O        -18.4400  -81.9140   96.4890 O.2   469  TYR469     -0.2867
    127  CB       -16.5710  -79.5030   97.7550 C.3   469  TYR469      0.0534
    128  CG       -17.7510  -78.7970   97.0950 C.ar  469  TYR469     -0.0201
    129  CD1      -19.0410  -78.9780   97.5880 C.ar  469  TYR469     -0.0009
    130  CD2      -17.5840  -77.9590   95.9850 C.ar  469  TYR469     -0.0009
    131  CE1      -20.1300  -78.3670   97.0140 C.ar  469  TYR469      0.0417
    132  CE2      -18.7050  -77.3290   95.3760 C.ar  469  TYR469      0.0417
    133  CZ       -19.9780  -77.5530   95.9190 C.ar  469  TYR469      0.1957
    134  OH       -21.1290  -76.9860   95.3990 O.3   469  TYR469     -0.2866
@<TRIPOS>BOND
     1   110   111    1
     2   115   116    1
     3   116   117    1
     4   116   119    1
     5   117   118    2
     6   119   120    1
     7   111   112    1
     8   111   114    1
     9   112   113    2
    10    78    77    2
    11    77    76    1
    12   120   121   ar
    13   120   122   ar
    14    94    92    1
    15    68    65    1
    16    68    69    1
    17    91    92    2
    18    91    90    1
    19    92    93    1
    20    76    75    1
    21    76    79    1
    22    70    69    1
    23    70    71    1
    24    65    66    1
    25    65    64    1
    26    90    89    1
    27    89    88    1
    28    84    85    1
    29    66    67    2
    30    73    72    1
    31    71    72    2
    32    79    80    1
    33    80    81    1
    34    72    74    1
    35   107   106    2
    36    88    85    1
    37    85    86    1
    38    83    81   am
    39    81    82    2
    40   108   109    1
    41   108   105    1
    42    51    49   am
    43   106   105    1
    44    86    87    2
    45    49    48    1
    46    49    50    2
    47   105   104    1
    48    48    45    1
    49   103   101   ar
    50    55    54    2
    51    45    44    1
    52    45    46    1
    53   132   133   ar
    54   132   130   ar
    55   104    97   am
    56   134   133    1
    57   101   102   ar
    58   101   100    1
    59    54    53    1
    60   123   124    1
    61   133   131   ar
    62   130   128   ar
    63    53    56    1
    64    53    52    1
    65    58    60   ar
    66    58    57   ar
    67   126   125    2
    68    46    47    2
    69   100    99    1
    70    97    98    2
    71    97    96    1
    72    60    62   ar
    73    95    96    1
    74   131   129   ar
    75    56    57    1
    76   128   129   ar
    77   128   127    1
    78    57    59   ar
    79   124   125    1
    80   124   127    1
    81    96    99    1
    82    39    41   ar
    83    39    37   ar
    84    62    63    1
    85    62    61   ar
    86    41    42   ar
    87    19    18    1
    88    34    35    2
    89    34    33    1
    90    31    29   ar
    91    31    30   ar
    92    36    37    1
    93    36    33    1
    94    59    61   ar
    95    20    18    1
    96    37    38   ar
    97    29    27   ar
    98    33    32    1
    99    18    17    2
   100    30    28   ar
   101    42    43    1
   102    42    40   ar
   103    27    26   ar
   104    38    40   ar
   105    17    16    1
   106    28    26   ar
   107     1     2    1
   108    16    15    1
   109    26    25    1
   110     5     2    1
   111     5     6    1
   112     2     3    1
   113     7     6    1
   114     7     8    1
   115    15    14    1
   116     8     9    1
   117    25    22    1
   118     3     4    2
   119    14    11    1
   120    22    21    1
   121    22    23    1
   122    21    12   am
   123    13    12    2
   124    12    11    1
   125    11    10    1
   126    23    24    2
