@<TRIPOS>MOLECULE
tmp/2wynC00.pdb
 167 167 0 0 0
SMALL
GASTEIGER

@<TRIPOS>ATOM
      1  N         27.1740  -62.7760   23.6620 N.3   112  PRO112     -0.2116
      2  CA        27.8020  -63.9960   24.1660 C.3   112  PRO112      0.1372
      3  C         27.8430  -65.1970   23.1730 C.2   112  PRO112      0.2244
      4  O         28.8130  -65.9660   23.1910 O.2   112  PRO112     -0.2868
      5  CB        26.9660  -64.3280   25.4110 C.3   112  PRO112      0.0268
      6  CG        26.4890  -62.9490   25.9070 C.3   112  PRO112      0.0207
      7  CD        26.1660  -62.2330   24.5900 C.3   112  PRO112      0.0892
      8  N         21.6990  -68.3860   21.9930 N.3   115  ARG115     -0.1231
      9  CA        20.3880  -67.7440   22.1830 C.3   115  ARG115      0.1694
     10  C         20.5660  -66.3510   22.7620 C.2   115  ARG115      0.2592
     11  O         19.6060  -65.5640   22.8570 O.2   115  ARG115     -0.2718
     12  CB        19.5060  -68.5940   23.1160 C.3   115  ARG115      0.0321
     13  CG        20.0450  -68.6530   24.5290 C.3   115  ARG115      0.0489
     14  CD        19.3810  -69.7170   25.3980 C.3   115  ARG115      0.2205
     15  NE        17.9720  -69.4860   25.7410 N.pl3 115  ARG115     -0.0865
     16  CZ        17.5430  -68.9440   26.8820 C.cat 115  ARG115      0.5346
     17  NH1       18.4010  -68.5080   27.7960 N.pl3 115  ARG115      0.1354
     18  NH2       16.2480  -68.8150   27.1120 N.pl3 115  ARG115      0.1354
     19  N         21.8050  -66.0220   23.1200 N.am  116  PHE116     -0.1976
     20  CA        22.0800  -64.7050   23.6430 C.3   116  PHE116      0.1639
     21  C         22.4690  -63.7620   22.5130 C.2   116  PHE116      0.2290
     22  O         23.6510  -63.5800   22.2300 O.2   116  PHE116     -0.2864
     23  CB        23.1300  -64.8020   24.7550 C.3   116  PHE116      0.0560
     24  CG        22.7340  -65.7620   25.8190 C.ar  116  PHE116     -0.0200
     25  CD1       21.5950  -65.5160   26.5820 C.ar  116  PHE116     -0.0042
     26  CD2       23.4150  -66.9540   25.9920 C.ar  116  PHE116     -0.0042
     27  CE1       21.1680  -66.4370   27.5330 C.ar  116  PHE116     -0.0003
     28  CE2       23.0050  -67.8620   26.9550 C.ar  116  PHE116     -0.0003
     29  CZ        21.8730  -67.6040   27.7290 C.ar  116  PHE116     -0.0000
     30  N         25.3280  -58.2720   26.8440 N.3   120  TYR120     -0.1241
     31  CA        25.1300  -58.5590   28.2800 C.3   120  TYR120      0.1605
     32  C         26.1220  -57.7490   29.1100 C.2   120  TYR120      0.2264
     33  O         27.3260  -57.7080   28.7920 O.2   120  TYR120     -0.2867
     34  CB        25.2320  -60.0630   28.6100 C.3   120  TYR120      0.0534
     35  CG        23.9440  -60.7450   28.2340 C.ar  120  TYR120     -0.0201
     36  CD1       23.6800  -61.0540   26.9040 C.ar  120  TYR120     -0.0009
     37  CD2       22.9630  -60.9920   29.1800 C.ar  120  TYR120     -0.0009
     38  CE1       22.4780  -61.6210   26.5140 C.ar  120  TYR120      0.0417
     39  CE2       21.7420  -61.5560   28.8110 C.ar  120  TYR120      0.0417
     40  CZ        21.4960  -61.8540   27.4680 C.ar  120  TYR120      0.1957
     41  OH        20.2950  -62.4040   27.0700 O.3   120  TYR120     -0.2866
     42  N         27.5930  -57.7610   32.4550 N.3   122  TRP122     -0.1227
     43  CA        28.8520  -58.2620   33.0370 C.3   122  TRP122      0.1737
     44  C         29.6430  -59.1630   32.0820 C.2   122  TRP122      0.2595
     45  O         30.8880  -59.0630   32.0550 O.2   122  TRP122     -0.2718
     46  CB        28.7480  -58.8290   34.5010 C.3   122  TRP122      0.0564
     47  CG        28.1320  -60.1940   34.7290 C.ar  122  TRP122      0.0003
     48  CD1       27.0370  -60.7390   34.0840 C.ar  122  TRP122      0.0946
     49  CD2       28.5390  -61.1710   35.7070 C.ar  122  TRP122      0.0152
     50  NE1       26.7480  -61.9890   34.6030 N.ar  122  TRP122     -0.2442
     51  CE2       27.6610  -62.2860   35.5820 C.ar  122  TRP122      0.0810
     52  CE3       29.5750  -61.2270   36.6590 C.ar  122  TRP122      0.0012
     53  CZ2       27.7750  -63.4230   36.3870 C.ar  122  TRP122      0.0191
     54  CZ3       29.6930  -62.3570   37.4550 C.ar  122  TRP122      0.0001
     55  CH2       28.7920  -63.4400   37.3160 C.ar  122  TRP122      0.0015
     56  N         28.9620  -59.9680   31.2560 N.am  123  ASP123     -0.1974
     57  CA        29.6990  -60.7820   30.2930 C.3   123  ASP123      0.1709
     58  C         30.6190  -59.8880   29.4810 C.2   123  ASP123      0.2293
     59  O         31.7260  -60.3110   29.0700 O.2   123  ASP123     -0.2864
     60  CB        28.8000  -61.4680   29.2730 C.3   123  ASP123      0.1436
     61  CG        27.7610  -62.3420   29.8880 C.2   123  ASP123      0.3671
     62  OD1       27.6810  -63.5170   29.4640 O.co2 123  ASP123     -0.2456
     63  OD2       26.9760  -61.8350   30.7320 O.co2 123  ASP123     -0.2456
     64  N         22.9190  -55.3760   36.1850 N.3   170  GLN170     -0.1245
     65  CA        23.6780  -56.6250   36.3950 C.3   170  GLN170      0.1566
     66  C         24.8960  -56.2510   37.2070 C.2   170  GLN170      0.2260
     67  O         25.0610  -55.0760   37.5180 O.2   170  GLN170     -0.2867
     68  CB        24.0900  -57.2520   35.0680 C.3   170  GLN170      0.0367
     69  CG        23.2810  -58.5370   34.7170 C.3   170  GLN170      0.0905
     70  CD        23.9350  -59.3520   33.6330 C.2   170  GLN170      0.2608
     71  OE1       24.8470  -58.8760   32.9200 O.2   170  GLN170     -0.2717
     72  NE2       23.4830  -60.5960   33.4890 N.am  170  GLN170     -0.0878
     73  N         23.2940  -61.8680   38.1230 N.3   273  GLY273     -0.1225
     74  CA        24.0700  -62.7860   37.2680 C.3   273  GLY273      0.1811
     75  C         23.9860  -64.2660   37.6520 C.2   273  GLY273      0.2280
     76  O         24.1330  -65.1580   36.7980 O.2   273  GLY273     -0.2866
     77  N         21.6510  -66.5680   38.3390 N.3   275  ASP275     -0.1239
     78  CA        20.3270  -67.1930   38.2500 C.3   275  ASP275      0.1674
     79  C         20.5310  -68.6180   37.7550 C.2   275  ASP275      0.2266
     80  O         20.8090  -68.7850   36.5730 O.2   275  ASP275     -0.2867
     81  CB        19.3950  -66.3950   37.2830 C.3   275  ASP275      0.1410
     82  CG        20.0530  -66.0450   35.9600 C.2   275  ASP275      0.3668
     83  OD1       21.0910  -65.3370   35.9460 O.co2 275  ASP275     -0.2456
     84  OD2       19.5410  -66.4450   34.8890 O.co2 275  ASP275     -0.2456
     85  N         22.4370  -73.7500   38.2410 N.3   409  GLN409     -0.1231
     86  CA        23.5800  -73.4340   37.3790 C.3   409  GLN409      0.1698
     87  C         24.7280  -72.7710   38.1340 C.2   409  GLN409      0.2592
     88  O         25.8830  -73.0810   37.8870 O.2   409  GLN409     -0.2718
     89  CB        23.1350  -72.5450   36.2210 C.3   409  GLN409      0.0381
     90  CG        22.2860  -73.2600   35.1760 C.3   409  GLN409      0.0905
     91  CD        22.6520  -72.8090   33.7640 C.2   409  GLN409      0.2608
     92  OE1       22.0650  -71.8620   33.2240 O.2   409  GLN409     -0.2717
     93  NE2       23.6360  -73.4670   33.1680 N.am  409  GLN409     -0.0878
     94  N         24.4240  -71.8450   39.0410 N.am  410  TRP410     -0.1976
     95  CA        25.5020  -71.2310   39.7810 C.3   410  TRP410      0.1640
     96  C         25.7430  -71.9350   41.1270 C.2   410  TRP410      0.2290
     97  O         25.4340  -71.4030   42.2090 O.2   410  TRP410     -0.2864
     98  CB        25.3070  -69.7130   39.9090 C.3   410  TRP410      0.0576
     99  CG        25.4080  -69.0710   38.5740 C.ar  410  TRP410      0.0006
    100  CD1       24.4820  -69.1370   37.5520 C.ar  410  TRP410      0.0946
    101  CD2       26.5130  -68.3160   38.0570 C.ar  410  TRP410      0.0152
    102  NE1       24.9350  -68.4490   36.4560 N.ar  410  TRP410     -0.2442
    103  CE2       26.1770  -67.9330   36.7380 C.ar  410  TRP410      0.0810
    104  CE3       27.7370  -67.9030   38.5850 C.ar  410  TRP410      0.0012
    105  CZ2       27.0360  -67.1870   35.9400 C.ar  410  TRP410      0.0191
    106  CZ3       28.5810  -67.1600   37.7870 C.ar  410  TRP410      0.0001
    107  CH2       28.2290  -66.8140   36.4820 C.ar  410  TRP410      0.0015
    108  N         32.3900  -71.2150   36.1150 N.3   416  TRP416     -0.1241
    109  CA        32.0820  -70.1270   35.1860 C.3   416  TRP416      0.1605
    110  C         33.3070  -69.2200   34.9700 C.2   416  TRP416      0.2264
    111  O         33.8430  -68.6510   35.9200 O.2   416  TRP416     -0.2867
    112  CB        30.9100  -69.2830   35.7230 C.3   416  TRP416      0.0550
    113  CG        29.6100  -70.0070   35.7490 C.ar  416  TRP416      0.0003
    114  CD1       29.1370  -70.8180   36.7590 C.ar  416  TRP416      0.0946
    115  CD2       28.6040  -70.0170   34.7230 C.ar  416  TRP416      0.0152
    116  NE1       27.8910  -71.3300   36.4120 N.ar  416  TRP416     -0.2442
    117  CE2       27.5440  -70.8370   35.1760 C.ar  416  TRP416      0.0810
    118  CE3       28.4950  -69.4090   33.4700 C.ar  416  TRP416      0.0012
    119  CZ2       26.4080  -71.0810   34.4000 C.ar  416  TRP416      0.0191
    120  CZ3       27.3750  -69.6420   32.7150 C.ar  416  TRP416      0.0001
    121  CH2       26.3450  -70.4690   33.1780 C.ar  416  TRP416      0.0015
    122  N         29.4310  -71.8980   27.5620 N.3   459  GLU459     -0.1245
    123  CA        29.2260  -70.8890   28.5880 C.3   459  GLU459      0.1567
    124  C         29.7620  -71.2660   29.9750 C.2   459  GLU459      0.2260
    125  O         30.0640  -70.3840   30.7790 O.2   459  GLU459     -0.2867
    126  CB        27.7470  -70.4990   28.6670 C.3   459  GLU459      0.0388
    127  CG        26.8480  -71.5880   29.1340 C.3   459  GLU459      0.1160
    128  CD        25.3810  -71.2850   28.8550 C.2   459  GLU459      0.3649
    129  OE1       24.9000  -70.1710   29.1960 O.co2 459  GLU459     -0.2457
    130  OE2       24.7230  -72.1690   28.2930 O.co2 459  GLU459     -0.2457
    131  N         17.2310  -74.4400   29.0130 N.3   467  TYR467     -0.1241
    132  CA        17.8550  -74.2200   27.7080 C.3   467  TYR467      0.1605
    133  C         19.1400  -75.0800   27.6320 C.2   467  TYR467      0.2264
    134  O         19.7770  -75.3530   28.6550 O.2   467  TYR467     -0.2867
    135  CB        18.0990  -72.7050   27.4890 C.3   467  TYR467      0.0534
    136  CG        19.2330  -72.0800   28.3200 C.ar  467  TYR467     -0.0201
    137  CD1       20.5610  -72.2020   27.9120 C.ar  467  TYR467     -0.0009
    138  CD2       18.9760  -71.3610   29.4930 C.ar  467  TYR467     -0.0009
    139  CE1       21.6020  -71.6500   28.6340 C.ar  467  TYR467      0.0417
    140  CE2       20.0340  -70.7930   30.2410 C.ar  467  TYR467      0.0417
    141  CZ        21.3520  -70.9470   29.7970 C.ar  467  TYR467      0.1957
    142  OH        22.4320  -70.4220   30.5060 O.3   467  TYR467     -0.2866
    143  N         32.2750  -68.6410   23.3030 N.3   473  PHE473     -0.1241
    144  CA        31.2410  -68.0360   24.1320 C.3   473  PHE473      0.1605
    145  C         31.9090  -66.8650   24.8310 C.2   473  PHE473      0.2264
    146  O         32.9270  -67.0450   25.5200 O.2   473  PHE473     -0.2867
    147  CB        30.6820  -69.0090   25.1780 C.3   473  PHE473      0.0534
    148  CG        29.4440  -68.4840   25.8410 C.ar  473  PHE473     -0.0203
    149  CD1       28.1970  -68.6550   25.2430 C.ar  473  PHE473     -0.0042
    150  CD2       29.5310  -67.7360   27.0170 C.ar  473  PHE473     -0.0042
    151  CE1       27.0400  -68.1180   25.8210 C.ar  473  PHE473     -0.0003
    152  CE2       28.3770  -67.2090   27.6160 C.ar  473  PHE473     -0.0003
    153  CZ        27.1280  -67.3940   26.9880 C.ar  473  PHE473     -0.0000
    154  N         32.4140  -64.5360   27.4190 N.3   475  TRP475     -0.1241
    155  CA        33.3020  -64.4830   28.5830 C.3   475  TRP475      0.1605
    156  C         34.2730  -65.6250   28.6900 C.2   475  TRP475      0.2264
    157  O         35.3670  -65.4190   29.1660 O.2   475  TRP475     -0.2867
    158  CB        32.6070  -64.2300   29.9260 C.3   475  TRP475      0.0550
    159  CG        31.5670  -65.1900   30.3730 C.ar  475  TRP475      0.0003
    160  CD1       31.4100  -66.5000   30.0120 C.ar  475  TRP475      0.0946
    161  CD2       30.5450  -64.8950   31.3300 C.ar  475  TRP475      0.0152
    162  NE1       30.3170  -67.0340   30.6720 N.ar  475  TRP475     -0.2442
    163  CE2       29.7600  -66.0580   31.4720 C.ar  475  TRP475      0.0810
    164  CE3       30.2020  -63.7330   32.0560 C.ar  475  TRP475      0.0012
    165  CZ2       28.6510  -66.1140   32.3350 C.ar  475  TRP475      0.0191
    166  CZ3       29.0920  -63.7670   32.9050 C.ar  475  TRP475      0.0001
    167  CH2       28.3310  -64.9600   33.0490 C.ar  475  TRP475      0.0015
@<TRIPOS>BOND
     1     8     9    1
     2     9    10    1
     3     9    12    1
     4    22    21    2
     5    21    20    1
     6    10    11    2
     7    10    19   am
     8    12    13    1
     9    19    20    1
    10     3     4    2
    11     3     2    1
    12   143   144    1
    13    20    23    1
    14     1     2    1
    15     1     7    1
    16   144   145    1
    17   144   147    1
    18     2     5    1
    19    13    14    1
    20     7     6    1
    21    23    24    1
    22   145   146    2
    23   147   148    1
    24   149   151   ar
    25   149   148   ar
    26    14    15    1
    27     5     6    1
    28    15    16    2
    29    24    26   ar
    30    24    25   ar
    31   151   153   ar
    32   148   150   ar
    33    26    28   ar
    34    38    36   ar
    35    38    40   ar
    36    25    27   ar
    37    30    31    1
    38    16    18    1
    39    16    17    1
    40    36    35   ar
    41    28    29   ar
    42   153   152   ar
    43   150   152   ar
    44    41    40    1
    45   154   155    1
    46    40    39   ar
    47   135   132    1
    48   135   136    1
    49    27    29   ar
    50   122   123    1
    51   133   132    1
    52   133   134    2
    53   132   131    1
    54   137   136   ar
    55   137   139   ar
    56    35    34    1
    57    35    37   ar
    58    31    34    1
    59    31    32    1
    60   130   128   ar
    61   136   138   ar
    62   155   156    1
    63   155   158    1
    64   123   126    1
    65   123   124    1
    66   139   141   ar
    67   126   127    1
    68   156   157    2
    69    33    32    2
    70    39    37   ar
    71   128   127    1
    72   128   129   ar
    73    59    58    2
    74    60    61    1
    75    60    57    1
    76    62    61   ar
    77    58    57    1
    78   138   140   ar
    79   141   140   ar
    80   141   142    1
    81    61    63   ar
    82   158   159    1
    83   124   125    2
    84   160   159   ar
    85   160   162   ar
    86    57    56    1
    87   159   161   ar
    88   162   163   ar
    89    56    44   am
    90   161   163   ar
    91   161   164   ar
    92   163   165   ar
    93    45    44    2
    94   164   166   ar
    95    44    43    1
    96   165   167   ar
    97    42    43    1
    98   120   121   ar
    99   120   118   ar
   100   166   167   ar
   101    71    70    2
   102    43    46    1
   103    93    91   am
   104   121   119   ar
   105    92    91    2
   106   118   115   ar
   107    72    70   am
   108    70    69    1
   109    91    90    1
   110    48    50   ar
   111    48    47   ar
   112   119   117   ar
   113    46    47    1
   114    50    51   ar
   115    69    68    1
   116   115   117   ar
   117   115   113   ar
   118    47    49   ar
   119    84    82   ar
   120   110   109    1
   121   110   111    2
   122    68    65    1
   123    90    89    1
   124   117   116   ar
   125   109   112    1
   126   109   108    1
   127    51    49   ar
   128    51    53   ar
   129    49    52   ar
   130   112   113    1
   131   113   114   ar
   132   105   107   ar
   133   105   103   ar
   134    83    82   ar
   135    82    81    1
   136    64    65    1
   137    89    86    1
   138    53    55   ar
   139    65    66    1
   140   116   114   ar
   141   102   103   ar
   142   102   100   ar
   143   107   106   ar
   144    80    79    2
   145    52    54   ar
   146   103   101   ar
   147    76    75    2
   148    66    67    2
   149    74    75    1
   150    74    73    1
   151    81    78    1
   152    55    54   ar
   153    86    87    1
   154    86    85    1
   155   100    99   ar
   156    79    78    1
   157   106   104   ar
   158    88    87    2
   159   101    99   ar
   160   101   104   ar
   161    87    94   am
   162    78    77    1
   163    99    98    1
   164    94    95    1
   165    95    98    1
   166    95    96    1
   167    96    97    2
