@<TRIPOS>MOLECULE
tmp/2wypA00.pdb
 176 163 0 0 0
SMALL
GASTEIGER

@<TRIPOS>ATOM
      1  N         14.2200   -3.8020   -8.6550 N.3    10  ASN10      -0.1225
      2  CA        13.1470   -4.5070   -7.9190 C.3    10  ASN10       0.1785
      3  C         13.6800   -5.6900   -7.0960 C.2    10  ASN10       0.2597
      4  O         13.0870   -6.1290   -6.0610 O.2    10  ASN10      -0.2718
      5  CB        12.1510   -5.1040   -8.8670 C.3    10  ASN10       0.1169
      6  CG        11.2210   -4.1190   -9.4660 C.2    10  ASN10       0.2627
      7  OD1       10.8160   -3.0980   -8.8400 O.2    10  ASN10      -0.2716
      8  ND2       10.8210   -4.4290  -10.7240 N.am   10  ASN10      -0.0877
      9  N         14.7640   -6.2710   -7.5780 N.am   11  ASN11      -0.1974
     10  CA        15.2410   -7.4810   -6.9920 C.3    11  ASN11       0.1688
     11  C         15.9450   -7.2640   -5.6610 C.2    11  ASN11       0.2292
     12  O         16.4450   -6.1650   -5.3750 O.2    11  ASN11      -0.2864
     13  CB        16.1500   -8.1220   -7.9920 C.3    11  ASN11       0.1181
     14  CG        15.5740   -8.0860   -9.3480 C.2    11  ASN11       0.2629
     15  OD1       15.8320   -7.1270  -10.1030 O.2    11  ASN11      -0.2716
     16  ND2       14.7070   -9.0620   -9.6420 N.am   11  ASN11      -0.0877
     17  N         20.5210  -10.3700  -10.3200 N.3    17  GLU17      -0.1245
     18  CA        20.5230   -8.9750  -10.7450 C.3    17  GLU17       0.1567
     19  C         21.3630   -8.1270   -9.7820 C.2    17  GLU17       0.2260
     20  O         22.1320   -7.2700  -10.2110 O.2    17  GLU17      -0.2867
     21  CB        19.0950   -8.4150  -10.8530 C.3    17  GLU17       0.0388
     22  CG        18.2140   -9.0970  -11.9510 C.3    17  GLU17       0.1160
     23  CD        17.3600  -10.2710  -11.4210 C.2    17  GLU17       0.3649
     24  OE1       17.7720  -10.9530  -10.4670 O.co2  17  GLU17      -0.2457
     25  OE2       16.2490  -10.5170  -11.9540 O.co2  17  GLU17      -0.2457
     26  N          9.6140   -0.8260  -11.5960 N.3    49  ASP49      -0.1239
     27  CA        10.4200   -0.5710  -12.8040 C.3    49  ASP49       0.1674
     28  C          9.9380    0.6220  -13.6170 C.2    49  ASP49       0.2266
     29  O         10.7390    1.4180  -14.0800 O.2    49  ASP49      -0.2867
     30  CB        10.5970   -1.8190  -13.6930 C.3    49  ASP49       0.1410
     31  CG         9.2960   -2.4460  -14.1870 C.2    49  ASP49       0.3668
     32  OD1        8.1870   -2.1210  -13.7170 O.co2  49  ASP49      -0.2456
     33  OD2        9.3650   -3.2940  -15.1150 O.co2  49  ASP49      -0.2456
     34  N         17.5100   -1.2870  -14.1670 N.3    65  PHE65      -0.1227
     35  CA        17.2280   -2.4020  -15.0890 C.3    65  PHE65       0.1736
     36  C         15.8940   -2.2480  -15.7550 C.2    65  PHE65       0.2595
     37  O         14.9510   -1.8200  -15.1270 O.2    65  PHE65      -0.2718
     38  CB        17.2100   -3.7000  -14.3010 C.3    65  PHE65       0.0547
     39  CG        18.5440   -4.1780  -13.8640 C.ar   65  PHE65      -0.0202
     40  CD1       19.5900   -4.3360  -14.7670 C.ar   65  PHE65      -0.0042
     41  CD2       18.7490   -4.5580  -12.5370 C.ar   65  PHE65      -0.0042
     42  CE1       20.8200   -4.8500  -14.3120 C.ar   65  PHE65      -0.0003
     43  CE2       19.9560   -5.0490  -12.0880 C.ar   65  PHE65      -0.0003
     44  CZ        20.9820   -5.2380  -12.9700 C.ar   65  PHE65      -0.0000
     45  N         15.7960   -2.5940  -17.0370 N.am   66  ALA66      -0.1966
     46  CA        14.5020   -2.7640  -17.6730 C.3    66  ALA66       0.1728
     47  C         14.5500   -3.8940  -18.6700 C.2    66  ALA66       0.2616
     48  O         15.5720   -4.2910  -19.0600 O.2    66  ALA66      -0.2715
     49  CB        14.0580   -1.4790  -18.3210 C.3    66  ALA66       0.0334
     50  N         13.4220   -4.5080  -18.9610 N.am   67  GLU67      -0.1977
     51  CA        13.3300   -5.4540  -20.0780 C.3    67  GLU67       0.1602
     52  C         13.0030   -4.7510  -21.3770 C.2    67  GLU67       0.2287
     53  O         12.2190   -3.7960  -21.3910 O.2    67  GLU67      -0.2864
     54  CB        12.1880   -6.4560  -19.8880 C.3    67  GLU67       0.0415
     55  CG        12.2700   -7.4020  -18.7580 C.3    67  GLU67       0.1163
     56  CD        10.9300   -8.0680  -18.5390 C.2    67  GLU67       0.3649
     57  OE1        9.9800   -7.8820  -19.3660 O.co2  67  GLU67      -0.2457
     58  OE2       10.8200   -8.6980  -17.4900 O.co2  67  GLU67      -0.2457
     59  N         10.8050   -5.7540  -23.4910 N.3    69  ALA69      -0.1231
     60  CA         9.3620   -5.8280  -23.6110 C.3    69  ALA69       0.1694
     61  C          8.6230   -4.6970  -22.8800 C.2    69  ALA69       0.2591
     62  O          7.4920   -4.3290  -23.2220 O.2    69  ALA69      -0.2718
     63  CB         8.8410   -7.1770  -23.0530 C.3    69  ALA69       0.0304
     64  N          9.2200   -4.2060  -21.8140 N.am   70  ARG70      -0.1980
     65  CA         8.5710   -3.2300  -20.9860 C.3    70  ARG70       0.1597
     66  C          8.3420   -1.9280  -21.7410 C.2    70  ARG70       0.2287
     67  O          7.4320   -1.1470  -21.4150 O.2    70  ARG70      -0.2864
     68  CB         9.3750   -3.0030  -19.7090 C.3    70  ARG70       0.0334
     69  CG         8.6550   -2.2630  -18.5700 C.3    70  ARG70       0.0492
     70  CD         7.3150   -2.8580  -18.2270 C.3    70  ARG70       0.2205
     71  NE         7.0230   -2.7250  -16.8120 N.pl3  70  ARG70      -0.0865
     72  CZ         5.8520   -3.0140  -16.2630 C.cat  70  ARG70       0.5346
     73  NH1        4.8220   -3.3030  -17.0460 N.pl3  70  ARG70       0.1354
     74  NH2        5.7150   -2.9390  -14.9360 N.pl3  70  ARG70       0.1354
     75  N          6.8870   -1.6580  -24.3720 N.3    72  GLN72      -0.1245
     76  CA         5.5810   -1.6910  -24.9370 C.3    72  GLN72       0.1566
     77  C          4.6700   -0.6150  -24.3370 C.2    72  GLN72       0.2260
     78  O          3.6490   -0.2510  -24.9510 O.2    72  GLN72      -0.2867
     79  CB         4.9300   -3.0660  -24.8240 C.3    72  GLN72       0.0367
     80  CG         4.5110   -3.4120  -23.4430 C.3    72  GLN72       0.0905
     81  CD         3.9890   -4.8470  -23.3200 C.2    72  GLN72       0.2608
     82  OE1        2.8370   -5.1060  -23.5250 O.2    72  GLN72      -0.2717
     83  NE2        4.8610   -5.7770  -23.0000 N.am   72  GLN72      -0.0878
     84  N         17.8700  -12.7730  -18.5950 N.3   124  ASN124     -0.1240
     85  CA        17.2630  -12.7500  -17.2650 C.3   124  ASN124      0.1653
     86  C         16.3070  -13.9210  -17.0610 C.2   124  ASN124      0.2266
     87  O         15.3970  -13.8440  -16.2480 O.2   124  ASN124     -0.2867
     88  CB        16.5140  -11.4360  -17.0240 C.3   124  ASN124      0.1155
     89  CG        16.6910  -10.9220  -15.6090 C.2   124  ASN124      0.2627
     90  OD1       17.7580  -10.3520  -15.2790 O.2   124  ASN124     -0.2716
     91  ND2       15.6680  -11.0670  -14.7980 N.am  124  ASN124     -0.0877
     92  N         10.5850  -17.5150  -17.9810 N.3   127  ARG127     -0.1245
     93  CA         9.5620  -17.5650  -16.9610 C.3   127  ARG127      0.1563
     94  C          8.8600  -18.9220  -16.9410 C.2   127  ARG127      0.2260
     95  O          8.6260  -19.5520  -17.9830 O.2   127  ARG127     -0.2867
     96  CB         8.5410  -16.4490  -17.1810 C.3   127  ARG127      0.0307
     97  CG         9.2110  -15.0800  -17.2420 C.3   127  ARG127      0.0489
     98  CD         8.2190  -13.9440  -17.3660 C.3   127  ARG127      0.2205
     99  NE         7.5090  -13.5530  -16.1420 N.pl3 127  ARG127     -0.0865
    100  CZ         7.8870  -12.5810  -15.3010 C.cat 127  ARG127      0.5346
    101  NH1        9.0500  -11.9110  -15.4420 N.pl3 127  ARG127      0.1354
    102  NH2        7.0740  -12.2300  -14.3140 N.pl3 127  ARG127      0.1354
    103  N         -1.0620  -14.6490  -10.0390 N.3   147  ARG147     -0.1245
    104  CA        -0.4470  -13.3260   -9.9830 C.3   147  ARG147      0.1563
    105  C          0.3690  -13.0680  -11.2550 C.2   147  ARG147      0.2260
    106  O          1.0970  -13.9380  -11.7230 O.2   147  ARG147     -0.2867
    107  CB         0.4020  -13.1540   -8.7620 C.3   147  ARG147      0.0307
    108  CG         1.0670  -11.7930   -8.6470 C.3   147  ARG147      0.0489
    109  CD         2.4010  -11.7360   -9.3670 C.3   147  ARG147      0.2205
    110  NE         2.9380  -10.3770   -9.4910 N.pl3 147  ARG147     -0.0865
    111  CZ         4.1300  -10.1270  -10.0070 C.cat 147  ARG147      0.5346
    112  NH1        4.6400   -8.9070   -9.9630 N.pl3 147  ARG147      0.1354
    113  NH2        4.8620  -11.1280  -10.4930 N.pl3 147  ARG147      0.1354
    114  N          2.7000   -9.5710  -13.0780 N.3   149  PRO149     -0.2116
    115  CA         3.0700   -8.1450  -13.0200 C.3   149  PRO149      0.1372
    116  C          2.0490   -7.3210  -13.7830 C.2   149  PRO149      0.2244
    117  O          1.2500   -7.8970  -14.5770 O.2   149  PRO149     -0.2868
    118  CB         4.3930   -8.1100  -13.7380 C.3   149  PRO149      0.0268
    119  CG         4.3700   -9.2430  -14.6540 C.3   149  PRO149      0.0207
    120  CD         3.6540  -10.3510  -13.8960 C.3   149  PRO149      0.0892
    121  N          1.5890   -5.8400  -16.5650 N.3   151  ALA151     -0.1245
    122  CA         2.1190   -5.8050  -17.9420 C.3   151  ALA151      0.1562
    123  C          1.1630   -6.5810  -18.8260 C.2   151  ALA151      0.2260
    124  O          0.7760   -7.6880  -18.4780 O.2   151  ALA151     -0.2867
    125  CB         3.5090   -6.4440  -17.9730 C.3   151  ALA151      0.0290
    126  N          1.3630   -8.2180  -21.6040 N.3   153  THR153     -0.1203
    127  CA         1.7660   -9.5080  -22.1530 C.3   153  THR153      0.1994
    128  C          1.6510  -10.6380  -21.0990 C.2   153  THR153      0.2617
    129  O          1.2290  -11.7610  -21.4200 O.2   153  THR153     -0.2717
    130  CB         3.1700   -9.3960  -22.7730 C.3   153  THR153      0.1784
    131  OG1        3.9340   -8.4130  -22.0430 O.3   153  THR153     -0.2211
    132  CG2        3.1200   -8.9510  -24.2600 C.3   153  THR153      0.0376
    133  N          1.9290  -10.3320  -19.8340 N.am  154  ASN154     -0.1974
    134  CA         1.7690  -11.3290  -18.7680 C.3   154  ASN154      0.1688
    135  C          0.3050  -11.5490  -18.4230 C.2   154  ASN154      0.2292
    136  O         -0.1210  -12.6800  -18.2150 O.2   154  ASN154     -0.2864
    137  CB         2.5360  -10.9550  -17.5060 C.3   154  ASN154      0.1181
    138  CG         4.0010  -10.7280  -17.7640 C.2   154  ASN154      0.2629
    139  OD1        4.3790   -9.6820  -18.3470 O.2   154  ASN154     -0.2716
    140  ND2        4.8570  -11.6850  -17.3390 N.am  154  ASN154     -0.0877
    141  N          5.6810   -6.6490   -7.6560 N.3   170  PHE170     -0.1241
    142  CA         6.6080   -7.7360   -7.2940 C.3   170  PHE170      0.1605
    143  C          6.7840   -7.8180   -5.7920 C.2   170  PHE170      0.2264
    144  O          6.8590   -8.9160   -5.2680 O.2   170  PHE170     -0.2867
    145  CB         7.9520   -7.4690   -7.9920 C.3   170  PHE170      0.0534
    146  CG         8.9540   -8.5610   -7.9460 C.ar  170  PHE170     -0.0203
    147  CD1        8.7020   -9.7920   -8.4990 C.ar  170  PHE170     -0.0042
    148  CD2       10.2290   -8.2950   -7.4800 C.ar  170  PHE170     -0.0042
    149  CE1        9.6930  -10.7560   -8.5640 C.ar  170  PHE170     -0.0003
    150  CE2       11.2090   -9.2620   -7.5230 C.ar  170  PHE170     -0.0003
    151  CZ        10.9390  -10.4780   -8.0430 C.ar  170  PHE170     -0.0000
    152  N          7.4930  -16.3840  -13.1180 N.3   187  ASN187     -0.1240
    153  CA         8.7820  -15.6660  -13.0620 C.3   187  ASN187      0.1653
    154  C          9.8350  -16.6700  -13.4050 C.2   187  ASN187      0.2266
    155  O          9.5830  -17.8650  -13.3200 O.2   187  ASN187     -0.2867
    156  CB         9.0820  -15.1190  -11.6650 C.3   187  ASN187      0.1155
    157  CG         8.7600  -13.6280  -11.5090 C.2   187  ASN187      0.2627
    158  OD1        7.8830  -13.2170  -10.6930 O.2   187  ASN187     -0.2716
    159  ND2        9.5060  -12.7990  -12.2150 N.am  187  ASN187     -0.0877
    160  N         12.7890  -13.4970  -20.7190 N.3   212  ASN212     -0.1240
    161  CA        13.2040  -12.1960  -20.2420 C.3   212  ASN212      0.1653
    162  C         14.6760  -11.8670  -20.5130 C.2   212  ASN212      0.2266
    163  O         15.5750  -12.6600  -20.2610 O.2   212  ASN212     -0.2867
    164  CB        12.9710  -12.0470  -18.7540 C.3   212  ASN212      0.1155
    165  CG        11.5170  -12.0070  -18.3610 C.2   212  ASN212      0.2627
    166  OD1       10.6160  -11.4990  -19.0960 O.2   212  ASN212     -0.2716
    167  ND2       11.2850  -12.3810  -17.1590 N.am  212  ASN212     -0.0877
    168  N         17.3860   -8.3670  -19.8390 N.3   214  GLN214     -0.1245
    169  CA        17.5540   -7.2840  -18.8850 C.3   214  GLN214      0.1566
    170  C         18.5250   -6.2770  -19.4450 C.2   214  GLN214      0.2260
    171  O         19.6280   -6.6070  -19.8580 O.2   214  GLN214     -0.2867
    172  CB        18.0430   -7.7800  -17.5570 C.3   214  GLN214      0.0367
    173  CG        17.6180   -6.9640  -16.3270 C.3   214  GLN214      0.0905
    174  CD        16.2040   -7.2010  -15.8520 C.2   214  GLN214      0.2608
    175  OE1       15.3890   -7.8630  -16.5220 O.2   214  GLN214     -0.2717
    176  NE2       15.8990   -6.6820  -14.6900 N.am  214  GLN214     -0.0878
@<TRIPOS>BOND
     1    78    77    2
     2    76    79    1
     3    76    75    1
     4    76    77    1
     5    79    80    1
     6   132   130    1
     7    60    59    1
     8    60    63    1
     9    60    61    1
    10    82    81    2
    11    80    81    1
    12    81    83   am
    13    62    61    2
    14    61    64   am
    15   130   127    1
    16   130   131    1
    17   127   126    1
    18   127   128    1
    19    64    65    1
    20    66    67    2
    21    66    65    1
    22   129   128    2
    23    53    52    2
    24    52    51    1
    25   128   133   am
    26    65    68    1
    27   160   161    1
    28   162   163    2
    29   162   161    1
    30   161   164    1
    31    51    54    1
    32    51    50    1
    33    54    55    1
    34   171   170    2
    35   168   169    1
    36   133   134    1
    37    68    69    1
    38   170   169    1
    39    57    56   ar
    40   166   165    2
    41    48    47    2
    42    50    47   am
    43   169   172    1
    44   123   124    2
    45   123   122    1
    46   134   135    1
    47   134   137    1
    48    55    56    1
    49   164   165    1
    50    47    46    1
    51    84    85    1
    52    69    70    1
    53    56    58   ar
    54   135   136    2
    55   165   167   am
    56   139   138    2
    57    49    46    1
    58    70    71    1
    59    95    94    2
    60    92    93    1
    61   125   122    1
    62   122   121    1
    63   138   137    1
    64   138   140   am
    65    46    45    1
    66   172   173    1
    67    98    97    1
    68    98    99    1
    69    85    86    1
    70    85    88    1
    71    97    96    1
    72    96    93    1
    73    86    87    2
    74    73    72    1
    75    45    36   am
    76    88    89    1
    77    93    94    1
    78    71    72    2
    79   175   174    2
    80   173   174    1
    81    72    74    1
    82    99   100    2
    83   174   176   am
    84    36    37    2
    85    36    35    1
    86    89    90    2
    87    89    91   am
    88   101   100    1
    89   100   102    1
    90    33    31   ar
    91    35    38    1
    92    35    34    1
    93    40    42   ar
    94    40    39   ar
    95   119   120    1
    96   119   118    1
    97   117   116    2
    98    42    44   ar
    99    38    39    1
   100    31    32   ar
   101    31    30    1
   102    29    28    2
   103   120   114    1
   104    39    41   ar
   105   116   115    1
   106   118   115    1
   107    30    27    1
   108    28    27    1
   109   154   155    2
   110   154   153    1
   111   152   153    1
   112   114   115    1
   113   153   156    1
   114    44    43   ar
   115    27    26    1
   116    41    43   ar
   117   159   157   am
   118    25    23   ar
   119    22    23    1
   120    22    21    1
   121   106   105    2
   122   156   157    1
   123   157   158    2
   124    23    24   ar
   125   105   104    1
   126    21    18    1
   127    18    17    1
   128    18    19    1
   129     8     6   am
   130   113   111    1
   131    20    19    2
   132    15    14    2
   133   103   104    1
   134   111   112    1
   135   111   110    2
   136   104   107    1
   137    16    14   am
   138   110   109    1
   139     6     5    1
   140     6     7    2
   141   109   108    1
   142    14    13    1
   143     5     2    1
   144   107   108    1
   145     1     2    1
   146   149   147   ar
   147   149   151   ar
   148   147   146   ar
   149   151   150   ar
   150    13    10    1
   151   145   146    1
   152   145   142    1
   153   146   148   ar
   154     2     3    1
   155   141   142    1
   156     9     3   am
   157     9    10    1
   158   150   148   ar
   159   142   143    1
   160     3     4    2
   161    10    11    1
   162   143   144    2
   163    11    12    2
