@<TRIPOS>MOLECULE
tmp/2wysB00.pdb
 140 137 0 0 0
SMALL
GASTEIGER

@<TRIPOS>ATOM
      1  N        126.0320   34.1440   29.4230 N.3   194  GLU194     -0.1231
      2  CA       125.8040   32.7070   29.5770 C.3   194  GLU194      0.1699
      3  C        124.8390   32.2420   28.4740 C.2   194  GLU194      0.2592
      4  O        125.0320   31.1900   27.8420 O.2   194  GLU194     -0.2718
      5  CB       125.2550   32.3450   30.9180 C.3   194  GLU194      0.0402
      6  CG       125.4200   30.9150   31.1770 C.3   194  GLU194      0.1161
      7  CD       125.3220   30.5440   32.6890 C.2   194  GLU194      0.3649
      8  OE1      125.4910   31.4580   33.5360 O.co2 194  GLU194     -0.2457
      9  OE2      125.0860   29.3350   33.0260 O.co2 194  GLU194     -0.2457
     10  N        123.8080   33.0340   28.2210 N.am  195  ASN195     -0.1974
     11  CA       122.7160   32.5180   27.4100 C.3   195  ASN195      0.1688
     12  C        122.2240   33.5550   26.4550 C.2   195  ASN195      0.2292
     13  O        121.7690   33.2360   25.3460 O.2   195  ASN195     -0.2864
     14  CB       121.5780   32.0560   28.3010 C.3   195  ASN195      0.1181
     15  CG       121.9130   30.8010   29.0150 C.2   195  ASN195      0.2629
     16  OD1      122.2540   29.7750   28.3870 O.2   195  ASN195     -0.2716
     17  ND2      121.8660   30.8540   30.3470 N.am  195  ASN195     -0.0877
     18  N        122.6450   33.7350   22.5820 N.3   197  LYS197     -0.1245
     19  CA       122.4810   32.5150   21.7870 C.3   197  LYS197      0.1561
     20  C        121.3790   32.7090   20.7780 C.2   197  LYS197      0.2260
     21  O        120.5100   33.5560   20.9710 O.2   197  LYS197     -0.2867
     22  CB       122.1300   31.3310   22.6910 C.3   197  LYS197      0.0271
     23  CG       123.3160   30.7250   23.3670 C.3   197  LYS197      0.0035
     24  CD       123.0230   30.2330   24.7520 C.3   197  LYS197      0.0206
     25  CE       124.3170   29.7490   25.3470 C.3   197  LYS197      0.1093
     26  NZ       124.1090   28.4960   26.1050 N.3   197  LYS197     -0.1314
     27  N        129.0330   35.0660   22.1180 N.3   236  HIS236     -0.1241
     28  CA       128.6870   33.6470   22.1840 C.3   236  HIS236      0.1621
     29  C        127.2050   33.3210   21.9490 C.2   236  HIS236      0.2264
     30  O        126.3970   33.6110   22.8180 O.2   236  HIS236     -0.2867
     31  CB       129.0740   33.1620   23.5580 C.3   236  HIS236      0.0745
     32  CG       128.8120   31.7120   23.7810 C.ar  236  HIS236      0.0817
     33  ND1      129.4790   30.7200   23.0920 N.ar  236  HIS236     -0.2268
     34  CD2      127.9610   31.0830   24.6170 C.ar  236  HIS236      0.1154
     35  CE1      129.0280   29.5430   23.4790 C.ar  236  HIS236      0.1986
     36  NE2      128.1060   29.7350   24.4050 N.ar  236  HIS236     -0.2212
     37  N        125.0910   26.9910   16.3140 N.3   240  TRP240     -0.1241
     38  CA       125.1510   25.9430   17.3950 C.3   240  TRP240      0.1605
     39  C        123.9540   25.0080   17.1970 C.2   240  TRP240      0.2264
     40  O        122.8500   25.4300   16.8030 O.2   240  TRP240     -0.2867
     41  CB       125.1090   26.5280   18.8250 C.3   240  TRP240      0.0550
     42  CG       125.2950   25.5440   19.9740 C.ar  240  TRP240      0.0003
     43  CD1      125.9810   24.3400   19.9480 C.ar  240  TRP240      0.0946
     44  CD2      124.9030   25.7290   21.3510 C.ar  240  TRP240      0.0152
     45  NE1      125.9950   23.7670   21.2220 N.ar  240  TRP240     -0.2442
     46  CE2      125.3330   24.6020   22.0810 C.ar  240  TRP240      0.0810
     47  CE3      124.2020   26.7340   22.0350 C.ar  240  TRP240      0.0012
     48  CZ2      125.0750   24.4540   23.4520 C.ar  240  TRP240      0.0191
     49  CZ3      123.9260   26.5730   23.4090 C.ar  240  TRP240      0.0001
     50  CH2      124.3760   25.4480   24.1010 C.ar  240  TRP240      0.0015
     51  N        120.0340   25.1320   21.5950 N.3   243  GLN243     -0.1245
     52  CA       119.5010   26.4720   21.9440 C.3   243  GLN243      0.1566
     53  C        119.2900   27.4520   20.7280 C.2   243  GLN243      0.2260
     54  O        119.4530   28.6570   20.8430 O.2   243  GLN243     -0.2867
     55  CB       120.3840   27.0980   23.0280 C.3   243  GLN243      0.0367
     56  CG       119.7390   27.2160   24.3980 C.3   243  GLN243      0.0905
     57  CD       120.7830   27.2860   25.5100 C.2   243  GLN243      0.2608
     58  OE1      121.7630   26.5380   25.4970 O.2   243  GLN243     -0.2717
     59  NE2      120.5840   28.1750   26.4720 N.am  243  GLN243     -0.0878
     60  N        129.7900   26.6020   17.2380 N.3   294  ASN294     -0.1225
     61  CA       129.8530   25.9180   18.5110 C.3   294  ASN294      0.1785
     62  C        129.6810   24.4070   18.5260 C.2   294  ASN294      0.2597
     63  O        128.7340   23.8860   17.9490 O.2   294  ASN294     -0.2718
     64  CB       128.8810   26.5240   19.5320 C.3   294  ASN294      0.1169
     65  CG       129.5260   26.6360   20.8340 C.2   294  ASN294      0.2627
     66  OD1      130.7660   26.7580   20.8420 O.2   294  ASN294     -0.2716
     67  ND2      128.7750   26.5020   21.9660 N.am  294  ASN294     -0.0877
     68  N        130.5820   23.6950   19.2150 N.am  295  ALA295     -0.1979
     69  CA       130.4160   22.2690   19.4750 C.3   295  ALA295      0.1597
     70  C        129.8710   21.4750   18.2680 C.2   295  ALA295      0.2287
     71  O        128.9140   20.7490   18.3900 O.2   295  ALA295     -0.2864
     72  CB       129.4970   22.1110   20.7160 C.3   295  ALA295      0.0319
     73  N        134.0690   21.2800   23.2790 N.3   354  TYR354     -0.1241
     74  CA       134.3300   20.6170   24.5950 C.3   354  TYR354      0.1605
     75  C        134.8200   19.1780   24.3860 C.2   354  TYR354      0.2264
     76  O        134.6720   18.6050   23.2730 O.2   354  TYR354     -0.2867
     77  CB       133.0810   20.5880   25.4810 C.3   354  TYR354      0.0534
     78  CG       131.9560   19.7660   24.8680 C.ar  354  TYR354     -0.0201
     79  CD1      131.6320   18.4720   25.3290 C.ar  354  TYR354     -0.0009
     80  CD2      131.2430   20.2770   23.7910 C.ar  354  TYR354     -0.0009
     81  CE1      130.5880   17.7230   24.7380 C.ar  354  TYR354      0.0417
     82  CE2      130.2270   19.5640   23.1820 C.ar  354  TYR354      0.0417
     83  CZ       129.8920   18.2870   23.6370 C.ar  354  TYR354      0.1957
     84  OH       128.8610   17.6580   22.9230 O.3   354  TYR354     -0.2866
     85  N        136.7030   24.9040   25.4070 N.3   383  GLN383     -0.1245
     86  CA       135.7000   25.0930   26.4820 C.3   383  GLN383      0.1566
     87  C        136.1630   24.7140   27.9010 C.2   383  GLN383      0.2260
     88  O        135.8830   25.4580   28.8240 O.2   383  GLN383     -0.2867
     89  CB       134.3500   24.4500   26.1760 C.3   383  GLN383      0.0367
     90  CG       133.8120   24.8020   24.8100 C.3   383  GLN383      0.0905
     91  CD       132.3730   24.4100   24.7200 C.2   383  GLN383      0.2608
     92  OE1      131.8150   23.8970   25.7310 O.2   383  GLN383     -0.2717
     93  NE2      131.7250   24.6680   23.5380 N.am  383  GLN383     -0.0878
     94  N        135.4860   22.1610   30.1010 N.3   385  HIS385     -0.1241
     95  CA       134.6290   21.6990   31.1460 C.3   385  HIS385      0.1621
     96  C        135.2720   20.4240   31.6800 C.2   385  HIS385      0.2264
     97  O        135.0040   19.3260   31.2480 O.2   385  HIS385     -0.2867
     98  CB       133.2110   21.5360   30.6190 C.3   385  HIS385      0.0745
     99  CG       132.5440   22.8440   30.3260 C.ar  385  HIS385      0.0817
    100  ND1      132.2610   23.7750   31.3140 N.ar  385  HIS385     -0.2268
    101  CD2      132.1360   23.3970   29.1560 C.ar  385  HIS385      0.1154
    102  CE1      131.6870   24.8330   30.7710 C.ar  385  HIS385      0.1986
    103  NE2      131.5980   24.6300   29.4630 N.ar  385  HIS385     -0.2212
    104  N        135.5730   28.3880   28.6600 N.3   416  GLU416     -0.1196
    105  CA       134.4820   28.1180   29.6370 C.3   416  GLU416      0.1783
    106  C        134.9450   27.2110   30.7490 C.2   416  GLU416      0.2306
    107  O        134.3380   26.1730   31.0440 O.2   416  GLU416     -0.2863
    108  CB       133.2180   27.5020   28.9940 C.2   416  GLU416      0.0071
    109  CG       132.8150   28.0810   27.6400 C.2   416  GLU416      0.0834
    110  CD       131.6880   27.3310   26.8690 C.2   416  GLU416      0.3877
    111  OE1      131.1030   26.3160   27.3380 O.co2 416  GLU416     -0.2406
    112  OE2      131.4240   27.7770   25.7300 O.co2 416  GLU416     -0.2406
    113  N        133.7090   29.8140   33.6520 N.3   460  TRP460     -0.1241
    114  CA       132.3040   29.8760   33.2630 C.3   460  TRP460      0.1605
    115  C        131.4470   30.0760   34.4800 C.2   460  TRP460      0.2264
    116  O        130.7060   29.1570   34.8530 O.2   460  TRP460     -0.2867
    117  CB       131.9110   28.5900   32.6220 C.3   460  TRP460      0.0550
    118  CG       130.7070   28.6340   31.8700 C.ar  460  TRP460      0.0003
    119  CD1      129.5630   27.9260   32.1300 C.ar  460  TRP460      0.0946
    120  CD2      130.4800   29.3230   30.6290 C.ar  460  TRP460      0.0152
    121  NE1      128.6180   28.1540   31.1410 N.ar  460  TRP460     -0.2442
    122  CE2      129.1600   28.9920   30.1980 C.ar  460  TRP460      0.0810
    123  CE3      131.2570   30.2040   29.8300 C.ar  460  TRP460      0.0012
    124  CZ2      128.5980   29.5240   29.0190 C.ar  460  TRP460      0.0191
    125  CZ3      130.6950   30.7380   28.6580 C.ar  460  TRP460      0.0001
    126  CH2      129.3740   30.3910   28.2740 C.ar  460  TRP460      0.0015
    127  N        126.4000   26.4130   35.8890 N.3   468  TRP468     -0.1241
    128  CA       125.4640   25.4720   35.3040 C.3   468  TRP468      0.1605
    129  C        125.6610   24.0220   35.7660 C.2   468  TRP468      0.2264
    130  O        124.8900   23.1640   35.3720 O.2   468  TRP468     -0.2867
    131  CB       125.5540   25.4500   33.8150 C.3   468  TRP468      0.0550
    132  CG       126.8230   24.8390   33.3600 C.ar  468  TRP468      0.0003
    133  CD1      128.0870   25.0580   33.8840 C.ar  468  TRP468      0.0946
    134  CD2      127.0060   23.9510   32.2520 C.ar  468  TRP468      0.0152
    135  NE1      129.0130   24.3530   33.1710 N.ar  468  TRP468     -0.2442
    136  CE2      128.3840   23.6650   32.1670 C.ar  468  TRP468      0.0810
    137  CE3      126.1400   23.3650   31.3200 C.ar  468  TRP468      0.0012
    138  CZ2      128.9070   22.8070   31.2110 C.ar  468  TRP468      0.0191
    139  CZ3      126.6790   22.4990   30.3510 C.ar  468  TRP468      0.0001
    140  CH2      128.0420   22.2380   30.3120 C.ar  468  TRP468      0.0015
@<TRIPOS>BOND
     1    37    38    1
     2    40    39    2
     3    39    38    1
     4    60    61    1
     5    38    41    1
     6    63    62    2
     7    70    71    2
     8    70    69    1
     9    61    62    1
    10    61    64    1
    11    62    68   am
    12    41    42    1
    13    68    69    1
    14    69    72    1
    15    64    65    1
    16    43    42   ar
    17    43    45   ar
    18    42    44   ar
    19    53    54    2
    20    53    52    1
    21    20    21    2
    22    20    19    1
    23    65    66    2
    24    65    67   am
    25    45    46   ar
    26    44    47   ar
    27    44    46   ar
    28    51    52    1
    29    19    18    1
    30    19    22    1
    31    52    55    1
    32    29    28    1
    33    29    30    2
    34    47    49   ar
    35    46    48   ar
    36    27    28    1
    37    28    31    1
    38    22    23    1
    39    84    83    1
    40    55    56    1
    41    33    35   ar
    42    33    32   ar
    43    82    83   ar
    44    82    80   ar
    45    76    75    2
    46    73    74    1
    47    23    24    1
    48    49    50   ar
    49    48    50   ar
    50    35    36   ar
    51    93    91   am
    52    31    32    1
    53    83    81   ar
    54    32    34   ar
    55    80    78   ar
    56    75    74    1
    57    56    57    1
    58    36    34   ar
    59    74    77    1
    60    91    90    1
    61    91    92    2
    62    81    79   ar
    63    24    25    1
    64    90    89    1
    65    78    79   ar
    66    78    77    1
    67    13    12    2
    68    25    26    1
    69    85    86    1
    70    58    57    2
    71    57    59   am
    72   112   110   ar
    73    89    86    1
    74    12    11    1
    75    86    87    1
    76   110   111   ar
    77   110   109    1
    78    11    10    1
    79    11    14    1
    80   109   108    2
    81     4     3    2
    82    87    88    2
    83    10     3   am
    84   126   125   ar
    85   126   124   ar
    86    14    15    1
    87    16    15    2
    88     3     2    1
    89   125   123   ar
    90   104   105    1
    91   108   105    1
    92    15    17   am
    93   124   122   ar
    94   101   103   ar
    95   101    99   ar
    96     1     2    1
    97   103   102   ar
    98     2     5    1
    99   105   106    1
   100   123   120   ar
   101    94    95    1
   102   122   120   ar
   103   122   121   ar
   104   140   139   ar
   105   140   138   ar
   106    99    98    1
   107    99   100   ar
   108   139   137   ar
   109    98    95    1
   110   120   118   ar
   111   106   107    2
   112   102   100   ar
   113     5     6    1
   114   121   119   ar
   115    95    96    1
   116     6     7    1
   117   138   136   ar
   118    97    96    2
   119   137   134   ar
   120   118   119   ar
   121   118   117    1
   122   136   134   ar
   123   136   135   ar
   124   134   132   ar
   125   117   114    1
   126     7     9   ar
   127     7     8   ar
   128   135   133   ar
   129   114   113    1
   130   114   115    1
   131   132   131    1
   132   132   133   ar
   133   131   128    1
   134   115   116    2
   135   128   129    1
   136   128   127    1
   137   130   129    2
