@<TRIPOS>MOLECULE
tmp/2wywA01.pdb
 143 135 0 0 0
SMALL
GASTEIGER

@<TRIPOS>ATOM
      1  N         17.6210   -0.5690   21.3230 N.3    93  ALA93      -0.1245
      2  CA        18.7200    0.3980   21.2230 C.3    93  ALA93       0.1562
      3  C         18.5910    1.1880   19.9170 C.2    93  ALA93       0.2260
      4  O         19.5430    1.2900   19.1200 O.2    93  ALA93      -0.2867
      5  CB        20.0500   -0.3090   21.2950 C.3    93  ALA93       0.0290
      6  N         17.0360    4.7920   18.0850 N.3    95  ALA95      -0.1231
      7  CA        16.5460    6.1550   18.1380 C.3    95  ALA95       0.1694
      8  C         16.9150    6.8260   16.8500 C.2    95  ALA95       0.2592
      9  O         17.9550    6.5020   16.2630 O.2    95  ALA95      -0.2718
     10  CB        17.1800    6.9190   19.3140 C.3    95  ALA95       0.0304
     11  N         16.0660    7.7660   16.4280 N.am   96  PHE96      -0.1962
     12  CA        16.3250    8.6230   15.2850 C.3    96  PHE96       0.1771
     13  C         15.5590    9.9270   15.3850 C.2    96  PHE96       0.2619
     14  O         14.4230    9.9580   15.8510 O.2    96  PHE96      -0.2715
     15  CB        15.9100    7.9470   13.9690 C.3    96  PHE96       0.0574
     16  CG        16.1480    8.7980   12.7490 C.ar   96  PHE96      -0.0200
     17  CD1       17.4490    9.0590   12.3100 C.ar   96  PHE96      -0.0042
     18  CD2       15.0810    9.3350   12.0370 C.ar   96  PHE96      -0.0042
     19  CE1       17.6800    9.8540   11.1620 C.ar   96  PHE96      -0.0003
     20  CE2       15.3100   10.1450   10.8920 C.ar   96  PHE96      -0.0003
     21  CZ        16.5990   10.3820   10.4530 C.ar   96  PHE96      -0.0000
     22  N         16.1920   10.9970   14.9210 N.am   97  ALA97      -0.1977
     23  CA        15.4930   12.2490   14.6250 C.3    97  ALA97       0.1597
     24  C         16.1790   12.8410   13.3940 C.2    97  ALA97       0.2287
     25  O         17.4110   12.7940   13.3140 O.2    97  ALA97      -0.2864
     26  CB        15.5910   13.2440   15.8190 C.3    97  ALA97       0.0319
     27  N         17.4360   18.2900   14.7140 N.3   102  MET102     -0.1245
     28  CA        18.5170   18.3490   15.6940 C.3   102  MET102      0.1570
     29  C         19.3680   19.6060   15.5450 C.2   102  MET102      0.2261
     30  O         19.9650   20.0840   16.5170 O.2   102  MET102     -0.2867
     31  CB        19.4090   17.1080   15.5600 C.3   102  MET102      0.0387
     32  CG        18.6460   15.7690   15.7850 C.3   102  MET102      0.0595
     33  SD        17.8830   15.6730   17.4340 S.3   102  MET102     -0.1393
     34  CE        19.3830   15.4830   18.3760 C.3   102  MET102      0.0692
     35  N         18.3370    9.0920   27.7980 N.3   147  TYR147     -0.1241
     36  CA        19.3340   10.1160   28.1140 C.3   147  TYR147      0.1605
     37  C         18.7080   11.2170   29.0110 C.2   147  TYR147      0.2264
     38  O         17.5180   11.5000   28.8960 O.2   147  TYR147     -0.2867
     39  CB        19.8610   10.7020   26.8010 C.3   147  TYR147      0.0534
     40  CG        20.9260   11.7200   27.0060 C.ar  147  TYR147     -0.0201
     41  CD1       22.1240   11.3840   27.6360 C.ar  147  TYR147     -0.0009
     42  CD2       20.7470   13.0260   26.5770 C.ar  147  TYR147     -0.0009
     43  CE1       23.1150   12.3290   27.8560 C.ar  147  TYR147      0.0417
     44  CE2       21.7000   13.9720   26.7990 C.ar  147  TYR147      0.0417
     45  CZ        22.8740   13.6320   27.4420 C.ar  147  TYR147      0.1957
     46  OH        23.8050   14.6010   27.6330 O.3   147  TYR147     -0.2866
     47  N         19.7370   18.8160   21.6900 N.3   157  TYR157     -0.1241
     48  CA        19.2100   17.4530   21.7270 C.3   157  TYR157      0.1605
     49  C         17.7460   17.5000   21.3310 C.2   157  TYR157      0.2264
     50  O         17.2080   16.5450   20.7760 O.2   157  TYR157     -0.2867
     51  CB        19.3890   16.8970   23.1240 C.3   157  TYR157      0.0534
     52  CG        19.2570   15.4050   23.2170 C.ar  157  TYR157     -0.0201
     53  CD1       20.1500   14.5610   22.5450 C.ar  157  TYR157     -0.0009
     54  CD2       18.2620   14.8300   23.9950 C.ar  157  TYR157     -0.0009
     55  CE1       20.0390   13.1840   22.6520 C.ar  157  TYR157      0.0417
     56  CE2       18.1370   13.4460   24.1030 C.ar  157  TYR157      0.0417
     57  CZ        19.0340   12.6310   23.4440 C.ar  157  TYR157      0.1957
     58  OH        18.9000   11.2650   23.5580 O.3   157  TYR157     -0.2866
     59  N         14.7190   14.8770   20.4860 N.3   160  MET160     -0.1245
     60  CA        15.1320   13.6120   21.1040 C.3   160  MET160      0.1570
     61  C         14.8750   13.6330   22.6110 C.2   160  MET160      0.2261
     62  O         14.5760   12.5870   23.2150 O.2   160  MET160     -0.2867
     63  CB        16.5940   13.2840   20.7810 C.3   160  MET160      0.0387
     64  CG        16.9520   11.8210   21.0250 C.3   160  MET160      0.0595
     65  SD        15.9400   10.6330   20.1310 S.3   160  MET160     -0.1393
     66  CE        16.6470   10.8500   18.4920 C.3   160  MET160      0.0692
     67  N         12.6860   10.8540   24.4770 N.3   164  LYS164     -0.1245
     68  CA        13.1770   10.0950   25.6060 C.3   164  LYS164      0.1561
     69  C         12.2460   10.2150   26.8300 C.2   164  LYS164      0.2260
     70  O         12.0410    9.2290   27.5670 O.2   164  LYS164     -0.2867
     71  CB        14.6100   10.4900   25.9660 C.3   164  LYS164      0.0271
     72  CG        15.6580   10.1520   24.9370 C.3   164  LYS164      0.0035
     73  CD        15.6020    8.6900   24.4700 C.3   164  LYS164      0.0206
     74  CE        16.8860    8.3470   23.7280 C.3   164  LYS164      0.1093
     75  NZ        16.8780    6.9770   23.1450 N.3   164  LYS164     -0.1314
     76  N         25.3560    8.0610   30.0340 N.3   191  GLY191     -0.1210
     77  CA        26.0500    9.3200   29.7060 C.3   191  GLY191      0.1940
     78  C         26.6420    9.2460   28.2980 C.2   191  GLY191      0.2454
     79  O         26.5600    8.1770   27.6440 O.2   191  GLY191     -0.2732
     80  N         27.2350   10.3600   27.8220 N.am  192  PRO192     -0.2717
     81  CA        27.7520   10.4520   26.4580 C.3   192  PRO192      0.1535
     82  C         28.7850    9.3880   26.1480 C.2   192  PRO192      0.2598
     83  O         29.7380    9.2110   26.9300 O.2   192  PRO192     -0.2715
     84  CB        28.4080   11.8530   26.4130 C.3   192  PRO192      0.0310
     85  CG        27.6640   12.6350   27.4020 C.3   192  PRO192      0.0237
     86  CD        27.3420   11.6600   28.5170 C.3   192  PRO192      0.0939
     87  N         28.5740    8.6740   25.0390 N.am  193  VAL193     -0.1978
     88  CA        29.5330    7.6720   24.5480 C.3   193  VAL193      0.1596
     89  C         29.6990    7.8860   23.0390 C.2   193  VAL193      0.2287
     90  O         28.7160    8.0990   22.3400 O.2   193  VAL193     -0.2864
     91  CB        29.0360    6.2090   24.8070 C.3   193  VAL193      0.0276
     92  CG1       30.0020    5.1680   24.1750 C.3   193  VAL193      0.0022
     93  CG2       28.8750    5.9600   26.2730 C.3   193  VAL193      0.0022
     94  N         29.5160    7.0310   19.8410 N.3   195  THR195     -0.1218
     95  CA        28.9540    6.0240   18.9490 C.3   195  THR195      0.1862
     96  C         28.7430    6.6700   17.5960 C.2   195  THR195      0.2287
     97  O         28.9940    7.8730   17.4310 O.2   195  THR195     -0.2866
     98  CB        27.5860    5.5280   19.4660 C.3   195  THR195      0.1770
     99  OG1       26.6700    6.6300   19.4760 O.3   195  THR195     -0.2211
    100  CG2       27.7330    4.9230   20.8880 C.3   195  THR195      0.0375
    101  N         25.8030    7.3520   16.3010 N.3   197  ALA197     -0.1231
    102  CA        24.7620    8.3460   16.4890 C.3   197  ALA197      0.1694
    103  C         25.2610    9.6130   17.2160 C.2   197  ALA197      0.2591
    104  O         24.6130   10.6540   17.1400 O.2   197  ALA197     -0.2718
    105  CB        23.5980    7.7330   17.2480 C.3   197  ALA197      0.0304
    106  N         26.4010    9.5340   17.9070 N.am  198  ALA198     -0.1980
    107  CA        26.9870   10.7010   18.5900 C.3   198  ALA198      0.1597
    108  C         27.2320   11.8900   17.6280 C.2   198  ALA198      0.2287
    109  O         27.0350   13.0450   18.0040 O.2   198  ALA198     -0.2864
    110  CB        28.2900   10.3160   19.3190 C.3   198  ALA198      0.0319
    111  N         25.3690   12.7820   15.2050 N.3   200  SER200     -0.1202
    112  CA        24.0880   13.4360   14.9540 C.3   200  SER200      0.2020
    113  C         23.6680   14.4630   16.0280 C.2   200  SER200      0.2618
    114  O         22.5950   15.0680   15.9230 O.2   200  SER200     -0.2717
    115  CB        22.9720   12.3830   14.8380 C.3   200  SER200      0.2103
    116  OG        23.1800   11.4910   13.7570 O.3   200  SER200     -0.2182
    117  N         24.4390   14.6350   17.0920 N.am  201  ILE201     -0.1979
    118  CA        24.1020   15.7070   18.0350 C.3   201  ILE201      0.1595
    119  C         25.1140   16.8100   17.8350 C.2   201  ILE201      0.2287
    120  O         26.2980   16.5960   18.0780 O.2   201  ILE201     -0.2864
    121  CB        24.0990   15.3000   19.5260 C.3   201  ILE201      0.0276
    122  CG1       23.2940   14.0120   19.7600 C.3   201  ILE201      0.0022
    123  CG2       23.5340   16.4610   20.3840 C.3   201  ILE201      0.0022
    124  CD1       23.3490   13.5170   21.1980 C.3   201  ILE201      0.0001
    125  N         28.0660   17.5720   20.3730 N.3   204  PHE204     -0.1241
    126  CA        28.3420   16.3550   21.1250 C.3   204  PHE204      0.1605
    127  C         29.7020   16.4230   21.8030 C.2   204  PHE204      0.2264
    128  O         29.8270   16.0590   22.9620 O.2   204  PHE204     -0.2867
    129  CB        28.2950   15.1020   20.2560 C.3   204  PHE204      0.0534
    130  CG        28.5950   13.8540   21.0320 C.ar  204  PHE204     -0.0203
    131  CD1       27.6030   13.2520   21.7970 C.ar  204  PHE204     -0.0042
    132  CD2       29.8850   13.3270   21.0680 C.ar  204  PHE204     -0.0042
    133  CE1       27.8860   12.1280   22.5380 C.ar  204  PHE204     -0.0003
    134  CE2       30.1750   12.1880   21.8220 C.ar  204  PHE204     -0.0003
    135  CZ        29.1850   11.5930   22.5510 C.ar  204  PHE204     -0.0000
    136  N         29.4760   18.4120   24.8880 N.3   207  MET207     -0.1245
    137  CA        28.7680   17.5940   25.9070 C.3   207  MET207      0.1570
    138  C         29.7220   16.6160   26.5700 C.2   207  MET207      0.2261
    139  O         29.7810   16.4960   27.7860 O.2   207  MET207     -0.2867
    140  CB        27.6250   16.7920   25.2670 C.3   207  MET207      0.0387
    141  CG        26.4210   17.6220   24.9110 C.3   207  MET207      0.0595
    142  SD        25.2480   16.8080   23.8290 S.3   207  MET207     -0.1393
    143  CE        24.8940   15.3020   24.7640 C.3   207  MET207      0.0692
@<TRIPOS>BOND
     1    21    20   ar
     2    21    19   ar
     3    20    18   ar
     4    19    17   ar
     5    18    16   ar
     6    17    16   ar
     7    16    15    1
     8    25    24    2
     9    24    23    1
    10   116   115    1
    11    15    12    1
    12    23    22    1
    13    23    26    1
    14    27    28    1
    15   115   112    1
    16    22    13   am
    17   112   111    1
    18   112   113    1
    19    12    13    1
    20    12    11    1
    21    13    14    2
    22    29    28    1
    23    29    30    2
    24    31    28    1
    25    31    32    1
    26    32    33    1
    27   114   113    2
    28   113   117   am
    29     9     8    2
    30   101   102    1
    31    11     8   am
    32   102   103    1
    33   102   105    1
    34     8     7    1
    35   117   118    1
    36   104   103    2
    37   103   106   am
    38    97    96    2
    39    33    34    1
    40    96    95    1
    41   108   109    2
    42   108   107    1
    43   119   118    1
    44   119   120    2
    45   106   107    1
    46   118   121    1
    47     6     7    1
    48     7    10    1
    49    66    65    1
    50   107   110    1
    51    95    98    1
    52    95    94    1
    53     4     3    2
    54    98    99    1
    55    98   100    1
    56   121   122    1
    57   121   123    1
    58   122   124    1
    59     3     2    1
    60    65    64    1
    61   129   130    1
    62   129   126    1
    63   125   126    1
    64    59    60    1
    65    50    49    2
    66    63    64    1
    67    63    60    1
    68   130   132   ar
    69   130   131   ar
    70   132   134   ar
    71    60    61    1
    72   126   127    1
    73     2     5    1
    74     2     1    1
    75    49    48    1
    76    47    48    1
    77    48    51    1
    78   131   133   ar
    79   127   128    2
    80   134   135   ar
    81    90    89    2
    82   133   135   ar
    83    53    55   ar
    84    53    52   ar
    85    61    62    2
    86    55    57   ar
    87    89    88    1
    88    51    52    1
    89    75    74    1
    90    52    54   ar
    91    57    58    1
    92    57    56   ar
    93    74    73    1
    94   142   143    1
    95   142   141    1
    96    54    56   ar
    97    92    91    1
    98    73    72    1
    99    67    68    1
   100    88    91    1
   101    88    87    1
   102    91    93    1
   103   136   137    1
   104   141   140    1
   105    72    71    1
   106    87    82   am
   107   140   137    1
   108    68    71    1
   109    68    69    1
   110   137   138    1
   111    82    81    1
   112    82    83    2
   113    84    81    1
   114    84    85    1
   115    81    80    1
   116   138   139    2
   117    42    44   ar
   118    42    40   ar
   119    44    45   ar
   120    39    40    1
   121    39    36    1
   122    69    70    2
   123    40    41   ar
   124    85    86    1
   125    45    46    1
   126    45    43   ar
   127    41    43   ar
   128    79    78    2
   129    35    36    1
   130    80    78   am
   131    80    86    1
   132    36    37    1
   133    78    77    1
   134    38    37    2
   135    77    76    1
