@<TRIPOS>MOLECULE
tmp/2wzfA00.pdb
 170 165 0 0 0
SMALL
GASTEIGER

@<TRIPOS>ATOM
      1  N         -2.2700    7.2480   24.9390 N.3   130  ILE130     -0.1231
      2  CA        -3.2760    6.1840   24.8840 C.3   130  ILE130      0.1692
      3  C         -2.8750    5.0650   25.8230 C.2   130  ILE130      0.2592
      4  O         -1.7170    4.6220   25.8280 O.2   130  ILE130     -0.2718
      5  CB        -3.4080    5.6160   23.4480 C.3   130  ILE130      0.0266
      6  CG1       -3.8610    6.7260   22.4860 C.3   130  ILE130      0.0019
      7  CG2       -4.3860    4.4140   23.4180 C.3   130  ILE130      0.0020
      8  CD1       -3.8080    6.3510   21.0480 C.3   130  ILE130      0.0001
      9  N         -3.8160    4.6240   26.6520 N.am  131  TRP131     -0.1962
     10  CA        -3.5750    3.4040   27.4160 C.3   131  TRP131      0.1771
     11  C         -4.7820    2.4900   27.4970 C.2   131  TRP131      0.2619
     12  O         -5.7610    2.7830   28.1740 O.2   131  TRP131     -0.2715
     13  CB        -3.0110    3.6600   28.8210 C.3   131  TRP131      0.0590
     14  CG        -2.5070    2.3630   29.4020 C.ar  131  TRP131      0.0006
     15  CD1       -3.1600    1.5410   30.2830 C.ar  131  TRP131      0.0946
     16  CD2       -1.2700    1.7170   29.0930 C.ar  131  TRP131      0.0152
     17  NE1       -2.3900    0.4230   30.5500 N.ar  131  TRP131     -0.2442
     18  CE2       -1.2260    0.5120   29.8320 C.ar  131  TRP131      0.0810
     19  CE3       -0.1890    2.0400   28.2640 C.ar  131  TRP131      0.0012
     20  CZ2       -0.1460   -0.3530   29.7700 C.ar  131  TRP131      0.0191
     21  CZ3        0.8770    1.1720   28.2000 C.ar  131  TRP131      0.0001
     22  CH2        0.8890   -0.0090   28.9460 C.ar  131  TRP131      0.0015
     23  N         -4.6980    1.3730   26.7850 N.am  132  PHE132     -0.1974
     24  CA        -5.7010    0.3320   26.8870 C.3   132  PHE132      0.1639
     25  C         -5.1520   -0.8030   27.7510 C.2   132  PHE132      0.2290
     26  O         -4.1400   -1.4140   27.4140 O.2   132  PHE132     -0.2864
     27  CB        -6.0690   -0.1970   25.5010 C.3   132  PHE132      0.0560
     28  CG        -6.6110    0.8410   24.5760 C.ar  132  PHE132     -0.0200
     29  CD1       -7.6630    1.6540   24.9690 C.ar  132  PHE132     -0.0042
     30  CD2       -6.0920    0.9780   23.2950 C.ar  132  PHE132     -0.0042
     31  CE1       -8.1690    2.6060   24.1120 C.ar  132  PHE132     -0.0003
     32  CE2       -6.5900    1.9210   22.4330 C.ar  132  PHE132     -0.0003
     33  CZ        -7.6410    2.7410   22.8420 C.ar  132  PHE132     -0.0000
     34  N         -4.9170   -4.4890   29.4830 N.3   134  ILE134     -0.1245
     35  CA        -5.3100   -5.8860   29.2850 C.3   134  ILE134      0.1561
     36  C         -5.6390   -6.5940   30.6050 C.2   134  ILE134      0.2260
     37  O         -5.9380   -7.7770   30.6070 O.2   134  ILE134     -0.2867
     38  CB        -4.2510   -6.7170   28.5090 C.3   134  ILE134      0.0252
     39  CG1       -2.9690   -6.8700   29.3320 C.3   134  ILE134      0.0019
     40  CG2       -3.9430   -6.0750   27.1590 C.3   134  ILE134      0.0019
     41  CD1       -1.9230   -7.8130   28.6880 C.3   134  ILE134      0.0001
     42  N         -3.4460   -4.5190   22.2720 N.3   217  PRO217     -0.2102
     43  CA        -3.7030   -3.1510   22.7230 C.3   217  PRO217      0.1504
     44  C         -2.8050   -2.1010   22.0510 C.2   217  PRO217      0.2575
     45  O         -3.2040   -0.9580   21.9360 O.2   217  PRO217     -0.2718
     46  CB        -3.4190   -3.2320   24.2210 C.3   217  PRO217      0.0282
     47  CG        -2.3700   -4.2820   24.3250 C.3   217  PRO217      0.0208
     48  CD        -2.7390   -5.3150   23.2930 C.3   217  PRO217      0.0893
     49  N         -1.6030   -2.4810   21.6240 N.am  218  ALA218     -0.1980
     50  CA        -0.7590   -1.5670   20.8680 C.3   218  ALA218      0.1597
     51  C         -1.3490   -1.3680   19.4700 C.2   218  ALA218      0.2287
     52  O         -1.3360   -0.2590   18.9250 O.2   218  ALA218     -0.2864
     53  CB         0.6790   -2.1030   20.7790 C.3   218  ALA218      0.0319
     54  N         -4.2130    1.0400   19.8820 N.3   221  SER221     -0.1217
     55  CA        -3.5610    2.3360   20.0520 C.3   221  SER221      0.1889
     56  C         -3.0150    2.8860   18.7180 C.2   221  SER221      0.2288
     57  O         -3.1500    4.0690   18.4280 O.2   221  SER221     -0.2866
     58  CB        -2.4370    2.1700   21.0810 C.3   221  SER221      0.2089
     59  OG        -1.6670    3.3400   21.2330 O.3   221  SER221     -0.2183
     60  N         -4.5420    6.7040   16.4560 N.3   225  ARG225     -0.1245
     61  CA        -3.7210    7.8410   16.0190 C.3   225  ARG225      0.1563
     62  C         -4.1590    8.4300   14.6870 C.2   225  ARG225      0.2260
     63  O         -3.7650    9.5410   14.3390 O.2   225  ARG225     -0.2867
     64  CB        -2.2410    7.4380   15.9730 C.3   225  ARG225      0.0307
     65  CG        -1.7890    6.8590   17.2950 C.3   225  ARG225      0.0489
     66  CD        -0.4310    6.1810   17.2170 C.3   225  ARG225      0.2205
     67  NE        -0.3390    5.1760   18.2800 N.pl3 225  ARG225     -0.0865
     68  CZ         0.7630    4.5070   18.5810 C.cat 225  ARG225      0.5346
     69  NH1        1.8790    4.7620   17.9240 N.pl3 225  ARG225      0.1354
     70  NH2        0.7460    3.5950   19.5510 N.pl3 225  ARG225      0.1354
     71  N          0.6370   13.3390   19.2600 N.3   236  TYR236     -0.1241
     72  CA         0.4820   12.0480   19.9090 C.3   236  TYR236      0.1605
     73  C          1.8660   11.6680   20.4210 C.2   236  TYR236      0.2264
     74  O          2.8560   11.8430   19.7160 O.2   236  TYR236     -0.2867
     75  CB         0.0100   10.9560   18.9380 C.3   236  TYR236      0.0534
     76  CG         0.2660    9.6160   19.5650 C.ar  236  TYR236     -0.0201
     77  CD1       -0.5850    9.1290   20.5480 C.ar  236  TYR236     -0.0009
     78  CD2        1.4210    8.8890   19.2650 C.ar  236  TYR236     -0.0009
     79  CE1       -0.3260    7.9360   21.1850 C.ar  236  TYR236      0.0417
     80  CE2        1.6790    7.6910   19.8940 C.ar  236  TYR236      0.0417
     81  CZ         0.8020    7.2250   20.8540 C.ar  236  TYR236      0.1957
     82  OH         1.0450    6.0430   21.5030 O.3   236  TYR236     -0.2866
     83  N          3.8600    8.3020   22.6110 N.3   238  ASP238     -0.1225
     84  CA         3.8200    7.0710   23.4050 C.3   238  ASP238      0.1805
     85  C          3.8550    7.5250   24.8690 C.2   238  ASP238      0.2598
     86  O          4.5820    8.4710   25.2380 O.2   238  ASP238     -0.2718
     87  CB         5.0180    6.1750   23.1120 C.3   238  ASP238      0.1424
     88  CG         4.7640    5.1720   21.9990 C.2   238  ASP238      0.3668
     89  OD1        3.7560    5.2870   21.2810 O.co2 238  ASP238     -0.2456
     90  OD2        5.5870    4.2340   21.8540 O.co2 238  ASP238     -0.2456
     91  N          3.0810    6.8440   25.7020 N.am  239  ILE239     -0.1966
     92  CA         2.7710    7.3460   27.0240 C.3   239  ILE239      0.1727
     93  C          4.0070    7.5790   27.9060 C.2   239  ILE239      0.2616
     94  O          4.0340    8.5250   28.6960 O.2   239  ILE239     -0.2715
     95  CB         1.7300    6.4510   27.7280 C.3   239  ILE239      0.0290
     96  CG1        1.1520    7.1540   28.9670 C.3   239  ILE239      0.0022
     97  CG2        2.3200    5.0630   28.0390 C.3   239  ILE239      0.0023
     98  CD1       -0.1960    6.5810   29.4000 C.3   239  ILE239      0.0001
     99  N          5.0390    6.7520   27.7510 N.am  240  ASP240     -0.1971
    100  CA         6.2190    6.8920   28.5920 C.3   240  ASP240      0.1709
    101  C          7.4180    7.6450   27.9750 C.2   240  ASP240      0.2293
    102  O          8.5210    7.5610   28.5070 O.2   240  ASP240     -0.2864
    103  CB         6.6810    5.5090   29.0460 C.3   240  ASP240      0.1436
    104  CG         7.1780    4.6700   27.8940 C.2   240  ASP240      0.3671
    105  OD1        6.4900    4.6380   26.8550 O.co2 240  ASP240     -0.2456
    106  OD2        8.2660    4.0700   28.0120 O.co2 240  ASP240     -0.2456
    107  N          8.9290    6.1960   12.7490 N.3   285  ASN285     -0.1240
    108  CA         8.1870    5.5780   13.8340 C.3   285  ASN285      0.1653
    109  C          7.0050    6.4610   14.2260 C.2   285  ASN285      0.2266
    110  O          6.9780    7.6600   13.9510 O.2   285  ASN285     -0.2867
    111  CB         9.0900    5.2760   15.0390 C.3   285  ASN285      0.1155
    112  CG         8.4790    4.2490   15.9890 C.2   285  ASN285      0.2627
    113  OD1        7.9410    3.2380   15.5580 O.2   285  ASN285     -0.2716
    114  ND2        8.5520    4.5160   17.2820 N.am  285  ASN285     -0.0877
    115  N          5.7240    6.7040   17.3950 N.3   287  ASP287     -0.1239
    116  CA         5.6670    7.0470   18.8260 C.3   287  ASP287      0.1674
    117  C          5.5860    8.5480   19.0660 C.2   287  ASP287      0.2266
    118  O          5.2310    8.9980   20.1530 O.2   287  ASP287     -0.2867
    119  CB         6.8130    6.4120   19.6240 C.3   287  ASP287      0.1410
    120  CG         8.1890    6.7600   19.0920 C.2   287  ASP287      0.3668
    121  OD1        8.3350    7.4230   18.0220 O.co2 287  ASP287     -0.2456
    122  OD2        9.1540    6.3310   19.7570 O.co2 287  ASP287     -0.2456
    123  N         13.5510    4.6150   19.8700 N.3   491  ASN491     -0.1240
    124  CA        13.0150    3.5090   19.0580 C.3   491  ASN491      0.1653
    125  C         13.6990    3.2790   17.7060 C.2   491  ASN491      0.2266
    126  O         13.8560    2.1380   17.2600 O.2   491  ASN491     -0.2867
    127  CB        11.5070    3.6480   18.8410 C.3   491  ASN491      0.1155
    128  CG        10.7050    2.8980   19.8790 C.2   491  ASN491      0.2627
    129  OD1        9.9100    2.0040   19.5530 O.2   491  ASN491     -0.2716
    130  ND2       10.9270    3.2380   21.1470 N.am  491  ASN491     -0.0877
    131  N         15.3150    0.8590   21.2320 N.3   506  ASN506     -0.1240
    132  CA        14.2030    0.5550   22.1150 C.3   506  ASN506      0.1653
    133  C         14.6000   -0.4170   23.2260 C.2   506  ASN506      0.2266
    134  O         14.0070   -1.4900   23.3600 O.2   506  ASN506     -0.2867
    135  CB        13.0620   -0.0530   21.2980 C.3   506  ASN506      0.1155
    136  CG        11.7540   -0.0890   22.0610 C.2   506  ASN506      0.2627
    137  OD1       11.6000    0.5890   23.0720 O.2   506  ASN506     -0.2716
    138  ND2       10.8080   -0.8850   21.5830 N.am  506  ASN506     -0.0877
    139  N         11.7020   -1.1450   25.8550 N.3   509  GLY509     -0.1210
    140  CA        10.3450   -1.0060   25.3280 C.3   509  GLY509      0.1956
    141  C          9.6090   -2.3200   25.1410 C.2   509  GLY509      0.2612
    142  O          9.9020   -3.3040   25.8210 O.2   509  GLY509     -0.2717
    143  N          8.6480   -2.3170   24.2170 N.am  510  LEU510     -0.1965
    144  CA         7.8680   -3.4970   23.8380 C.3   510  LEU510      0.1728
    145  C          6.9600   -4.0540   24.9340 C.2   510  LEU510      0.2617
    146  O          7.0110   -5.2490   25.2440 O.2   510  LEU510     -0.2715
    147  CB         8.7790   -4.6030   23.3110 C.3   510  LEU510      0.0311
    148  CG         8.9060   -4.7510   21.8000 C.3   510  LEU510      0.0022
    149  CD1       10.1920   -5.4880   21.4620 C.3   510  LEU510      0.0001
    150  CD2        7.6940   -5.5080   21.2550 C.3   510  LEU510      0.0001
    151  N          6.1130   -3.2070   25.5000 N.am  511  SER511     -0.1936
    152  CA         5.1750   -3.6700   26.5150 C.3   511  SER511      0.2055
    153  C          4.0450   -4.5390   25.9400 C.2   511  SER511      0.2643
    154  O          3.3130   -5.1930   26.6870 O.2   511  SER511     -0.2714
    155  CB         4.5880   -2.4790   27.2800 C.3   511  SER511      0.2130
    156  OG         3.7510   -1.7020   26.4450 O.3   511  SER511     -0.2179
    157  N          3.9090   -4.5610   24.6170 N.am  512  TRP512     -0.1973
    158  CA         2.7120   -5.1190   23.9930 C.3   512  TRP512      0.1640
    159  C          2.8390   -6.5520   23.4590 C.2   512  TRP512      0.2290
    160  O          1.8720   -7.1090   22.9620 O.2   512  TRP512     -0.2864
    161  CB         2.2300   -4.1970   22.8750 C.3   512  TRP512      0.0576
    162  CG         3.3280   -3.7910   21.9420 C.ar  512  TRP512      0.0006
    163  CD1        4.1420   -2.6990   22.0590 C.ar  512  TRP512      0.0946
    164  CD2        3.7380   -4.4750   20.7490 C.ar  512  TRP512      0.0152
    165  NE1        5.0230   -2.6580   21.0140 N.ar  512  TRP512     -0.2442
    166  CE2        4.7980   -3.7340   20.1920 C.ar  512  TRP512      0.0810
    167  CE3        3.3080   -5.6400   20.1000 C.ar  512  TRP512      0.0012
    168  CZ2        5.4440   -4.1180   19.0150 C.ar  512  TRP512      0.0191
    169  CZ3        3.9450   -6.0220   18.9260 C.ar  512  TRP512      0.0001
    170  CH2        5.0040   -5.2620   18.3940 C.ar  512  TRP512      0.0015
@<TRIPOS>BOND
     1   107   108    1
     2   108   109    1
     3   108   111    1
     4   110   109    2
     5    63    62    2
     6    62    61    1
     7   111   112    1
     8   113   112    2
     9    64    61    1
    10    64    65    1
    11   112   114   am
    12    61    60    1
    13    66    65    1
    14    66    67    1
    15   126   125    2
    16   115   116    1
    17   125   124    1
    18    69    68    1
    19   121   120   ar
    20    67    68    2
    21   170   169   ar
    22   170   168   ar
    23    57    56    2
    24    68    70    1
    25    56    55    1
    26   116   117    1
    27   116   119    1
    28   127   124    1
    29   127   128    1
    30    52    51    2
    31   169   167   ar
    32    75    76    1
    33    75    72    1
    34   168   166   ar
    35   124   123    1
    36   117   118    2
    37   120   119    1
    38   120   122   ar
    39    71    72    1
    40    78    76   ar
    41    78    80   ar
    42    51    50    1
    43   129   128    2
    44    76    77   ar
    45    74    73    2
    46   128   130   am
    47    54    55    1
    48    80    81   ar
    49    72    73    1
    50    55    58    1
    51   167   164   ar
    52   166   164   ar
    53   166   165   ar
    54    77    79   ar
    55   164   162   ar
    56    53    50    1
    57    81    79   ar
    58    81    82    1
    59    50    49    1
    60   165   163   ar
    61     8     6    1
    62    58    59    1
    63   131   132    1
    64   150   148    1
    65    89    88   ar
    66   135   136    1
    67   135   132    1
    68   149   148    1
    69   138   136   am
    70    49    44   am
    71   148   147    1
    72    90    88   ar
    73    45    44    2
    74   162   163   ar
    75   162   161    1
    76    88    87    1
    77    44    43    1
    78   136   137    2
    79   132   133    1
    80    42    43    1
    81    42    48    1
    82    32    33   ar
    83    32    30   ar
    84     6     5    1
    85    83    84    1
    86    43    46    1
    87    33    31   ar
    88   161   158    1
    89   160   159    2
    90    87    84    1
    91   133   134    2
    92    48    47    1
    93    30    28   ar
    94   147   144    1
    95    84    85    1
    96     7     5    1
    97     5     2    1
    98   159   158    1
    99   144   143    1
   100   144   145    1
   101   158   157    1
   102    31    29   ar
   103   143   141   am
   104    46    47    1
   105    28    29   ar
   106    28    27    1
   107   157   153   am
   108    85    86    2
   109    85    91   am
   110     2     1    1
   111     2     3    1
   112   145   146    2
   113   145   151   am
   114   141   140    1
   115   141   142    2
   116   140   139    1
   117   151   152    1
   118    27    24    1
   119    91    92    1
   120     3     4    2
   121     3     9   am
   122   153   152    1
   123   153   154    2
   124   156   155    1
   125   152   155    1
   126     9    10    1
   127    23    24    1
   128    23    11   am
   129   105   104   ar
   130    24    25    1
   131    92    95    1
   132    92    93    1
   133    40    38    1
   134    26    25    2
   135    10    11    1
   136    10    13    1
   137    11    12    2
   138    95    97    1
   139    95    96    1
   140    99    93   am
   141    99   100    1
   142   104   106   ar
   143   104   103    1
   144    93    94    2
   145   101   102    2
   146   101   100    1
   147    21    19   ar
   148    21    22   ar
   149    19    16   ar
   150    38    35    1
   151    38    39    1
   152   100   103    1
   153    41    39    1
   154    13    14    1
   155    22    20   ar
   156    96    98    1
   157    16    14   ar
   158    16    18   ar
   159    35    34    1
   160    35    36    1
   161    14    15   ar
   162    20    18   ar
   163    18    17   ar
   164    15    17   ar
   165    36    37    2
