@<TRIPOS>MOLECULE
tmp/2wzfA01.pdb
 112 105 0 0 0
SMALL
GASTEIGER

@<TRIPOS>ATOM
      1  N         -1.6030   -2.4810   21.6240 N.3   218  ALA218     -0.1245
      2  CA        -0.7590   -1.5670   20.8680 C.3   218  ALA218      0.1562
      3  C         -1.3490   -1.3680   19.4700 C.2   218  ALA218      0.2260
      4  O         -1.3360   -0.2590   18.9250 O.2   218  ALA218     -0.2867
      5  CB         0.6790   -2.1030   20.7790 C.3   218  ALA218      0.0290
      6  N         -2.3970    2.0260   17.9150 N.3   222  ASP222     -0.1239
      7  CA        -1.9040    2.4120   16.5920 C.3   222  ASP222      0.1674
      8  C         -3.0040    3.0010   15.7410 C.2   222  ASP222      0.2266
      9  O         -2.7840    3.9680   15.0090 O.2   222  ASP222     -0.2867
     10  CB        -1.3580    1.1980   15.8380 C.3   222  ASP222      0.1410
     11  CG        -0.0420    0.7050   16.3940 C.2   222  ASP222      0.3668
     12  OD1        0.5810    1.4460   17.1920 O.co2 222  ASP222     -0.2456
     13  OD2        0.3730   -0.4180   16.0260 O.co2 222  ASP222     -0.2456
     14  N         -4.5420    6.7040   16.4560 N.3   225  ARG225     -0.1245
     15  CA        -3.7210    7.8410   16.0190 C.3   225  ARG225      0.1563
     16  C         -4.1590    8.4300   14.6870 C.2   225  ARG225      0.2260
     17  O         -3.7650    9.5410   14.3390 O.2   225  ARG225     -0.2867
     18  CB        -2.2410    7.4380   15.9730 C.3   225  ARG225      0.0307
     19  CG        -1.7890    6.8590   17.2950 C.3   225  ARG225      0.0489
     20  CD        -0.4310    6.1810   17.2170 C.3   225  ARG225      0.2205
     21  NE        -0.3390    5.1760   18.2800 N.pl3 225  ARG225     -0.0865
     22  CZ         0.7630    4.5070   18.5810 C.cat 225  ARG225      0.5346
     23  NH1        1.8790    4.7620   17.9240 N.pl3 225  ARG225      0.1354
     24  NH2        0.7460    3.5950   19.5510 N.pl3 225  ARG225      0.1354
     25  N          3.8600    8.3020   22.6110 N.3   238  ASP238     -0.1239
     26  CA         3.8200    7.0710   23.4050 C.3   238  ASP238      0.1674
     27  C          3.8550    7.5250   24.8690 C.2   238  ASP238      0.2266
     28  O          4.5820    8.4710   25.2380 O.2   238  ASP238     -0.2867
     29  CB         5.0180    6.1750   23.1120 C.3   238  ASP238      0.1410
     30  CG         4.7640    5.1720   21.9990 C.2   238  ASP238      0.3668
     31  OD1        3.7560    5.2870   21.2810 O.co2 238  ASP238     -0.2456
     32  OD2        5.5870    4.2340   21.8540 O.co2 238  ASP238     -0.2456
     33  N          8.9290    6.1960   12.7490 N.3   285  ASN285     -0.1225
     34  CA         8.1870    5.5780   13.8340 C.3   285  ASN285      0.1785
     35  C          7.0050    6.4610   14.2260 C.2   285  ASN285      0.2598
     36  O          6.9780    7.6600   13.9510 O.2   285  ASN285     -0.2718
     37  CB         9.0900    5.2760   15.0390 C.3   285  ASN285      0.1169
     38  CG         8.4790    4.2490   15.9890 C.2   285  ASN285      0.2627
     39  OD1        7.9410    3.2380   15.5580 O.2   285  ASN285     -0.2716
     40  ND2        8.5520    4.5160   17.2820 N.am  285  ASN285     -0.0877
     41  N          6.0340    5.8540   14.8830 N.am  286  THR286     -0.1939
     42  CA         4.7670    6.5010   15.1630 C.3   286  THR286      0.2028
     43  C          4.6240    6.7980   16.6520 C.2   286  THR286      0.2642
     44  O          3.5280    7.1140   17.1240 O.2   286  THR286     -0.2714
     45  CB         3.6240    5.5760   14.7320 C.3   286  THR286      0.1808
     46  OG1        3.8920    4.2580   15.2320 O.3   286  THR286     -0.2208
     47  CG2        3.5470    5.5050   13.2030 C.3   286  THR286      0.0379
     48  N          5.7240    6.7040   17.3950 N.am  287  ASP287     -0.1971
     49  CA         5.6670    7.0470   18.8260 C.3   287  ASP287      0.1709
     50  C          5.5860    8.5480   19.0660 C.2   287  ASP287      0.2293
     51  O          5.2310    8.9980   20.1530 O.2   287  ASP287     -0.2864
     52  CB         6.8130    6.4120   19.6240 C.3   287  ASP287      0.1436
     53  CG         8.1890    6.7600   19.0920 C.2   287  ASP287      0.3671
     54  OD1        8.3350    7.4230   18.0220 O.co2 287  ASP287     -0.2456
     55  OD2        9.1540    6.3310   19.7570 O.co2 287  ASP287     -0.2456
     56  N          1.6700   -6.8600   14.2750 N.3   436  VAL436     -0.1231
     57  CA         1.2240   -5.5250   14.6680 C.3   436  VAL436      0.1692
     58  C          1.8820   -4.4220   13.8040 C.2   436  VAL436      0.2591
     59  O          1.1910   -3.5730   13.2360 O.2   436  VAL436     -0.2718
     60  CB         1.4720   -5.2810   16.1680 C.3   436  VAL436      0.0266
     61  CG1        1.0780   -3.8520   16.5680 C.3   436  VAL436      0.0020
     62  CG2        0.7040   -6.3180   17.0110 C.3   436  VAL436      0.0020
     63  N          3.2090   -4.4550   13.7020 N.am  437  GLU437     -0.1979
     64  CA         3.9910   -3.4260   12.9960 C.3   437  GLU437      0.1602
     65  C          3.6290   -3.2350   11.5280 C.2   437  GLU437      0.2287
     66  O          3.5620   -2.1050   11.0620 O.2   437  GLU437     -0.2864
     67  CB         5.4810   -3.7360   13.0630 C.3   437  GLU437      0.0415
     68  CG         6.0560   -3.7740   14.4520 C.3   437  GLU437      0.1163
     69  CD         7.3760   -4.5480   14.5140 C.2   437  GLU437      0.3649
     70  OE1        7.5920   -5.4530   13.6720 O.co2 437  GLU437     -0.2457
     71  OE2        8.1930   -4.2600   15.4160 O.co2 437  GLU437     -0.2457
     72  N          0.9440   -0.6010   12.6590 N.3   441  GLY441     -0.1210
     73  CA         2.0940    0.1680   13.1470 C.3   441  GLY441      0.1940
     74  C          2.9790    0.8370   12.1020 C.2   441  GLY441      0.2453
     75  O          2.5370    1.1000   10.9840 O.2   441  GLY441     -0.2732
     76  N          4.2380    1.1250   12.4720 N.am  442  PRO442     -0.2728
     77  CA         5.1170    1.9830   11.6750 C.3   442  PRO442      0.1401
     78  C          5.4930    1.4080   10.3120 C.2   442  PRO442      0.2269
     79  O          5.8650    2.1540    9.4010 O.2   442  PRO442     -0.2865
     80  CB         6.3680    2.1400   12.5480 C.3   442  PRO442      0.0296
     81  CG         6.2790    1.0900   13.6110 C.3   442  PRO442      0.0237
     82  CD         4.8390    0.7170   13.7560 C.3   442  PRO442      0.0939
     83  N         13.5510    4.6150   19.8700 N.3   491  ASN491     -0.1240
     84  CA        13.0150    3.5090   19.0580 C.3   491  ASN491      0.1653
     85  C         13.6990    3.2790   17.7060 C.2   491  ASN491      0.2266
     86  O         13.8560    2.1380   17.2600 O.2   491  ASN491     -0.2867
     87  CB        11.5070    3.6480   18.8410 C.3   491  ASN491      0.1155
     88  CG        10.7050    2.8980   19.8790 C.2   491  ASN491      0.2627
     89  OD1        9.9100    2.0040   19.5530 O.2   491  ASN491     -0.2716
     90  ND2       10.9270    3.2380   21.1470 N.am  491  ASN491     -0.0877
     91  N         15.3150    0.8590   21.2320 N.3   506  ASN506     -0.1240
     92  CA        14.2030    0.5550   22.1150 C.3   506  ASN506      0.1653
     93  C         14.6000   -0.4170   23.2260 C.2   506  ASN506      0.2266
     94  O         14.0070   -1.4900   23.3600 O.2   506  ASN506     -0.2867
     95  CB        13.0620   -0.0530   21.2980 C.3   506  ASN506      0.1155
     96  CG        11.7540   -0.0890   22.0610 C.2   506  ASN506      0.2627
     97  OD1       11.6000    0.5890   23.0720 O.2   506  ASN506     -0.2716
     98  ND2       10.8080   -0.8850   21.5830 N.am  506  ASN506     -0.0877
     99  N          3.9090   -4.5610   24.6170 N.3   512  TRP512     -0.1241
    100  CA         2.7120   -5.1190   23.9930 C.3   512  TRP512      0.1605
    101  C          2.8390   -6.5520   23.4590 C.2   512  TRP512      0.2264
    102  O          1.8720   -7.1090   22.9620 O.2   512  TRP512     -0.2867
    103  CB         2.2300   -4.1970   22.8750 C.3   512  TRP512      0.0550
    104  CG         3.3280   -3.7910   21.9420 C.ar  512  TRP512      0.0003
    105  CD1        4.1420   -2.6990   22.0590 C.ar  512  TRP512      0.0946
    106  CD2        3.7380   -4.4750   20.7490 C.ar  512  TRP512      0.0152
    107  NE1        5.0230   -2.6580   21.0140 N.ar  512  TRP512     -0.2442
    108  CE2        4.7980   -3.7340   20.1920 C.ar  512  TRP512      0.0810
    109  CE3        3.3080   -5.6400   20.1000 C.ar  512  TRP512      0.0012
    110  CZ2        5.4440   -4.1180   19.0150 C.ar  512  TRP512      0.0191
    111  CZ3        3.9450   -6.0220   18.9260 C.ar  512  TRP512      0.0001
    112  CH2        5.0040   -5.2620   18.3940 C.ar  512  TRP512      0.0015
@<TRIPOS>BOND
     1    79    78    2
     2    78    77    1
     3    75    74    2
     4    66    65    2
     5    65    64    1
     6    77    76    1
     7    77    80    1
     8    74    76   am
     9    74    73    1
    10    76    82    1
    11    80    81    1
    12    72    73    1
    13    33    34    1
    14    64    67    1
    15    64    63    1
    16    67    68    1
    17    47    45    1
    18    59    58    2
    19    81    82    1
    20    70    69   ar
    21    63    58   am
    22    58    57    1
    23    34    35    1
    24    34    37    1
    25    36    35    2
    26    35    41   am
    27    56    57    1
    28    17    16    2
    29    68    69    1
    30    69    71   ar
    31    57    60    1
    32    16    15    1
    33    45    42    1
    34    45    46    1
    35    41    42    1
    36     9     8    2
    37    37    38    1
    38    42    43    1
    39    39    38    2
    40     8     7    1
    41    10    11    1
    42    10     7    1
    43    18    15    1
    44    18    19    1
    45    38    40   am
    46    15    14    1
    47    13    11   ar
    48    60    61    1
    49    60    62    1
    50    11    12   ar
    51     7     6    1
    52    43    44    2
    53    43    48   am
    54    20    19    1
    55    20    21    1
    56    86    85    2
    57    48    49    1
    58    85    84    1
    59    23    22    1
    60    54    53   ar
    61    21    22    2
    62   112   111   ar
    63   112   110   ar
    64    22    24    1
    65    49    50    1
    66    49    52    1
    67    87    84    1
    68    87    88    1
    69     4     3    2
    70   111   109   ar
    71   110   108   ar
    72    84    83    1
    73    50    51    2
    74    53    52    1
    75    53    55   ar
    76     3     2    1
    77    89    88    2
    78    88    90   am
    79   109   106   ar
    80   108   106   ar
    81   108   107   ar
    82   106   104   ar
    83     5     2    1
    84     2     1    1
    85   107   105   ar
    86    91    92    1
    87    31    30   ar
    88    95    96    1
    89    95    92    1
    90    98    96   am
    91    32    30   ar
    92   104   105   ar
    93   104   103    1
    94    30    29    1
    95    96    97    2
    96    92    93    1
    97    25    26    1
    98   103   100    1
    99   102   101    2
   100    29    26    1
   101    93    94    2
   102    26    27    1
   103   101   100    1
   104   100    99    1
   105    27    28    2
