@<TRIPOS>MOLECULE
tmp/2wziA00.pdb
 159 153 0 0 0
SMALL
GASTEIGER

@<TRIPOS>ATOM
      1  N        -13.1520   -3.3250    2.0860 N.3   126  GLY126     -0.1210
      2  CA       -12.6060   -2.2390    1.2750 C.3   126  GLY126      0.1956
      3  C        -12.8540   -0.8600    1.8730 C.2   126  GLY126      0.2612
      4  O        -12.5530    0.1800    1.2700 O.2   126  GLY126     -0.2717
      5  N        -13.3520   -0.8590    3.0960 N.am  127  PHE127     -0.1962
      6  CA       -13.7140    0.3650    3.8340 C.3   127  PHE127      0.1771
      7  C        -12.5670    1.0840    4.5880 C.2   127  PHE127      0.2619
      8  O        -11.4790    0.5190    4.7950 O.2   127  PHE127     -0.2715
      9  CB       -14.8670    0.0270    4.8160 C.3   127  PHE127      0.0574
     10  CG       -14.5290   -1.0620    5.7940 C.ar  127  PHE127     -0.0200
     11  CD1      -13.6980   -0.7890    6.9020 C.ar  127  PHE127     -0.0042
     12  CD2      -14.9980   -2.3600    5.6080 C.ar  127  PHE127     -0.0042
     13  CE1      -13.3450   -1.8100    7.8180 C.ar  127  PHE127     -0.0003
     14  CE2      -14.6660   -3.3670    6.5200 C.ar  127  PHE127     -0.0003
     15  CZ       -13.8280   -3.0830    7.6220 C.ar  127  PHE127     -0.0000
     16  N        -12.8300    2.3400    4.9630 N.am  128  TYR128     -0.1974
     17  CA       -12.0400    3.1340    5.9310 C.3   128  TYR128      0.1639
     18  C        -12.5250    2.8700    7.3580 C.2   128  TYR128      0.2290
     19  O        -13.7190    2.6430    7.5710 O.2   128  TYR128     -0.2864
     20  CB       -12.1890    4.6330    5.6520 C.3   128  TYR128      0.0560
     21  CG       -11.7250    5.0400    4.2650 C.ar  128  TYR128     -0.0198
     22  CD1      -10.4050    5.4470    4.0380 C.ar  128  TYR128     -0.0009
     23  CD2      -12.6070    5.0270    3.1940 C.ar  128  TYR128     -0.0009
     24  CE1       -9.9760    5.7950    2.7800 C.ar  128  TYR128      0.0417
     25  CE2      -12.1950    5.3860    1.9210 C.ar  128  TYR128      0.0417
     26  CZ       -10.8790    5.7750    1.7200 C.ar  128  TYR128      0.1957
     27  OH       -10.4760    6.1220    0.4550 O.3   128  TYR128     -0.2866
     28  N         -8.7170   -0.0110    3.7660 N.3   157  LYS157     -0.1245
     29  CA        -7.9500    1.1970    3.4480 C.3   157  LYS157      0.1561
     30  C         -6.8750    1.5440    4.4790 C.2   157  LYS157      0.2260
     31  O         -5.8350    2.1370    4.1100 O.2   157  LYS157     -0.2867
     32  CB        -8.8590    2.4300    3.2230 C.3   157  LYS157      0.0271
     33  CG        -9.7580    2.3020    2.0090 C.3   157  LYS157      0.0035
     34  CD        -9.0180    2.6930    0.6890 C.3   157  LYS157      0.0206
     35  CE       -10.0170    2.7320   -0.4920 C.3   157  LYS157      0.1093
     36  NZ       -10.6430    1.4040   -0.8350 N.3   157  LYS157     -0.1314
     37  N         -8.9710    3.5910   -6.2840 N.3   233  ASP233     -0.1225
     38  CA       -10.0910    4.3860   -5.8070 C.3   233  ASP233      0.1805
     39  C         -9.7000    5.3990   -4.7390 C.2   233  ASP233      0.2597
     40  O         -8.9130    5.1070   -3.8270 O.2   233  ASP233     -0.2718
     41  CB       -11.2180    3.5100   -5.3020 C.3   233  ASP233      0.1424
     42  CG       -10.7630    2.5420   -4.2070 C.2   233  ASP233      0.3668
     43  OD1       -9.6110    2.0380   -4.2770 O.co2 233  ASP233     -0.2456
     44  OD2      -11.5550    2.3180   -3.2690 O.co2 233  ASP233     -0.2456
     45  N        -10.2650    6.5960   -4.8690 N.am  234  ASN234     -0.1974
     46  CA       -10.0950    7.6330   -3.8510 C.3   234  ASN234      0.1688
     47  C         -8.6410    8.0790   -3.6920 C.2   234  ASN234      0.2292
     48  O         -8.1190    8.1850   -2.5730 O.2   234  ASN234     -0.2864
     49  CB       -10.7290    7.1530   -2.5140 C.3   234  ASN234      0.1181
     50  CG       -12.2740    7.1120   -2.5850 C.2   234  ASN234      0.2629
     51  OD1      -12.8340    6.8800   -3.6360 O.2   234  ASN234     -0.2716
     52  ND2      -12.9470    7.3510   -1.4620 N.am  234  ASN234     -0.0877
     53  N         -9.9170   -1.8680   -9.5920 N.3   269  CYS269     -0.1235
     54  CA       -10.9260   -0.8350   -9.2930 C.3   269  CYS269      0.1677
     55  C        -10.4570    0.4830   -9.8590 C.2   269  CYS269      0.2270
     56  O         -9.3610    0.9520   -9.5360 O.2   269  CYS269     -0.2867
     57  CB       -11.2020   -0.6740   -7.8010 C.3   269  CYS269      0.0956
     58  SG       -12.5330    0.5300   -7.4330 S.3   269  CYS269     -0.0801
     59  N        -14.9530    5.4410  -10.7140 N.3   273  TYR273     -0.1241
     60  CA       -15.5550    4.1350  -10.4070 C.3   273  TYR273      0.1605
     61  C        -17.0900    4.1020  -10.2450 C.2   273  TYR273      0.2264
     62  O        -17.6500    3.0740   -9.8540 O.2   273  TYR273     -0.2867
     63  CB       -14.8900    3.4920   -9.1840 C.3   273  TYR273      0.0534
     64  CG       -15.0260    4.2710   -7.8870 C.ar  273  TYR273     -0.0201
     65  CD1      -16.2510    4.3540   -7.2020 C.ar  273  TYR273     -0.0009
     66  CD2      -13.9300    4.9350   -7.3520 C.ar  273  TYR273     -0.0009
     67  CE1      -16.3660    5.0810   -5.9890 C.ar  273  TYR273      0.0417
     68  CE2      -14.0350    5.6870   -6.1600 C.ar  273  TYR273      0.0417
     69  CZ       -15.2450    5.7560   -5.4880 C.ar  273  TYR273      0.1957
     70  OH       -15.2910    6.4990   -4.3190 O.3   273  TYR273     -0.2866
     71  N        -19.2760    0.9070   -8.8720 N.3   301  THR301     -0.1218
     72  CA       -20.1590    1.0300   -7.7010 C.3   301  THR301      0.1862
     73  C        -21.5790    1.4910   -8.1010 C.2   301  THR301      0.2287
     74  O        -22.4430    1.6940   -7.2360 O.2   301  THR301     -0.2866
     75  CB       -19.5950    1.9560   -6.5600 C.3   301  THR301      0.1770
     76  OG1      -19.6690    3.3090   -6.9830 O.3   301  THR301     -0.2211
     77  CG2      -18.1270    1.6710   -6.1750 C.3   301  THR301      0.0375
     78  N        -21.2250    6.9770   -5.9000 N.3   305  VAL305     -0.1231
     79  CA       -20.3750    6.2830   -4.9260 C.3   305  VAL305      0.1692
     80  C        -21.1920    5.2180   -4.1910 C.2   305  VAL305      0.2591
     81  O        -20.7460    4.0370   -4.0060 O.2   305  VAL305     -0.2718
     82  CB       -19.7870    7.2910   -3.8860 C.3   305  VAL305      0.0266
     83  CG1      -18.9640    6.5490   -2.8100 C.3   305  VAL305      0.0020
     84  CG2      -18.9840    8.3930   -4.6090 C.3   305  VAL305      0.0020
     85  N        -22.3680    5.6340   -3.7150 N.am  306  ILE306     -0.1980
     86  CA       -23.2990    4.7130   -3.0260 C.3   306  ILE306      0.1595
     87  C        -24.5450    4.6110   -3.8980 C.2   306  ILE306      0.2287
     88  O        -25.2410    5.5960   -4.0890 O.2   306  ILE306     -0.2864
     89  CB       -23.7380    5.1920   -1.6050 C.3   306  ILE306      0.0276
     90  CG1      -22.5850    5.8670   -0.8510 C.3   306  ILE306      0.0022
     91  CG2      -24.3120    3.9880   -0.7850 C.3   306  ILE306      0.0022
     92  CD1      -21.4810    4.9590   -0.4740 C.3   306  ILE306      0.0001
     93  N        -19.0640   -3.4970   -7.2340 N.3   328  TRP328     -0.1241
     94  CA       -18.5880   -3.2120   -5.8870 C.3   328  TRP328      0.1605
     95  C        -19.6900   -2.4350   -5.1810 C.2   328  TRP328      0.2264
     96  O        -19.7510   -1.2080   -5.2640 O.2   328  TRP328     -0.2867
     97  CB       -17.3000   -2.3910   -5.9290 C.3   328  TRP328      0.0550
     98  CG       -16.8620   -1.8940   -4.5860 C.ar  328  TRP328      0.0003
     99  CD1      -17.6650   -1.5580   -3.5350 C.ar  328  TRP328      0.0946
    100  CD2      -15.5160   -1.6750   -4.1480 C.ar  328  TRP328      0.0152
    101  NE1      -16.9020   -1.1440   -2.4700 N.ar  328  TRP328     -0.2442
    102  CE2      -15.5790   -1.2060   -2.8200 C.ar  328  TRP328      0.0810
    103  CE3      -14.2630   -1.8300   -4.7490 C.ar  328  TRP328      0.0012
    104  CZ2      -14.4390   -0.8910   -2.0840 C.ar  328  TRP328      0.0191
    105  CZ3      -13.1320   -1.5160   -4.0170 C.ar  328  TRP328      0.0001
    106  CH2      -13.2280   -1.0530   -2.6990 C.ar  328  TRP328      0.0015
    107  N        -21.8070   -0.6290   -2.5640 N.3   330  ASN330     -0.1240
    108  CA       -21.4920    0.0980   -1.3020 C.3   330  ASN330      0.1653
    109  C        -22.5640    0.1260   -0.2190 C.2   330  ASN330      0.2266
    110  O        -23.0350    1.1780    0.1840 O.2   330  ASN330     -0.2867
    111  CB       -20.9910    1.5090   -1.5960 C.3   330  ASN330      0.1155
    112  CG       -19.5050    1.5090   -1.8310 C.2   330  ASN330      0.2627
    113  OD1      -18.8050    0.6450   -1.2770 O.2   330  ASN330     -0.2716
    114  ND2      -19.0140    2.4090   -2.6830 N.am  330  ASN330     -0.0877
    115  N        -21.6200   -0.6830    4.0010 N.3   333  VAL333     -0.1245
    116  CA       -20.5120    0.1960    4.3940 C.3   333  VAL333      0.1561
    117  C        -21.0370    1.4310    5.0900 C.2   333  VAL333      0.2260
    118  O        -21.9650    2.0510    4.6130 O.2   333  VAL333     -0.2867
    119  CB       -19.5560    0.5700    3.2130 C.3   333  VAL333      0.0252
    120  CG1      -20.3200    1.2590    2.0710 C.3   333  VAL333      0.0019
    121  CG2      -18.4060    1.4580    3.7320 C.3   333  VAL333      0.0019
    122  N        -18.7970    3.8330    6.6330 N.3   335  ASP335     -0.1225
    123  CA       -17.5650    4.4750    7.0660 C.3   335  ASP335      0.1805
    124  C        -17.6610    6.0050    6.9120 C.2   335  ASP335      0.2597
    125  O        -16.7730    6.7490    7.3400 O.2   335  ASP335     -0.2718
    126  CB       -16.3360    3.8350    6.3740 C.3   335  ASP335      0.1424
    127  CG       -16.3250    4.0250    4.8460 C.2   335  ASP335      0.3668
    128  OD1      -17.1520    4.8350    4.3090 O.co2 335  ASP335     -0.2456
    129  OD2      -15.4540    3.3660    4.1940 O.co2 335  ASP335     -0.2456
    130  N        -18.7750    6.4420    6.3300 N.am  336  TYR336     -0.1976
    131  CA       -19.1060    7.8840    6.1710 C.3   336  TYR336      0.1639
    132  C        -20.3230    8.3270    7.0420 C.2   336  TYR336      0.2290
    133  O        -20.6540    9.5280    7.1180 O.2   336  TYR336     -0.2864
    134  CB       -19.3180    8.2240    4.6770 C.3   336  TYR336      0.0560
    135  CG       -20.4610    7.4690    4.0350 C.ar  336  TYR336     -0.0198
    136  CD1      -20.2820    6.1600    3.5930 C.ar  336  TYR336     -0.0009
    137  CD2      -21.7410    8.0380    3.9070 C.ar  336  TYR336     -0.0009
    138  CE1      -21.3200    5.4400    3.0300 C.ar  336  TYR336      0.0417
    139  CE2      -22.8070    7.2970    3.3250 C.ar  336  TYR336      0.0417
    140  CZ       -22.5780    6.0170    2.8830 C.ar  336  TYR336      0.1957
    141  OH       -23.5960    5.2600    2.2980 O.3   336  TYR336     -0.2866
    142  N        -19.3000   -4.0800   -0.0520 N.3   363  ASN363     -0.1240
    143  CA       -18.3850   -3.3760    0.8460 C.3   363  ASN363      0.1653
    144  C        -19.1310   -3.2450    2.2060 C.2   363  ASN363      0.2266
    145  O        -20.1040   -2.4620    2.2920 O.2   363  ASN363     -0.2867
    146  CB       -18.0870   -1.9790    0.2800 C.3   363  ASN363      0.1155
    147  CG       -16.9310   -1.2610    1.0130 C.2   363  ASN363      0.2627
    148  OD1      -16.1680   -1.8940    1.7350 O.2   363  ASN363     -0.2716
    149  ND2      -16.8010    0.0630    0.8010 N.am  363  ASN363     -0.0877
    150  N        -23.4580   11.6010    0.5930 N.3   424  HIS424     -0.1241
    151  CA       -23.6770   10.6910   -0.5290 C.3   424  HIS424      0.1621
    152  C        -25.1140   10.6740   -1.0310 C.2   424  HIS424      0.2264
    153  O        -25.3830   10.1280   -2.1030 O.2   424  HIS424     -0.2867
    154  CB       -23.1780    9.2820   -0.2010 C.3   424  HIS424      0.0745
    155  CG       -21.6860    9.1660   -0.2450 C.ar  424  HIS424      0.0817
    156  ND1      -20.9260    9.8560   -1.1680 N.ar  424  HIS424     -0.2268
    157  CD2      -20.8120    8.4490    0.5070 C.ar  424  HIS424      0.1154
    158  CE1      -19.6480    9.5800   -0.9740 C.ar  424  HIS424      0.1986
    159  NE2      -19.5510    8.7250    0.0320 N.ar  424  HIS424     -0.2212
@<TRIPOS>BOND
     1    59    60    1
     2    60    61    1
     3    60    63    1
     4    61    62    2
     5    55    56    2
     6    55    54    1
     7    53    54    1
     8    54    57    1
     9    63    64    1
    10    71    72    1
    11    73    72    1
    12    73    74    2
    13    64    66   ar
    14    64    65   ar
    15    57    58    1
    16    72    75    1
    17    66    68   ar
    18    93    94    1
    19    65    67   ar
    20    76    75    1
    21    75    77    1
    22    37    38    1
    23    68    69   ar
    24    67    69   ar
    25    97    94    1
    26    97    98    1
    27    78    79    1
    28    94    95    1
    29    38    41    1
    30    38    39    1
    31    69    70    1
    32    41    42    1
    33    96    95    2
    34    79    80    1
    35    79    82    1
    36    45    39   am
    37    45    46    1
    38   103   100   ar
    39   103   105   ar
    40    39    40    2
    41    84    82    1
    42    98   100   ar
    43    98    99   ar
    44    43    42   ar
    45    42    44   ar
    46    80    81    2
    47    80    85   am
    48   100   102   ar
    49    88    87    2
    50   105   106   ar
    51    87    86    1
    52    82    83    1
    53    46    47    1
    54    46    49    1
    55    85    86    1
    56    47    48    2
    57    51    50    2
    58    99   101   ar
    59    86    89    1
    60   102   101   ar
    61   102   104   ar
    62   106   104   ar
    63   114   112   am
    64    50    49    1
    65    50    52   am
    66   107   108    1
    67   153   152    2
    68   112   111    1
    69   112   113    2
    70    89    90    1
    71    89    91    1
    72   111   108    1
    73   108   109    1
    74   156   158   ar
    75   156   155   ar
    76   152   151    1
    77   158   159   ar
    78    90    92    1
    79    36    35    1
    80   151   154    1
    81   151   150    1
    82    35    34    1
    83   155   154    1
    84   155   157   ar
    85   109   110    2
    86   142   143    1
    87   159   157   ar
    88   146   143    1
    89   146   147    1
    90    27    26    1
    91    34    33    1
    92   149   147   am
    93   143   144    1
    94   147   148    2
    95     4     3    2
    96     2     3    1
    97     2     1    1
    98    26    25   ar
    99    26    24   ar
   100     3     5   am
   101    25    23   ar
   102    33    32    1
   103   120   119    1
   104   144   145    2
   105   141   140    1
   106    24    22   ar
   107   140   138   ar
   108   140   139   ar
   109   138   136   ar
   110     5     6    1
   111    23    21   ar
   112   119   121    1
   113   119   116    1
   114    32    29    1
   115   139   137   ar
   116    29    28    1
   117    29    30    1
   118   136   135   ar
   119     6     7    1
   120     6     9    1
   121   137   135   ar
   122   115   116    1
   123   135   134    1
   124    22    21   ar
   125    31    30    2
   126   129   127   ar
   127    21    20    1
   128   128   127   ar
   129   116   117    1
   130     7     8    2
   131     7    16   am
   132   118   117    2
   133   134   131    1
   134     9    10    1
   135   127   126    1
   136    16    17    1
   137    12    10   ar
   138    12    14   ar
   139    20    17    1
   140    10    11   ar
   141    17    18    1
   142   131   130    1
   143   131   132    1
   144   130   124   am
   145   126   123    1
   146    14    15   ar
   147   122   123    1
   148    11    13   ar
   149   124   123    1
   150   124   125    2
   151   132   133    2
   152    18    19    2
   153    15    13   ar
