@<TRIPOS>MOLECULE
tmp/2wzmB00.pdb
 183 173 0 0 0
SMALL
GASTEIGER

@<TRIPOS>ATOM
      1  N         14.4550   23.2720   -6.5180 N.3    19  GLY19      -0.1225
      2  CA        14.5010   23.8460   -7.8640 C.3    19  GLY19       0.1811
      3  C         15.1110   25.2220   -7.7360 C.2    19  GLY19       0.2280
      4  O         14.9080   25.8850   -6.7300 O.2    19  GLY19      -0.2866
      5  N         14.9910   27.6430  -10.3450 N.3    21  GLY21      -0.1225
      6  CA        14.2880   28.6420  -11.1630 C.3    21  GLY21       0.1811
      7  C         15.2630   29.6580  -11.7390 C.2    21  GLY21       0.2280
      8  O         16.3910   29.3050  -12.0910 O.2    21  GLY21      -0.2866
      9  N         16.8080   20.4640   -9.3700 N.3    44  ASP44      -0.1239
     10  CA        16.0900   20.8230  -10.6040 C.3    44  ASP44       0.1674
     11  C         16.5090   22.1900  -11.1510 C.2    44  ASP44       0.2266
     12  O         16.4170   23.2220  -10.4480 O.2    44  ASP44      -0.2867
     13  CB        14.5960   20.7530  -10.3000 C.3    44  ASP44       0.1410
     14  CG        13.7140   21.0580  -11.5010 C.2    44  ASP44       0.3668
     15  OD1       13.1370   20.1030  -12.0650 O.co2  44  ASP44      -0.2456
     16  OD2       13.5420   22.2530  -11.8250 O.co2  44  ASP44      -0.2456
     17  N         16.9390   28.8980  -17.6380 N.3    49  TYR49      -0.1241
     18  CA        17.2160   29.6780  -16.4160 C.3    49  TYR49       0.1605
     19  C         18.6050   30.3350  -16.4990 C.2    49  TYR49       0.2264
     20  O         18.8680   31.3200  -15.8020 O.2    49  TYR49      -0.2867
     21  CB        17.1040   28.8470  -15.1120 C.3    49  TYR49       0.0534
     22  CG        15.8080   28.0510  -14.8540 C.ar   49  TYR49      -0.0201
     23  CD1       14.5640   28.4780  -15.3400 C.ar   49  TYR49      -0.0009
     24  CD2       15.8490   26.8800  -14.0750 C.ar   49  TYR49      -0.0009
     25  CE1       13.3790   27.7360  -15.0690 C.ar   49  TYR49       0.0417
     26  CE2       14.6910   26.1240  -13.8100 C.ar   49  TYR49       0.0417
     27  CZ        13.4650   26.5430  -14.3180 C.ar   49  TYR49       0.1957
     28  OH        12.3360   25.7670  -14.0400 O.3    49  TYR49      -0.2866
     29  N          5.7980   17.6010  -14.9770 N.3   160  GLN160     -0.1245
     30  CA         6.1020   18.6070  -13.9450 C.3   160  GLN160      0.1566
     31  C          5.1950   19.8140  -14.1790 C.2   160  GLN160      0.2260
     32  O          5.3090   20.4840  -15.2050 O.2   160  GLN160     -0.2867
     33  CB         7.5980   18.9910  -13.9700 C.3   160  GLN160      0.0367
     34  CG         7.9440   20.0810  -12.9290 C.3   160  GLN160      0.0905
     35  CD         9.4200   20.5050  -12.9360 C.2   160  GLN160      0.2608
     36  OE1       10.3390   19.6780  -12.8310 O.2   160  GLN160     -0.2717
     37  NE2        9.6440   21.8030  -13.0260 N.am  160  GLN160     -0.0878
     38  N          5.5250   21.8450   -8.9130 N.3   186  TYR186     -0.1227
     39  CA         6.3570   23.0170   -8.6320 C.3   186  TYR186      0.1736
     40  C          5.5500   24.2280   -8.1400 C.2   186  TYR186      0.2596
     41  O          4.3180   24.2270   -8.2050 O.2   186  TYR186     -0.2718
     42  CB         7.2690   23.3560   -9.8170 C.3   186  TYR186      0.0548
     43  CG         6.6270   24.0190  -11.0170 C.ar  186  TYR186     -0.0200
     44  CD1        6.4040   25.3980  -11.0340 C.ar  186  TYR186     -0.0009
     45  CD2        6.3310   23.2810  -12.1730 C.ar  186  TYR186     -0.0009
     46  CE1        5.8470   26.0480  -12.1640 C.ar  186  TYR186      0.0417
     47  CE2        5.7820   23.9200  -13.3160 C.ar  186  TYR186      0.0417
     48  CZ         5.5400   25.2900  -13.3000 C.ar  186  TYR186      0.1957
     49  OH         5.0260   25.9140  -14.4350 O.3   186  TYR186     -0.2866
     50  N          6.2550   25.2330   -7.6150 N.am  187  GLY187     -0.1943
     51  CA         5.6050   26.4040   -7.0260 C.3   187  GLY187      0.1998
     52  C          4.6690   26.1230   -5.8540 C.2   187  GLY187      0.2481
     53  O          3.5860   26.7520   -5.7600 O.2   187  GLY187     -0.2729
     54  N          5.0420   25.1800   -4.9470 N.am  188  PRO188     -0.2715
     55  CA         4.0930   24.7230   -3.8840 C.3   188  PRO188      0.1536
     56  C          3.7190   25.7960   -2.8540 C.2   188  PRO188      0.2598
     57  O          2.6990   25.6480   -2.1790 O.2   188  PRO188     -0.2715
     58  CB         4.8640   23.6010   -3.1760 C.3   188  PRO188      0.0310
     59  CG         6.3310   23.9540   -3.4250 C.3   188  PRO188      0.0237
     60  CD         6.3470   24.5000   -4.8460 C.3   188  PRO188      0.0939
     61  N          4.5180   26.8590   -2.7460 N.am  189  LEU189     -0.1964
     62  CA         4.2470   27.9560   -1.7990 C.3   189  LEU189      0.1728
     63  C          3.5400   29.1640   -2.4430 C.2   189  LEU189      0.2617
     64  O          3.2530   30.1520   -1.7600 O.2   189  LEU189     -0.2715
     65  CB         5.5390   28.4070   -1.0730 C.3   189  LEU189      0.0311
     66  CG         6.3350   27.3400   -0.3110 C.3   189  LEU189      0.0022
     67  CD1        7.4680   28.0000    0.5280 C.3   189  LEU189      0.0001
     68  CD2        5.4560   26.4370    0.5770 C.3   189  LEU189      0.0001
     69  N          3.2550   29.0770   -3.7490 N.am  190  GLY190     -0.1940
     70  CA         2.6220   30.1870   -4.4900 C.3   190  GLY190      0.2014
     71  C          3.4170   31.4860   -4.3640 C.2   190  GLY190      0.2639
     72  O          2.8770   32.5130   -3.9570 O.2   190  GLY190     -0.2714
     73  N          4.7060   31.4140   -4.6730 N.am  191  VAL191     -0.1963
     74  CA         5.6850   32.5170   -4.5090 C.3   191  VAL191      0.1727
     75  C          5.6840   33.1360   -3.1050 C.2   191  VAL191      0.2616
     76  O          6.0450   34.3120   -2.9040 O.2   191  VAL191     -0.2715
     77  CB         5.5950   33.5980   -5.6380 C.3   191  VAL191      0.0290
     78  CG1        5.4940   32.9380   -7.0050 C.3   191  VAL191      0.0023
     79  CG2        4.4420   34.5270   -5.4170 C.3   191  VAL191      0.0023
     80  N          5.3060   32.3160   -2.1250 N.am  192  GLY192     -0.1955
     81  CA         5.2730   32.7470   -0.7460 C.3   192  GLY192      0.1869
     82  C          3.9520   33.3550   -0.3290 C.2   192  GLY192      0.2309
     83  O          3.7220   33.5800    0.8530 O.2   192  GLY192     -0.2863
     84  N          1.7170   31.4150    2.2290 N.3   195  LEU195     -0.1245
     85  CA         2.2100   31.2570    3.5930 C.3   195  LEU195      0.1561
     86  C          1.3280   31.9140    4.6490 C.2   195  LEU195      0.2260
     87  O          1.3480   31.4980    5.8260 O.2   195  LEU195     -0.2867
     88  CB         3.6580   31.7600    3.7260 C.3   195  LEU195      0.0270
     89  CG         4.6960   31.0120    2.9000 C.3   195  LEU195      0.0019
     90  CD1        6.0750   31.6900    2.9810 C.3   195  LEU195      0.0001
     91  CD2        4.7710   29.5450    3.3360 C.3   195  LEU195      0.0001
     92  N          4.9220   24.8020   10.7010 N.3   210  THR210     -0.1218
     93  CA         4.8700   26.0660    9.9270 C.3   210  THR210      0.1862
     94  C          3.9070   25.9700    8.7280 C.2   210  THR210      0.2287
     95  O          3.5760   24.8670    8.2720 O.2   210  THR210     -0.2866
     96  CB         6.2450   26.4530    9.4140 C.3   210  THR210      0.1770
     97  OG1        6.6330   25.5050    8.4080 O.3   210  THR210     -0.2211
     98  CG2        7.2940   26.4380   10.5780 C.3   210  THR210      0.0375
     99  N          4.6530   26.7260    5.6660 N.3   212  ALA212     -0.1245
    100  CA         5.4170   26.0730    4.5980 C.3   212  ALA212      0.1562
    101  C          5.3770   24.5590    4.7500 C.2   212  ALA212      0.2260
    102  O          5.1940   23.8370    3.7590 O.2   212  ALA212     -0.2867
    103  CB         6.8590   26.5540    4.6040 C.3   212  ALA212      0.0290
    104  N          8.8780   19.8720   -5.7720 N.3   227  ILE227     -0.1231
    105  CA        10.0470   20.7300   -5.9710 C.3   227  ILE227      0.1692
    106  C          9.8250   22.0950   -5.2960 C.2   227  ILE227      0.2593
    107  O          8.9060   22.8670   -5.6990 O.2   227  ILE227     -0.2718
    108  CB        10.3240   20.9420   -7.5060 C.3   227  ILE227      0.0266
    109  CG1       10.4200   19.5870   -8.2450 C.3   227  ILE227      0.0019
    110  CG2       11.5430   21.8810   -7.7150 C.3   227  ILE227      0.0020
    111  CD1       11.5610   18.6330   -7.7490 C.3   227  ILE227      0.0001
    112  N         10.5970   22.3780   -4.2480 N.am  228  SER228     -0.1938
    113  CA        10.5160   23.6960   -3.5660 C.3   228  SER228      0.2055
    114  C         11.7710   24.5230   -3.7380 C.2   228  SER228      0.2643
    115  O         12.7870   24.0660   -4.2510 O.2   228  SER228     -0.2714
    116  CB        10.2080   23.5250   -2.0790 C.3   228  SER228      0.2130
    117  OG        11.2360   22.7740   -1.4750 O.3   228  SER228     -0.2179
    118  N         11.7160   25.7520   -3.2510 N.am  229  ARG229     -0.1963
    119  CA        12.8750   26.6320   -3.3350 C.3   229  ARG229      0.1729
    120  C         12.9180   27.5810   -2.1610 C.2   229  ARG229      0.2617
    121  O         11.8830   28.0960   -1.7070 O.2   229  ARG229     -0.2715
    122  CB        12.8430   27.4230   -4.6460 C.3   229  ARG229      0.0348
    123  CG        14.1240   28.2690   -4.8680 C.3   229  ARG229      0.0492
    124  CD        14.0940   29.0450   -6.1620 C.3   229  ARG229      0.2205
    125  NE        12.9410   29.9560   -6.2140 N.pl3 229  ARG229     -0.0865
    126  CZ        12.7130   30.8240   -7.1970 C.cat 229  ARG229      0.5346
    127  NH1       13.5530   30.9030   -8.2400 N.pl3 229  ARG229      0.1354
    128  NH2       11.6280   31.5960   -7.1480 N.pl3 229  ARG229      0.1354
    129  N         14.1400   27.8030   -1.6740 N.am  230  SER230     -0.1936
    130  CA        14.4560   28.9200   -0.7880 C.3   230  SER230      0.2055
    131  C         15.8890   29.3050   -1.0930 C.2   230  SER230      0.2643
    132  O         16.6650   28.4680   -1.5670 O.2   230  SER230     -0.2714
    133  CB        14.3080   28.5310    0.6990 C.3   230  SER230      0.2130
    134  OG        14.8510   29.5250    1.5580 O.3   230  SER230     -0.2179
    135  N         16.2030   30.5790   -0.8500 N.am  231  ALA231     -0.1963
    136  CA        17.5690   31.0980   -0.9690 C.3   231  ALA231      0.1728
    137  C         18.3040   31.0170    0.3740 C.2   231  ALA231      0.2616
    138  O         19.5100   31.2700    0.4550 O.2   231  ALA231     -0.2715
    139  CB        17.5560   32.5450   -1.5030 C.3   231  ALA231      0.0334
    140  N         17.5760   30.6370    1.4300 N.am  232  ASN232     -0.1972
    141  CA        18.0930   30.6690    2.8020 C.3   232  ASN232      0.1688
    142  C         18.4490   29.2750    3.3090 C.2   232  ASN232      0.2292
    143  O         17.5750   28.4010    3.3590 O.2   232  ASN232     -0.2864
    144  CB        17.0540   31.3300    3.7190 C.3   232  ASN232      0.1181
    145  CG        17.4870   31.3700    5.1780 C.2   232  ASN232      0.2629
    146  OD1       17.3840   30.3770    5.9210 O.2   232  ASN232     -0.2716
    147  ND2       17.9460   32.5350    5.6060 N.am  232  ASN232     -0.0877
    148  N         15.9960   27.7950    5.9540 N.3   235  ARG235     -0.1245
    149  CA        14.6700   27.5080    5.4070 C.3   235  ARG235      0.1563
    150  C         14.7110   26.3260    4.4220 C.2   235  ARG235      0.2260
    151  O         13.7850   25.4840    4.3950 O.2   235  ARG235     -0.2867
    152  CB        14.0220   28.7610    4.8180 C.3   235  ARG235      0.0307
    153  CG        13.6800   29.8050    5.8990 C.3   235  ARG235      0.0489
    154  CD        12.8140   30.9910    5.4230 C.3   235  ARG235      0.2205
    155  NE        13.5200   31.9880    4.5900 N.pl3 235  ARG235     -0.0865
    156  CZ        14.3200   32.9670    5.0400 C.cat 235  ARG235      0.5346
    157  NH1       14.5790   33.1230    6.3410 N.pl3 235  ARG235      0.1354
    158  NH2       14.8690   33.8200    4.1640 N.pl3 235  ARG235      0.1354
    159  N         14.5640   23.4360    6.5280 N.3   238  SER238     -0.1202
    160  CA        13.2230   23.2740    7.0870 C.3   238  SER238      0.2020
    161  C         12.2550   22.6800    6.0380 C.2   238  SER238      0.2618
    162  O         11.3170   21.9740    6.3790 O.2   238  SER238     -0.2717
    163  CB        12.6800   24.6090    7.6470 C.3   238  SER238      0.2103
    164  OG        12.0970   25.4280    6.6260 O.3   238  SER238     -0.2182
    165  N         12.5200   22.9640    4.7610 N.am  239  ASN239     -0.1974
    166  CA        11.6380   22.5070    3.6760 C.3   239  ASN239      0.1688
    167  C         11.8050   21.0260    3.3980 C.2   239  ASN239      0.2292
    168  O         10.9410   20.3900    2.7620 O.2   239  ASN239     -0.2864
    169  CB        11.8850   23.3270    2.4090 C.3   239  ASN239      0.1181
    170  CG        11.3490   24.7540    2.5300 C.2   239  ASN239      0.2629
    171  OD1       10.5560   25.0420    3.4220 O.2   239  ASN239     -0.2716
    172  ND2       11.7730   25.6540    1.6100 N.am  239  ASN239     -0.0877
    173  N          2.6860   31.0480  -12.1960 N.3   265  ARG265     -0.1245
    174  CA         3.5640   30.8590  -13.3510 C.3   265  ARG265      0.1563
    175  C          2.7280   30.8480  -14.6550 C.2   265  ARG265      0.2260
    176  O          1.5020   30.7780  -14.6020 O.2   265  ARG265     -0.2867
    177  CB         4.4160   29.5850  -13.1680 C.3   265  ARG265      0.0307
    178  CG         5.7600   29.8250  -12.4290 C.3   265  ARG265      0.0489
    179  CD         5.5900   30.0190  -10.9020 C.3   265  ARG265      0.2205
    180  NE         6.8260   30.4290  -10.2120 N.pl3 265  ARG265     -0.0865
    181  CZ         7.0370   30.3080   -8.8960 C.cat 265  ARG265      0.5346
    182  NH1        6.1120   29.7740   -8.1010 N.pl3 265  ARG265      0.1354
    183  NH2        8.1780   30.7230   -8.3620 N.pl3 265  ARG265      0.1354
@<TRIPOS>BOND
     1    17    18    1
     2    19    18    1
     3    19    20    2
     4    18    21    1
     5    23    25   ar
     6    23    22   ar
     7    32    31    2
     8    21    22    1
     9    25    27   ar
    10    29    30    1
    11    22    24   ar
    12   175   176    2
    13   175   174    1
    14    49    48    1
    15    27    28    1
    16    27    26   ar
    17    31    30    1
    18    24    26   ar
    19    33    30    1
    20    33    34    1
    21   174   177    1
    22   174   173    1
    23    47    48   ar
    24    47    45   ar
    25    48    46   ar
    26   177   178    1
    27    37    35   am
    28    35    34    1
    29    35    36    2
    30   178   179    1
    31    45    43   ar
    32    46    44   ar
    33     8     7    2
    34    15    14   ar
    35    16    14   ar
    36     7     6    1
    37    14    13    1
    38     6     5    1
    39    11    10    1
    40    11    12    2
    41    44    43   ar
    42    43    42    1
    43   179   180    1
    44    10    13    1
    45    10     9    1
    46   180   181    2
    47    42    39    1
    48    38    39    1
    49   181   183    1
    50   181   182    1
    51    39    40    1
    52   109   111    1
    53   109   108    1
    54   127   126    1
    55    41    40    2
    56    40    50   am
    57     2     3    1
    58     2     1    1
    59     3     4    2
    60   110   108    1
    61    50    51    1
    62   108   105    1
    63   126   128    1
    64   126   125    2
    65    51    52    1
    66    78    77    1
    67   125   124    1
    68   124   123    1
    69   105   104    1
    70   105   106    1
    71    52    53    2
    72    52    54   am
    73   107   106    2
    74    77    79    1
    75    77    74    1
    76   106   112   am
    77    54    60    1
    78    54    55    1
    79   123   122    1
    80    60    59    1
    81    73    74    1
    82    73    71   am
    83   122   119    1
    84    74    75    1
    85    70    71    1
    86    70    69    1
    87    71    72    2
    88   115   114    2
    89   112   113    1
    90    55    58    1
    91    55    56    1
    92    69    63   am
    93   114   113    1
    94   114   118   am
    95   113   116    1
    96    59    58    1
    97   119   118    1
    98   119   120    1
    99    75    76    2
   100    75    80   am
   101    56    61   am
   102    56    57    2
   103    61    62    1
   104    63    62    1
   105    63    64    2
   106   120   121    2
   107   120   129   am
   108    80    81    1
   109   116   117    1
   110    62    65    1
   111   129   130    1
   112   132   131    2
   113   139   136    1
   114   131   135   am
   115   131   130    1
   116    65    66    1
   117   136   135    1
   118   136   137    1
   119   130   133    1
   120    81    82    1
   121    82    83    2
   122    66    67    1
   123    66    68    1
   124   137   138    2
   125   137   140   am
   126   133   134    1
   127   140   141    1
   128   172   170   am
   129    84    85    1
   130   169   170    1
   131   169   166    1
   132   170   171    2
   133   168   167    2
   134   141   142    1
   135   141   144    1
   136    89    90    1
   137    89    91    1
   138    89    88    1
   139   142   143    2
   140   167   166    1
   141    85    88    1
   142    85    86    1
   143   166   165    1
   144   144   145    1
   145   102   101    2
   146   158   156    1
   147   151   150    2
   148   150   149    1
   149   155   156    2
   150   155   154    1
   151   100   103    1
   152   100   101    1
   153   100    99    1
   154    86    87    2
   155   165   161   am
   156   152   149    1
   157   152   153    1
   158   156   157    1
   159   145   147   am
   160   145   146    2
   161   149   148    1
   162   154   153    1
   163   161   162    2
   164   161   160    1
   165   159   160    1
   166   164   163    1
   167   160   163    1
   168    95    94    2
   169    97    96    1
   170    94    93    1
   171    96    93    1
   172    96    98    1
   173    93    92    1
