@<TRIPOS>MOLECULE
tmp/2wzsE00.pdb
 139 136 0 0 0
SMALL
GASTEIGER

@<TRIPOS>ATOM
      1  N          5.0540   50.7070   66.1310 N.3    67  SER67      -0.1217
      2  CA         5.2910   52.1430   66.3270 C.3    67  SER67       0.1889
      3  C          6.0270   52.3150   67.6460 C.2    67  SER67       0.2288
      4  O          5.9590   51.4210   68.4950 O.2    67  SER67      -0.2866
      5  CB         3.9710   52.9300   66.3520 C.3    67  SER67       0.2089
      6  OG         3.3180   52.8140   67.6130 O.3    67  SER67      -0.2183
      7  N          5.1320   54.1970   69.9460 N.3    69  TRP69      -0.1227
      8  CA         4.0830   54.4570   70.9340 C.3    69  TRP69       0.1737
      9  C          3.5120   53.1410   71.4250 C.2    69  TRP69       0.2595
     10  O          3.3150   52.9670   72.6190 O.2    69  TRP69      -0.2718
     11  CB         2.9720   55.3400   70.3400 C.3    69  TRP69       0.0564
     12  CG         3.5390   56.5060   69.5530 C.ar   69  TRP69       0.0003
     13  CD1        3.6130   56.6220   68.1910 C.ar   69  TRP69       0.0946
     14  CD2        4.1480   57.6820   70.0890 C.ar   69  TRP69       0.0152
     15  NE1        4.2030   57.8160   67.8460 N.ar   69  TRP69      -0.2442
     16  CE2        4.5590   58.4790   68.9910 C.ar   69  TRP69       0.0810
     17  CE3        4.3790   58.1460   71.3910 C.ar   69  TRP69       0.0012
     18  CZ2        5.1950   59.7100   69.1500 C.ar   69  TRP69       0.0191
     19  CZ3        5.0200   59.3830   71.5530 C.ar   69  TRP69       0.0001
     20  CH2        5.4100   60.1520   70.4340 C.ar   69  TRP69       0.0015
     21  N          3.2530   52.2230   70.4980 N.am   70  ILE70      -0.1980
     22  CA         2.7230   50.9030   70.8280 C.3    70  ILE70       0.1595
     23  C          3.8100   50.0320   71.4750 C.2    70  ILE70       0.2287
     24  O          3.5340   49.2580   72.3790 O.2    70  ILE70      -0.2864
     25  CB         2.1200   50.2080   69.5750 C.3    70  ILE70       0.0276
     26  CG1        0.9280   51.0090   69.0180 C.3    70  ILE70       0.0022
     27  CG2        1.7230   48.7800   69.8770 C.3    70  ILE70       0.0022
     28  CD1       -0.2510   51.1630   69.9630 C.3    70  ILE70       0.0001
     29  N         -7.7560   52.0830   62.3500 N.3   328  TRP328     -0.1227
     30  CA        -7.9390   53.5440   62.3170 C.3   328  TRP328      0.1737
     31  C         -6.9800   54.2590   61.3480 C.2   328  TRP328      0.2595
     32  O         -7.3470   55.2690   60.7600 O.2   328  TRP328     -0.2718
     33  CB        -7.8140   54.1530   63.7080 C.3   328  TRP328      0.0564
     34  CG        -8.1050   55.6350   63.7550 C.ar  328  TRP328      0.0003
     35  CD1       -9.3280   56.2210   63.8970 C.ar  328  TRP328      0.0946
     36  CD2       -7.1530   56.7170   63.6680 C.ar  328  TRP328      0.0152
     37  NE1       -9.2070   57.5980   63.9100 N.ar  328  TRP328     -0.2442
     38  CE2       -7.8820   57.9280   63.7730 C.ar  328  TRP328      0.0810
     39  CE3       -5.7630   56.7800   63.5140 C.ar  328  TRP328      0.0012
     40  CZ2       -7.2630   59.1890   63.7370 C.ar  328  TRP328      0.0191
     41  CZ3       -5.1460   58.0380   63.4760 C.ar  328  TRP328      0.0001
     42  CH2       -5.9000   59.2240   63.5940 C.ar  328  TRP328      0.0015
     43  N         -5.7680   53.7380   61.1870 N.am  329  ASP329     -0.1974
     44  CA        -4.8390   54.2240   60.1590 C.3   329  ASP329      0.1709
     45  C         -5.1110   53.5430   58.8370 C.2   329  ASP329      0.2293
     46  O         -5.2680   54.2060   57.8120 O.2   329  ASP329     -0.2864
     47  CB        -3.3710   53.9050   60.5070 C.3   329  ASP329      0.1436
     48  CG        -2.9000   54.5510   61.7940 C.2   329  ASP329      0.3671
     49  OD1       -2.3240   53.8290   62.6420 O.co2 329  ASP329     -0.2456
     50  OD2       -3.0880   55.7710   61.9380 O.co2 329  ASP329     -0.2456
     51  N         -7.0880   47.9820   66.9490 N.3   366  TRP366     -0.1241
     52  CA        -5.6420   47.9860   67.1730 C.3   366  TRP366      0.1605
     53  C         -5.2180   46.6640   67.8000 C.2   366  TRP366      0.2264
     54  O         -5.6870   46.3030   68.8780 O.2   366  TRP366     -0.2867
     55  CB        -5.1750   49.1640   68.0430 C.3   366  TRP366      0.0550
     56  CG        -4.2490   50.1230   67.3060 C.ar  366  TRP366      0.0003
     57  CD1       -4.4910   51.4290   67.0170 C.ar  366  TRP366      0.0946
     58  CD2       -2.9470   49.8300   66.7700 C.ar  366  TRP366      0.0152
     59  NE1       -3.4350   51.9700   66.3400 N.ar  366  TRP366     -0.2442
     60  CE2       -2.4710   51.0150   66.1700 C.ar  366  TRP366      0.0810
     61  CE3       -2.1450   48.6770   66.7250 C.ar  366  TRP366      0.0012
     62  CZ2       -1.2370   51.0850   65.5220 C.ar  366  TRP366      0.0191
     63  CZ3       -0.9110   48.7470   66.0950 C.ar  366  TRP366      0.0001
     64  CH2       -0.4660   49.9480   65.5040 C.ar  366  TRP366      0.0015
     65  N         -6.1830   51.7100   71.9570 N.3   374  CYS374     -0.1221
     66  CA        -5.5870   52.7710   71.1420 C.3   374  CYS374      0.1808
     67  C         -6.5080   53.2530   70.0070 C.2   374  CYS374      0.2601
     68  O         -7.0650   52.4480   69.2660 O.2   374  CYS374     -0.2717
     69  CB        -4.2570   52.2940   70.5480 C.3   374  CYS374      0.0970
     70  SG        -3.2900   53.6340   69.8220 S.3   374  CYS374     -0.0800
     71  N         -6.6340   54.5710   69.8700 N.am  375  MET375     -0.1979
     72  CA        -7.4730   55.2010   68.8320 C.3   375  MET375      0.1605
     73  C         -8.9840   54.9450   69.0070 C.2   375  MET375      0.2287
     74  O         -9.4390   54.6750   70.1150 O.2   375  MET375     -0.2864
     75  CB        -6.9850   54.8540   67.4050 C.3   375  MET375      0.0413
     76  CG        -5.4960   55.1240   67.1520 C.3   375  MET375      0.0598
     77  SD        -4.8340   56.6030   68.0000 S.3   375  MET375     -0.1393
     78  CE        -5.7350   57.8920   67.1310 C.3   375  MET375      0.0692
     79  N         -7.0460   63.7160   67.7170 N.3   514  GLU514     -0.1245
     80  CA        -5.7670   64.1490   67.1510 C.3   514  GLU514      0.1567
     81  C         -5.9920   65.0570   65.9550 C.2   514  GLU514      0.2260
     82  O         -5.3290   64.9440   64.9300 O.2   514  GLU514     -0.2867
     83  CB        -4.9000   62.9450   66.7850 C.3   514  GLU514      0.0388
     84  CG        -4.3810   62.1240   67.9770 C.3   514  GLU514      0.1160
     85  CD        -3.4640   60.9740   67.5400 C.2   514  GLU514      0.3649
     86  OE1       -3.0500   60.1920   68.4170 O.co2 514  GLU514     -0.2457
     87  OE2       -3.1540   60.8570   66.3270 O.co2 514  GLU514     -0.2457
     88  N          3.3690   66.1920   69.1240 N.3   565  HIS565     -0.1226
     89  CA         4.0530   66.2220   67.8360 C.3   565  HIS565      0.1752
     90  C          3.1120   66.3970   66.6380 C.2   565  HIS565      0.2595
     91  O          3.4750   67.0470   65.6680 O.2   565  HIS565     -0.2718
     92  CB         4.9980   65.0130   67.6740 C.3   565  HIS565      0.0759
     93  CG         4.2930   63.7030   67.5210 C.ar  565  HIS565      0.0818
     94  ND1        4.0580   63.1280   66.2880 N.ar  565  HIS565     -0.2268
     95  CD2        3.7590   62.8610   68.4410 C.ar  565  HIS565      0.1154
     96  CE1        3.4170   61.9840   66.4570 C.ar  565  HIS565      0.1986
     97  NE2        3.2270   61.7980   67.7530 N.ar  565  HIS565     -0.2212
     98  N          1.9060   65.8390   66.7060 N.am  566  GLU566     -0.1979
     99  CA         0.9420   65.9970   65.6080 C.3   566  GLU566      0.1602
    100  C          0.6040   67.4680   65.3140 C.2   566  GLU566      0.2287
    101  O          0.4590   67.8550   64.1530 O.2   566  GLU566     -0.2864
    102  CB        -0.3360   65.1930   65.8490 C.3   566  GLU566      0.0415
    103  CG        -0.1670   63.6900   65.7000 C.3   566  GLU566      0.1163
    104  CD         0.2030   62.9730   67.0000 C.2   566  GLU566      0.3649
    105  OE1        0.5620   63.5960   68.0140 O.co2 566  GLU566     -0.2457
    106  OE2        0.1280   61.7460   67.0090 O.co2 566  GLU566     -0.2457
    107  N         -0.9860   63.5610   59.8300 N.3   582  ASN582     -0.1225
    108  CA        -1.8450   62.6500   60.5800 C.3   582  ASN582      0.1785
    109  C         -3.0290   62.2020   59.7150 C.2   582  ASN582      0.2597
    110  O         -3.3240   62.8290   58.6810 O.2   582  ASN582     -0.2718
    111  CB        -2.2840   63.2730   61.9120 C.3   582  ASN582      0.1169
    112  CG        -2.6780   62.2250   62.9590 C.2   582  ASN582      0.2627
    113  OD1       -2.2000   61.0910   62.9320 O.2   582  ASN582     -0.2716
    114  ND2       -3.5530   62.6100   63.8880 N.am  582  ASN582     -0.0877
    115  N         -3.6980   61.1280   60.1340 N.am  583  GLN583     -0.1979
    116  CA        -4.6430   60.3910   59.2680 C.3   583  GLN583      0.1601
    117  C         -5.9960   61.0670   58.8850 C.2   583  GLN583      0.2287
    118  O         -6.4290   60.9540   57.7320 O.2   583  GLN583     -0.2864
    119  CB        -4.8600   58.9650   59.8100 C.3   583  GLN583      0.0394
    120  CG        -3.7650   57.9700   59.3910 C.3   583  GLN583      0.0908
    121  CD        -2.4060   58.2740   59.9930 C.2   583  GLN583      0.2608
    122  OE1       -2.3060   58.7320   61.1280 O.2   583  GLN583     -0.2717
    123  NE2       -1.3470   57.9940   59.2430 N.am  583  GLN583     -0.0878
    124  N          4.0930   60.6610   61.3230 N.3   623  ASP623     -0.1239
    125  CA         4.2200   59.1960   61.4920 C.3   623  ASP623      0.1674
    126  C          3.7960   58.4270   60.2410 C.2   623  ASP623      0.2266
    127  O          2.7460   58.7050   59.6340 O.2   623  ASP623     -0.2867
    128  CB         3.4080   58.6870   62.6790 C.3   623  ASP623      0.1410
    129  CG         4.0230   59.0300   64.0260 C.2   623  ASP623      0.3668
    130  OD1        5.0140   59.7890   64.1090 O.co2 623  ASP623     -0.2456
    131  OD2        3.4840   58.5330   65.0370 O.co2 623  ASP623     -0.2456
    132  N          3.1050   55.1660   60.1610 N.3   625  ASP625     -0.1239
    133  CA         1.9360   54.4080   60.6480 C.3   625  ASP625      0.1674
    134  C          1.5810   53.1310   59.8760 C.2   625  ASP625      0.2266
    135  O          0.4530   52.9850   59.3970 O.2   625  ASP625     -0.2867
    136  CB         0.7140   55.3220   60.7630 C.3   625  ASP625      0.1410
    137  CG         0.8310   56.3150   61.9040 C.2   625  ASP625      0.3668
    138  OD1        1.3680   55.9630   62.9820 O.co2 625  ASP625     -0.2456
    139  OD2        0.3620   57.4570   61.7280 O.co2 625  ASP625     -0.2456
@<TRIPOS>BOND
     1   118   117    2
     2    46    45    2
     3   110   109    2
     4    45    44    1
     5   117   116    1
     6   123   121   am
     7   116   119    1
     8   116   115    1
     9   120   119    1
    10   120   121    1
    11   135   134    2
    12   127   126    2
    13   109   115   am
    14   109   108    1
    15   107   108    1
    16   134   133    1
    17   121   122    2
    18    44    47    1
    19    44    43    1
    20   132   133    1
    21   126   125    1
    22    47    48    1
    23   108   111    1
    24   133   136    1
    25    32    31    2
    26   136   137    1
    27    43    31   am
    28   124   125    1
    29    31    30    1
    30   125   128    1
    31   139   137   ar
    32    48    50   ar
    33    48    49   ar
    34   137   138   ar
    35   111   112    1
    36    30    29    1
    37    30    33    1
    38   128   129    1
    39   113   112    2
    40   112   114   am
    41    41    39   ar
    42    41    42   ar
    43    39    36   ar
    44    42    40   ar
    45    36    34   ar
    46    36    38   ar
    47    33    34    1
    48    40    38   ar
    49    34    35   ar
    50    38    37   ar
    51    35    37   ar
    52   129   130   ar
    53   129   131   ar
    54   101   100    2
    55    82    81    2
    56   100    99    1
    57    64    62   ar
    58    64    63   ar
    59    62    60   ar
    60    99   102    1
    61    99    98    1
    62    91    90    2
    63   103   102    1
    64   103   104    1
    65    81    80    1
    66    63    61   ar
    67     1     2    1
    68    60    59   ar
    69    60    58   ar
    70    94    96   ar
    71    94    93   ar
    72     2     5    1
    73     2     3    1
    74    87    85   ar
    75    59    57   ar
    76     5     6    1
    77    96    97   ar
    78    90    98   am
    79    90    89    1
    80    61    58   ar
    81    58    56   ar
    82    83    80    1
    83    83    84    1
    84    51    52    1
    85   104   106   ar
    86   104   105   ar
    87    57    56   ar
    88    78    77    1
    89    80    79    1
    90    76    75    1
    91    76    77    1
    92    52    53    1
    93    52    55    1
    94    56    55    1
    95    75    72    1
    96    93    92    1
    97    93    95   ar
    98    85    84    1
    99    85    86   ar
   100     3     4    2
   101    92    89    1
   102    97    95   ar
   103    53    54    2
   104    89    88    1
   105    15    13   ar
   106    15    16   ar
   107    13    12   ar
   108    72    73    1
   109    72    71    1
   110    16    18   ar
   111    16    14   ar
   112    73    74    2
   113    26    25    1
   114    26    28    1
   115    18    20   ar
   116    68    67    2
   117    12    14   ar
   118    12    11    1
   119    25    27    1
   120    25    22    1
   121    70    69    1
   122    71    67   am
   123     7     8    1
   124    67    66    1
   125    14    17   ar
   126    11     8    1
   127    20    19   ar
   128    21    22    1
   129    21     9   am
   130    69    66    1
   131    22    23    1
   132     8     9    1
   133    66    65    1
   134    17    19   ar
   135     9    10    2
   136    23    24    2
