@<TRIPOS>MOLECULE
tmp/2wzwA01.pdb
 170 163 0 0 0
SMALL
GASTEIGER

@<TRIPOS>ATOM
      1  N        -30.3200  -68.2700  -14.6210 N.3    73  VAL73      -0.1245
      2  CA       -29.6120  -69.5420  -14.5950 C.3    73  VAL73       0.1561
      3  C        -30.3790  -70.4900  -13.6520 C.2    73  VAL73       0.2260
      4  O        -30.7090  -70.1040  -12.5260 O.2    73  VAL73      -0.2867
      5  CB       -28.1390  -69.3300  -14.1550 C.3    73  VAL73       0.0252
      6  CG1      -27.4590  -70.6500  -13.8080 C.3    73  VAL73       0.0019
      7  CG2      -27.3480  -68.5680  -15.2200 C.3    73  VAL73       0.0019
      8  N        -22.1080  -77.0250  -10.9840 N.3    79  TYR79      -0.1241
      9  CA       -20.8240  -76.9750  -11.6970 C.3    79  TYR79       0.1605
     10  C        -20.0130  -75.8660  -11.0310 C.2    79  TYR79       0.2264
     11  O        -19.8190  -74.7930  -11.6130 O.2    79  TYR79      -0.2867
     12  CB       -21.0630  -76.6610  -13.1880 C.3    79  TYR79       0.0534
     13  CG       -19.9970  -77.0850  -14.1850 C.ar   79  TYR79      -0.0201
     14  CD1      -20.3460  -77.5500  -15.4500 C.ar   79  TYR79      -0.0009
     15  CD2      -18.6400  -76.9400  -13.8970 C.ar   79  TYR79      -0.0009
     16  CE1      -19.3780  -77.9140  -16.3850 C.ar   79  TYR79       0.0417
     17  CE2      -17.6590  -77.3070  -14.8230 C.ar   79  TYR79       0.0417
     18  CZ       -18.0350  -77.7880  -16.0690 C.ar   79  TYR79       0.1957
     19  OH       -17.0850  -78.1330  -16.9990 O.3    79  TYR79      -0.2866
     20  N        -16.9160  -73.7000   -9.3120 N.3    81  GLU81      -0.1245
     21  CA       -15.5250  -73.4040   -9.6480 C.3    81  GLU81       0.1567
     22  C        -14.6650  -74.1490   -8.6110 C.2    81  GLU81       0.2260
     23  O        -15.0400  -74.2350   -7.4370 O.2    81  GLU81      -0.2867
     24  CB       -15.2560  -71.8800   -9.6490 C.3    81  GLU81       0.0388
     25  CG       -13.8670  -71.4710  -10.1380 C.3    81  GLU81       0.1160
     26  CD       -13.3690  -72.0460  -11.4550 C.2    81  GLU81       0.3649
     27  OE1      -14.1190  -72.0020  -12.4580 O.co2  81  GLU81      -0.2457
     28  OE2      -12.2070  -72.5140  -11.4890 O.co2  81  GLU81      -0.2457
     29  N         -7.4120  -79.3900  -14.1120 N.3    89  GLN89      -0.1245
     30  CA        -7.5440  -77.9510  -14.3400 C.3    89  GLN89       0.1566
     31  C         -6.6300  -77.4970  -15.4880 C.2    89  GLN89       0.2260
     32  O         -7.0410  -76.6430  -16.2860 O.2    89  GLN89      -0.2867
     33  CB        -7.2880  -77.1410  -13.0400 C.3    89  GLN89       0.0367
     34  CG        -7.2240  -75.6030  -13.1930 C.3    89  GLN89       0.0905
     35  CD        -8.2960  -74.9470  -14.0620 C.2    89  GLN89       0.2608
     36  OE1       -9.4350  -75.4130  -14.1800 O.2    89  GLN89      -0.2717
     37  NE2       -7.9440  -73.8340  -14.6990 N.am   89  GLN89      -0.0878
     38  N         -8.1520  -78.4430  -18.8220 N.3    92  ARG92      -0.1231
     39  CA        -9.2580  -77.5050  -19.0510 C.3    92  ARG92       0.1694
     40  C         -8.7100  -76.1490  -19.5990 C.2    92  ARG92       0.2591
     41  O         -9.2490  -75.6210  -20.5750 O.2    92  ARG92      -0.2718
     42  CB       -10.0460  -77.3070  -17.7370 C.3    92  ARG92       0.0321
     43  CG       -11.0840  -76.1760  -17.7630 C.3    92  ARG92       0.0489
     44  CD       -12.0650  -76.2870  -16.6130 C.3    92  ARG92       0.2205
     45  NE       -12.9720  -75.1330  -16.5700 N.pl3  92  ARG92      -0.0865
     46  CZ       -12.7620  -74.0310  -15.8570 C.cat  92  ARG92       0.5346
     47  NH1      -11.6760  -73.9160  -15.1030 N.pl3  92  ARG92       0.1354
     48  NH2      -13.6440  -73.0410  -15.8800 N.pl3  92  ARG92       0.1354
     49  N         -7.6600  -75.6070  -18.9710 N.am   93  ALA93      -0.1980
     50  CA        -7.0410  -74.3370  -19.3900 C.3    93  ALA93       0.1597
     51  C         -6.4380  -74.4660  -20.7970 C.2    93  ALA93       0.2287
     52  O         -6.5900  -73.5590  -21.6130 O.2    93  ALA93      -0.2864
     53  CB        -5.9640  -73.9150  -18.3960 C.3    93  ALA93       0.0319
     54  N         -7.3050  -76.6830  -23.2040 N.3    95  PHE95      -0.1227
     55  CA        -8.4190  -76.7650  -24.1560 C.3    95  PHE95       0.1736
     56  C         -8.9420  -75.3320  -24.4830 C.2    95  PHE95       0.2596
     57  O         -9.1330  -74.9910  -25.6540 O.2    95  PHE95      -0.2718
     58  CB        -9.5520  -77.6590  -23.5940 C.3    95  PHE95       0.0547
     59  CG       -10.9300  -77.2550  -24.0700 C.ar   95  PHE95      -0.0202
     60  CD1      -11.3290  -77.4920  -25.3800 C.ar   95  PHE95      -0.0042
     61  CD2      -11.8250  -76.6210  -23.2090 C.ar   95  PHE95      -0.0042
     62  CE1      -12.5940  -77.0830  -25.8300 C.ar   95  PHE95      -0.0003
     63  CE2      -13.0870  -76.2150  -23.6570 C.ar   95  PHE95      -0.0003
     64  CZ       -13.4680  -76.4590  -24.9600 C.ar   95  PHE95      -0.0000
     65  N         -9.2150  -74.5440  -23.4390 N.am   96  GLY96      -0.1942
     66  CA        -9.7490  -73.1880  -23.5740 C.3    96  GLY96       0.2014
     67  C         -8.8470  -72.3140  -24.4170 C.2    96  GLY96       0.2639
     68  O         -9.3290  -71.5900  -25.2950 O.2    96  GLY96      -0.2714
     69  N         -7.5200  -72.4150  -24.1720 N.am   97  SER97      -0.1949
     70  CA        -6.5160  -71.6460  -24.9120 C.3    97  SER97       0.1924
     71  C         -6.5730  -71.9860  -26.3990 C.2    97  SER97       0.2314
     72  O         -6.4990  -71.0880  -27.2310 O.2    97  SER97      -0.2863
     73  CB        -5.1200  -71.8970  -24.3450 C.3    97  SER97       0.2116
     74  OG        -4.9920  -71.2640  -23.0830 O.3    97  SER97      -0.2180
     75  N         -9.3350  -73.4760  -28.0300 N.3    99  LEU99      -0.1231
     76  CA       -10.6440  -73.0590  -28.5420 C.3    99  LEU99       0.1693
     77  C        -10.7160  -71.5380  -28.7790 C.2    99  LEU99       0.2592
     78  O        -11.0590  -71.1090  -29.8880 O.2    99  LEU99      -0.2718
     79  CB       -11.7680  -73.5240  -27.6070 C.3    99  LEU99       0.0284
     80  CG       -13.1870  -73.0190  -27.9610 C.3    99  LEU99       0.0019
     81  CD1      -13.6490  -73.5580  -29.3150 C.3    99  LEU99       0.0001
     82  CD2      -14.1700  -73.3510  -26.8640 C.3    99  LEU99       0.0001
     83  N        -10.3740  -70.7280  -27.7500 N.am  100  TYR100     -0.1976
     84  CA       -10.4410  -69.2680  -27.8750 C.3   100  TYR100      0.1639
     85  C         -9.4680  -68.6500  -28.8590 C.2   100  TYR100      0.2290
     86  O         -9.8020  -67.6250  -29.4630 O.2   100  TYR100     -0.2864
     87  CB       -10.5510  -68.5590  -26.5270 C.3   100  TYR100      0.0560
     88  CG       -11.8290  -68.9380  -25.8050 C.ar  100  TYR100     -0.0198
     89  CD1      -13.0610  -68.4320  -26.2130 C.ar  100  TYR100     -0.0009
     90  CD2      -11.8160  -69.8620  -24.7660 C.ar  100  TYR100     -0.0009
     91  CE1      -14.2450  -68.8170  -25.5850 C.ar  100  TYR100      0.0417
     92  CE2      -12.9930  -70.2460  -24.1230 C.ar  100  TYR100      0.0417
     93  CZ       -14.2030  -69.7120  -24.5300 C.ar  100  TYR100      0.1957
     94  OH       -15.3600  -70.0820  -23.8940 O.3   100  TYR100     -0.2866
     95  N        -10.7660  -64.8690  -29.8960 N.3   105  ILE105     -0.1231
     96  CA       -11.2910  -64.1300  -28.7460 C.3   105  ILE105      0.1692
     97  C        -10.2650  -64.1130  -27.6180 C.2   105  ILE105      0.2592
     98  O         -9.8960  -65.1750  -27.1090 O.2   105  ILE105     -0.2718
     99  CB       -12.6740  -64.6700  -28.2740 C.3   105  ILE105      0.0266
    100  CG1      -13.7040  -64.6810  -29.4330 C.3   105  ILE105      0.0019
    101  CG2      -13.1880  -63.8620  -27.0670 C.3   105  ILE105      0.0020
    102  CD1      -14.9770  -65.4960  -29.1810 C.3   105  ILE105      0.0001
    103  N         -9.8110  -62.9040  -27.2300 N.am  106  ALA106     -0.1966
    104  CA        -8.8590  -62.7260  -26.1310 C.3   106  ALA106      0.1728
    105  C         -9.5930  -62.7930  -24.7760 C.2   106  ALA106      0.2616
    106  O        -10.8130  -62.6260  -24.7340 O.2   106  ALA106     -0.2715
    107  CB        -8.1220  -61.4000  -26.2820 C.3   106  ALA106      0.0334
    108  N         -8.8460  -63.0280  -23.6780 N.am  107  ARG107     -0.1977
    109  CA        -9.3680  -63.1320  -22.3070 C.3   107  ARG107      0.1597
    110  C        -10.1500  -61.8920  -21.8140 C.2   107  ARG107      0.2287
    111  O        -11.1250  -62.0490  -21.0770 O.2   107  ARG107     -0.2864
    112  CB        -8.2360  -63.4800  -21.3220 C.3   107  ARG107      0.0334
    113  CG        -7.5840  -64.8370  -21.5820 C.3   107  ARG107      0.0492
    114  CD        -6.5030  -65.1430  -20.5650 C.3   107  ARG107      0.2205
    115  NE        -5.7760  -66.3720  -20.8880 N.pl3 107  ARG107     -0.0865
    116  CZ        -6.1420  -67.5900  -20.5000 C.cat 107  ARG107      0.5346
    117  NH1       -7.2400  -67.7620  -19.7720 N.pl3 107  ARG107      0.1354
    118  NH2       -5.4150  -68.6470  -20.8380 N.pl3 107  ARG107      0.1354
    119  N        -16.9870  -62.4820  -26.0090 N.3   113  LEU113     -0.1245
    120  CA       -17.2980  -63.6940  -25.2420 C.3   113  LEU113      0.1561
    121  C        -18.8200  -63.8320  -25.0660 C.2   113  LEU113      0.2260
    122  O        -19.3340  -64.9490  -25.0950 O.2   113  LEU113     -0.2867
    123  CB       -16.5940  -63.6950  -23.8740 C.3   113  LEU113      0.0270
    124  CG       -15.0930  -64.0050  -23.8780 C.3   113  LEU113      0.0019
    125  CD1      -14.4010  -63.3850  -22.6800 C.3   113  LEU113      0.0001
    126  CD2      -14.8240  -65.5050  -23.9500 C.3   113  LEU113      0.0001
    127  N        -21.2030  -66.8630  -26.5690 N.3   117  ASN117     -0.1240
    128  CA       -22.1210  -67.6010  -25.6960 C.3   117  ASN117      0.1653
    129  C        -23.5620  -67.5650  -26.2030 C.2   117  ASN117      0.2266
    130  O        -24.2760  -68.5540  -26.0390 O.2   117  ASN117     -0.2867
    131  CB       -22.0200  -67.1500  -24.2420 C.3   117  ASN117      0.1155
    132  CG       -20.7660  -67.6460  -23.5520 C.2   117  ASN117      0.2627
    133  OD1      -20.4960  -68.8560  -23.4580 O.2   117  ASN117     -0.2716
    134  ND2      -19.9800  -66.7200  -23.0300 N.am  117  ASN117     -0.0877
    135  N        -22.6760  -78.8750  -22.0360 N.3   164  ALA164     -0.1231
    136  CA       -23.0740  -78.7270  -20.6280 C.3   164  ALA164      0.1694
    137  C        -23.7750  -77.3590  -20.4750 C.2   164  ALA164      0.2591
    138  O        -24.6480  -77.2110  -19.6170 O.2   164  ALA164     -0.2718
    139  CB       -21.8460  -78.7680  -19.7170 C.3   164  ALA164      0.0304
    140  N        -23.3940  -76.3630  -21.3110 N.am  165  LEU165     -0.1980
    141  CA       -23.9870  -75.0160  -21.2470 C.3   165  LEU165      0.1596
    142  C        -25.5310  -75.0150  -21.1980 C.2   165  LEU165      0.2287
    143  O        -26.1300  -74.2740  -20.4160 O.2   165  LEU165     -0.2864
    144  CB       -23.4990  -74.1440  -22.4130 C.3   165  LEU165      0.0297
    145  CG       -24.1830  -72.7650  -22.5330 C.3   165  LEU165      0.0022
    146  CD1      -23.7740  -71.8270  -21.3750 C.3   165  LEU165      0.0001
    147  CD2      -23.9080  -72.1450  -23.8750 C.3   165  LEU165      0.0001
    148  N        -27.5400  -75.3370  -17.8880 N.3   168  PHE168     -0.1227
    149  CA       -27.5850  -74.2000  -16.9620 C.3   168  PHE168      0.1736
    150  C        -28.8870  -73.4090  -17.0680 C.2   168  PHE168      0.2595
    151  O        -29.0830  -72.4300  -16.3320 O.2   168  PHE168     -0.2718
    152  CB       -26.3590  -73.2810  -17.1400 C.3   168  PHE168      0.0547
    153  CG       -25.1400  -73.9290  -16.5300 C.ar  168  PHE168     -0.0202
    154  CD1      -24.7660  -73.6470  -15.2200 C.ar  168  PHE168     -0.0042
    155  CD2      -24.4270  -74.8950  -17.2280 C.ar  168  PHE168     -0.0042
    156  CE1      -23.6770  -74.2970  -14.6330 C.ar  168  PHE168     -0.0003
    157  CE2      -23.3340  -75.5440  -16.6430 C.ar  168  PHE168     -0.0003
    158  CZ       -22.9610  -75.2290  -15.3580 C.ar  168  PHE168     -0.0000
    159  N        -29.7950  -73.8430  -17.9550 N.am  169  TYR169     -0.1976
    160  CA       -31.0980  -73.2060  -18.1410 C.3   169  TYR169      0.1639
    161  C        -32.1540  -74.3120  -18.1830 C.2   169  TYR169      0.2290
    162  O        -33.0540  -74.2960  -19.0240 O.2   169  TYR169     -0.2864
    163  CB       -31.0950  -72.3290  -19.4090 C.3   169  TYR169      0.0560
    164  CG       -30.0180  -71.2640  -19.3590 C.ar  169  TYR169     -0.0198
    165  CD1      -30.2140  -70.0820  -18.6500 C.ar  169  TYR169     -0.0009
    166  CD2      -28.7630  -71.4860  -19.9250 C.ar  169  TYR169     -0.0009
    167  CE1      -29.1940  -69.1380  -18.5190 C.ar  169  TYR169      0.0417
    168  CE2      -27.7300  -70.5560  -19.7840 C.ar  169  TYR169      0.0417
    169  CZ       -27.9570  -69.3750  -19.0970 C.ar  169  TYR169      0.1957
    170  OH       -26.9450  -68.4510  -18.9560 O.3   169  TYR169     -0.2866
@<TRIPOS>BOND
     1    95    96    1
     2    78    77    2
     3    86    85    2
     4   100   102    1
     5   100    99    1
     6    81    80    1
     7    85    84    1
     8    77    76    1
     9    77    83   am
    10    96    99    1
    11    96    97    1
    12    76    75    1
    13    76    79    1
    14    99   101    1
    15    80    79    1
    16    80    82    1
    17    84    83    1
    18    84    87    1
    19    97   103   am
    20    97    98    2
    21    72    71    2
    22   103   104    1
    23   127   128    1
    24    87    88    1
    25    71    70    1
    26   107   104    1
    27    89    88   ar
    28    89    91   ar
    29   129   130    2
    30   129   128    1
    31   104   105    1
    32   119   120    1
    33    62    60   ar
    34    62    64   ar
    35    88    90   ar
    36   128   131    1
    37    57    56    2
    38    91    93   ar
    39    60    59   ar
    40    68    67    2
    41   120   121    1
    42   120   123    1
    43   122   121    2
    44    64    63   ar
    45    70    73    1
    46    70    69    1
    47   105   106    2
    48   105   108   am
    49    90    92   ar
    50    93    92   ar
    51    93    94    1
    52    56    55    1
    53    56    65   am
    54    67    69   am
    55    67    66    1
    56    73    74    1
    57   131   132    1
    58    55    58    1
    59    55    54    1
    60    59    58    1
    61    59    61   ar
    62   126   124    1
    63   124   123    1
    64   124   125    1
    65   147   145    1
    66   108   109    1
    67    63    61   ar
    68    66    65    1
    69   132   133    2
    70   132   134   am
    71   145   144    1
    72   145   146    1
    73   144   141    1
    74   109   110    1
    75   109   112    1
    76   135   136    1
    77   110   111    2
    78    52    51    2
    79   113   112    1
    80   113   114    1
    81   140   141    1
    82   140   137   am
    83   141   142    1
    84   142   143    2
    85   115   114    1
    86   115   116    2
    87   118   116    1
    88    51    50    1
    89   136   137    1
    90   136   139    1
    91    41    40    2
    92   116   117    1
    93   137   138    2
    94   166   168   ar
    95   166   164   ar
    96   168   169   ar
    97    40    39    1
    98    40    49   am
    99   163   164    1
   100   163   160    1
   101    50    49    1
   102    50    53    1
   103   164   165   ar
   104   169   170    1
   105   169   167   ar
   106    39    38    1
   107    39    42    1
   108   162   161    2
   109   165   167   ar
   110   161   160    1
   111   160   159    1
   112   159   150   am
   113   148   149    1
   114    43    42    1
   115    43    44    1
   116   155   157   ar
   117   155   153   ar
   118   152   149    1
   119   152   153    1
   120   150   149    1
   121   150   151    2
   122    19    18    1
   123   157   158   ar
   124    44    45    1
   125    45    46    2
   126   153   154   ar
   127    16    18   ar
   128    16    14   ar
   129    32    31    2
   130    18    17   ar
   131    48    46    1
   132    46    47    1
   133    31    30    1
   134    14    13   ar
   135   158   156   ar
   136   154   156   ar
   137     7     5    1
   138    17    15   ar
   139    37    35   am
   140     1     2    1
   141     2     5    1
   142     2     3    1
   143    30    29    1
   144    30    33    1
   145    13    15   ar
   146    13    12    1
   147    36    35    2
   148     5     6    1
   149    35    34    1
   150     3     4    2
   151    34    33    1
   152    12     9    1
   153    27    26   ar
   154     9    10    1
   155     9     8    1
   156    11    10    2
   157    28    26   ar
   158    26    25    1
   159    25    24    1
   160    24    21    1
   161    21    20    1
   162    21    22    1
   163    22    23    2
