@<TRIPOS>MOLECULE
tmp/2wzwB00.pdb
 76 73 0 0 0
SMALL
GASTEIGER

@<TRIPOS>ATOM
      1  N         -9.4230  -91.2330  -26.7510 N.3    38  HIS38      -0.1241
      2  CA       -10.0570  -90.2280  -27.6220 C.3    38  HIS38       0.1621
      3  C        -11.5060  -89.9020  -27.2530 C.2    38  HIS38       0.2264
      4  O        -12.1480  -89.0950  -27.9340 O.2    38  HIS38      -0.2867
      5  CB        -9.9030  -90.5630  -29.1180 C.3    38  HIS38       0.0745
      6  CG        -8.4900  -90.3970  -29.5770 C.ar   38  HIS38       0.0817
      7  ND1       -8.0170  -89.1760  -30.0210 N.ar   38  HIS38      -0.2268
      8  CD2       -7.4640  -91.2780  -29.5410 C.ar   38  HIS38       0.1154
      9  CE1       -6.7380  -89.3680  -30.2990 C.ar   38  HIS38       0.1986
     10  NE2       -6.3560  -90.6110  -30.0090 N.ar   38  HIS38      -0.2212
     11  N        -14.5060  -87.9070  -25.6010 N.3    40  PRO40      -0.2102
     12  CA       -14.6130  -86.4960  -25.1880 C.3    40  PRO40       0.1504
     13  C        -14.9350  -86.4150  -23.6850 C.2    40  PRO40       0.2576
     14  O        -15.2400  -87.4340  -23.0520 O.2    40  PRO40      -0.2718
     15  CB       -15.7970  -85.9810  -26.0260 C.3    40  PRO40       0.0282
     16  CG       -16.7170  -87.2030  -26.1240 C.3    40  PRO40       0.0208
     17  CD       -15.7560  -88.3860  -26.2350 C.3    40  PRO40       0.0893
     18  N        -14.8290  -85.2130  -23.1030 N.am   41  SER41      -0.1938
     19  CA       -15.1320  -84.9840  -21.6850 C.3    41  SER41       0.2055
     20  C        -15.3280  -83.4990  -21.5050 C.2    41  SER41       0.2643
     21  O        -14.8800  -82.7260  -22.3710 O.2    41  SER41      -0.2714
     22  CB       -13.9700  -85.4680  -20.7980 C.3    41  SER41       0.2130
     23  OG       -12.7310  -84.8900  -21.1860 O.3    41  SER41      -0.2179
     24  N        -15.9260  -83.0880  -20.3670 N.am   42  ASN42      -0.1957
     25  CA       -16.1180  -81.6540  -20.0590 C.3    42  ASN42       0.1819
     26  C        -14.7560  -80.9650  -20.0860 C.2    42  ASN42       0.2622
     27  O        -13.8360  -81.4290  -19.3990 O.2    42  ASN42      -0.2715
     28  CB       -16.7360  -81.4810  -18.6680 C.3    42  ASN42       0.1195
     29  CG       -18.1840  -81.8920  -18.5930 C.2    42  ASN42       0.2630
     30  OD1      -19.0750  -81.0980  -18.8590 O.2    42  ASN42      -0.2716
     31  ND2      -18.4540  -83.1230  -18.1780 N.am   42  ASN42      -0.0877
     32  N        -14.6030  -79.9240  -20.9310 N.am   43  SER43      -0.1936
     33  CA       -13.3570  -79.1330  -21.0520 C.3    43  SER43       0.2055
     34  C        -12.1070  -79.9860  -21.3590 C.2    43  SER43       0.2643
     35  O        -11.0020  -79.5810  -20.9960 O.2    43  SER43      -0.2714
     36  CB       -13.1020  -78.3760  -19.7480 C.3    43  SER43       0.2130
     37  OG       -14.0250  -77.3250  -19.5390 O.3    43  SER43      -0.2179
     38  N        -12.2840  -81.1870  -21.9480 N.am   44  ASN44      -0.1971
     39  CA       -11.1740  -82.1170  -22.2420 C.3    44  ASN44       0.1688
     40  C        -10.3920  -82.5210  -20.9460 C.2    44  ASN44       0.2292
     41  O         -9.1920  -82.8110  -20.9920 O.2    44  ASN44      -0.2864
     42  CB       -10.2360  -81.5370  -23.3440 C.3    44  ASN44       0.1181
     43  CG        -9.3430  -82.5760  -23.9850 C.2    44  ASN44       0.2629
     44  OD1       -9.7930  -83.6700  -24.3380 O.2    44  ASN44      -0.2716
     45  ND2       -8.0460  -82.2540  -24.1370 N.am   44  ASN44      -0.0877
     46  N        -21.5760  -84.8090  -13.2690 N.3   141  ARG141     -0.1245
     47  CA       -20.9160  -84.4010  -14.5160 C.3   141  ARG141      0.1563
     48  C        -19.6410  -85.2120  -14.7920 C.2   141  ARG141      0.2260
     49  O        -19.4590  -85.7080  -15.9100 O.2   141  ARG141     -0.2867
     50  CB       -20.6730  -82.8920  -14.5550 C.3   141  ARG141      0.0307
     51  CG       -21.9860  -82.1090  -14.5070 C.3   141  ARG141      0.0489
     52  CD       -21.7760  -80.6130  -14.6680 C.3   141  ARG141      0.2205
     53  NE       -23.0270  -79.8640  -14.4800 N.pl3 141  ARG141     -0.0865
     54  CZ       -23.9560  -79.7180  -15.4170 C.cat 141  ARG141      0.5346
     55  NH1      -23.7820  -80.2500  -16.6240 N.pl3 141  ARG141      0.1354
     56  NH2      -25.0750  -79.0540  -15.1510 N.pl3 141  ARG141      0.1354
     57  N        -20.5350  -88.7840  -15.6660 N.3   144  GLY144     -0.1210
     58  CA       -21.0090  -88.8610  -17.0530 C.3   144  GLY144      0.1956
     59  C        -19.8300  -89.0890  -17.9950 C.2   144  GLY144      0.2611
     60  O        -19.8670  -89.9620  -18.8560 O.2   144  GLY144     -0.2717
     61  N        -18.7430  -88.3270  -17.8100 N.am  145  ASP145     -0.1973
     62  CA       -17.5240  -88.4860  -18.6210 C.3   145  ASP145      0.1709
     63  C        -16.8730  -89.8500  -18.4330 C.2   145  ASP145      0.2293
     64  O        -16.3260  -90.4140  -19.3930 O.2   145  ASP145     -0.2864
     65  CB       -16.5280  -87.3650  -18.2880 C.3   145  ASP145      0.1436
     66  CG       -16.9980  -86.0010  -18.7740 C.2   145  ASP145      0.3671
     67  OD1      -17.9510  -85.9510  -19.5890 O.co2 145  ASP145     -0.2456
     68  OD2      -16.4020  -84.9900  -18.3590 O.co2 145  ASP145     -0.2456
     69  N        -18.8380  -92.0280  -20.7260 N.3   147  ILE147     -0.1245
     70  CA       -18.4140  -91.7610  -22.1120 C.3   147  ILE147      0.1561
     71  C        -17.1360  -92.5850  -22.3950 C.2   147  ILE147      0.2260
     72  O        -17.0670  -93.3070  -23.3940 O.2   147  ILE147     -0.2867
     73  CB       -18.1780  -90.2470  -22.3320 C.3   147  ILE147      0.0252
     74  CG1      -19.5130  -89.4770  -22.3330 C.3   147  ILE147      0.0019
     75  CG2      -17.3870  -89.9870  -23.6320 C.3   147  ILE147      0.0019
     76  CD1      -19.3270  -87.9410  -22.5090 C.3   147  ILE147      0.0001
@<TRIPOS>BOND
     1     9     7   ar
     2     9    10   ar
     3     7     6   ar
     4    10     8   ar
     5     6     8   ar
     6     6     5    1
     7     5     2    1
     8     4     3    2
     9     2     3    1
    10     2     1    1
    11    17    16    1
    12    17    11    1
    13    16    15    1
    14    15    12    1
    15    11    12    1
    16    12    13    1
    17    44    43    2
    18    45    43   am
    19    43    42    1
    20    13    18   am
    21    13    14    2
    22    75    73    1
    23    72    71    2
    24    42    39    1
    25    18    19    1
    26    76    74    1
    27    71    70    1
    28    21    20    2
    29    74    73    1
    30    73    70    1
    31    39    38    1
    32    39    40    1
    33    70    69    1
    34    38    34   am
    35    19    20    1
    36    19    22    1
    37    20    24   am
    38    34    33    1
    39    34    35    2
    40    23    22    1
    41    33    32    1
    42    33    36    1
    43    41    40    2
    44    32    26   am
    45    24    25    1
    46    26    25    1
    47    26    27    2
    48    25    28    1
    49    36    37    1
    50    67    66   ar
    51    64    63    2
    52    30    29    2
    53    60    59    2
    54    66    68   ar
    55    66    65    1
    56    28    29    1
    57    62    63    1
    58    62    65    1
    59    62    61    1
    60    29    31   am
    61    59    61   am
    62    59    58    1
    63    58    57    1
    64    55    54    1
    65    49    48    2
    66    54    56    1
    67    54    53    2
    68    48    47    1
    69    52    51    1
    70    52    53    1
    71    50    47    1
    72    50    51    1
    73    47    46    1
