@<TRIPOS>MOLECULE
tmp/2wzwB01.pdb
 150 143 0 0 0
SMALL
GASTEIGER

@<TRIPOS>ATOM
      1  N        -21.4410 -105.5380  -29.2030 N.3    14  ARG14      -0.1231
      2  CA       -20.9590 -105.4920  -27.8220 C.3    14  ARG14       0.1694
      3  C        -22.0830 -105.9980  -26.8900 C.2    14  ARG14       0.2592
      4  O        -23.2200 -105.5050  -26.9470 O.2    14  ARG14      -0.2718
      5  CB       -20.5790 -104.0540  -27.4240 C.3    14  ARG14       0.0321
      6  CG       -20.1160 -103.9290  -25.9450 C.3    14  ARG14       0.0489
      7  CD       -20.7030 -102.7090  -25.2410 C.3    14  ARG14       0.2205
      8  NE       -22.1760 -102.7230  -25.2520 N.pl3  14  ARG14      -0.0865
      9  CZ       -22.9420 -103.4400  -24.4330 C.cat  14  ARG14       0.5346
     10  NH1      -22.3920 -104.2080  -23.4940 N.pl3  14  ARG14       0.1354
     11  NH2      -24.2610 -103.3860  -24.5360 N.pl3  14  ARG14       0.1354
     12  N        -21.7520 -106.9950  -26.0550 N.am   15  ARG15      -0.1966
     13  CA       -22.6780 -107.5920  -25.0830 C.3    15  ARG15       0.1729
     14  C        -21.9400 -107.7940  -23.7680 C.2    15  ARG15       0.2616
     15  O        -20.7050 -107.8940  -23.7830 O.2    15  ARG15      -0.2715
     16  CB       -23.1780 -108.9610  -25.5870 C.3    15  ARG15       0.0348
     17  CG       -24.1460 -108.8910  -26.7720 C.3    15  ARG15       0.0492
     18  CD       -24.8330 -110.2250  -27.0380 C.3    15  ARG15       0.2205
     19  NE       -23.8860 -111.3030  -27.3460 N.pl3  15  ARG15      -0.0865
     20  CZ       -23.4480 -111.5980  -28.5660 C.cat  15  ARG15       0.5346
     21  NH1      -23.8560 -110.8940  -29.6160 N.pl3  15  ARG15       0.1354
     22  NH2      -22.5940 -112.5970  -28.7460 N.pl3  15  ARG15       0.1354
     23  N        -22.6750 -107.8570  -22.6240 N.am   16  ALA16      -0.1977
     24  CA       -22.0360 -108.1270  -21.3290 C.3    16  ALA16       0.1597
     25  C        -21.7690 -109.6450  -21.3310 C.2    16  ALA16       0.2287
     26  O        -22.7090 -110.4570  -21.3440 O.2    16  ALA16      -0.2864
     27  CB       -22.9560 -107.7420  -20.1680 C.3    16  ALA16       0.0319
     28  N        -20.1950 -113.0270  -19.6150 N.3    18  ARG18      -0.1245
     29  CA       -20.0040 -113.5290  -18.2520 C.3    18  ARG18       0.1563
     30  C        -19.3200 -114.8890  -18.1400 C.2    18  ARG18       0.2260
     31  O        -19.4860 -115.6000  -17.1500 O.2    18  ARG18      -0.2867
     32  CB       -21.3470 -113.4710  -17.4910 C.3    18  ARG18       0.0307
     33  CG       -21.8780 -112.0280  -17.3270 C.3    18  ARG18       0.0489
     34  CD       -23.2390 -111.9750  -16.6580 C.3    18  ARG18       0.2205
     35  NE       -23.7120 -110.5940  -16.5060 N.pl3  18  ARG18      -0.0865
     36  CZ       -24.5220 -109.9680  -17.3580 C.cat  18  ARG18       0.5346
     37  NH1      -24.9820 -110.5970  -18.4350 N.pl3  18  ARG18       0.1354
     38  NH2      -24.9060 -108.7200  -17.1210 N.pl3  18  ARG18       0.1354
     39  N        -34.3070 -108.1440  -16.4140 N.3    96  PHE96      -0.1241
     40  CA       -32.9000 -108.5060  -16.6430 C.3    96  PHE96       0.1605
     41  C        -32.5120 -109.6800  -15.7200 C.2    96  PHE96       0.2264
     42  O        -31.9830 -110.6820  -16.1980 O.2    96  PHE96      -0.2867
     43  CB       -31.9560 -107.3050  -16.4170 C.3    96  PHE96       0.0534
     44  CG       -30.5210 -107.6860  -16.0980 C.ar   96  PHE96      -0.0203
     45  CD1      -29.6980 -108.2570  -17.0720 C.ar   96  PHE96      -0.0042
     46  CD2      -29.9990 -107.4880  -14.8270 C.ar   96  PHE96      -0.0042
     47  CE1      -28.3770 -108.6300  -16.7680 C.ar   96  PHE96      -0.0003
     48  CE2      -28.6810 -107.8730  -14.5230 C.ar   96  PHE96      -0.0003
     49  CZ       -27.8870 -108.4440  -15.4940 C.ar   96  PHE96      -0.0000
     50  N        -31.2440 -113.3720  -16.8180 N.3   100  LEU100     -0.1245
     51  CA       -29.9040 -113.7810  -16.4090 C.3   100  LEU100      0.1561
     52  C        -29.9430 -115.1030  -15.6420 C.2   100  LEU100      0.2260
     53  O        -29.2190 -116.0340  -16.0020 O.2   100  LEU100     -0.2867
     54  CB       -29.2000 -112.6770  -15.5960 C.3   100  LEU100      0.0270
     55  CG       -27.8200 -113.0280  -15.0290 C.3   100  LEU100      0.0019
     56  CD1      -26.7810 -113.1730  -16.1360 C.3   100  LEU100      0.0001
     57  CD2      -27.3830 -112.0220  -13.9700 C.3   100  LEU100      0.0001
     58  N        -22.0140 -118.5470   -8.3390 N.3   117  TYR117     -0.1241
     59  CA       -22.0370 -117.6330   -9.4740 C.3   117  TYR117      0.1605
     60  C        -21.3390 -116.3110   -9.0950 C.2   117  TYR117      0.2264
     61  O        -20.5090 -115.8060   -9.8600 O.2   117  TYR117     -0.2867
     62  CB       -23.4850 -117.3510   -9.9320 C.3   117  TYR117      0.0534
     63  CG       -23.5760 -116.1530  -10.8540 C.ar  117  TYR117     -0.0201
     64  CD1      -23.0920 -116.2150  -12.1600 C.ar  117  TYR117     -0.0009
     65  CD2      -24.0900 -114.9370  -10.4050 C.ar  117  TYR117     -0.0009
     66  CE1      -23.1070 -115.0950  -12.9940 C.ar  117  TYR117      0.0417
     67  CE2      -24.1140 -113.8120  -11.2310 C.ar  117  TYR117      0.0417
     68  CZ       -23.6360 -113.9030  -12.5300 C.ar  117  TYR117      0.1957
     69  OH       -23.6810 -112.8200  -13.3710 O.3   117  TYR117     -0.2866
     70  N        -15.1180 -113.5820  -14.0370 N.3   125  TYR125     -0.1241
     71  CA       -15.7300 -114.5840  -14.9250 C.3   125  TYR125      0.1605
     72  C        -14.6660 -115.3570  -15.7230 C.2   125  TYR125      0.2264
     73  O        -14.9150 -115.7720  -16.8650 O.2   125  TYR125     -0.2867
     74  CB       -16.7410 -113.9150  -15.8780 C.3   125  TYR125      0.0534
     75  CG       -17.8910 -113.2170  -15.1930 C.ar  125  TYR125     -0.0201
     76  CD1      -18.8660 -113.9430  -14.5080 C.ar  125  TYR125     -0.0009
     77  CD2      -18.0400 -111.8370  -15.2740 C.ar  125  TYR125     -0.0009
     78  CE1      -19.9790 -113.3150  -13.9520 C.ar  125  TYR125      0.0417
     79  CE2      -19.1380 -111.1890  -14.6930 C.ar  125  TYR125      0.0417
     80  CZ       -20.1110 -111.9360  -14.0500 C.ar  125  TYR125      0.1957
     81  OH       -21.1870 -111.3160  -13.4650 O.3   125  TYR125     -0.2866
     82  N        -17.2140 -107.2470  -19.8480 N.3   162  CYS162     -0.1221
     83  CA       -18.3380 -107.1320  -18.9320 C.3   162  CYS162      0.1794
     84  C        -18.0890 -105.9510  -18.0280 C.2   162  CYS162      0.2443
     85  O        -17.1860 -106.0260  -17.1810 O.2   162  CYS162     -0.2733
     86  CB       -18.6140 -108.3910  -18.1150 C.3   162  CYS162      0.0970
     87  SG       -20.2110 -108.3500  -17.2470 S.3   162  CYS162     -0.0800
     88  N        -18.9010 -104.8750  -18.1380 N.am  163  PRO163     -0.2718
     89  CA       -18.7740 -103.7800  -17.1620 C.3   163  PRO163      0.1535
     90  C        -19.3320 -104.3160  -15.8500 C.2   163  PRO163      0.2598
     91  O        -20.3370 -105.0340  -15.8650 O.2   163  PRO163     -0.2715
     92  CB       -19.6550 -102.6600  -17.7470 C.3   163  PRO163      0.0310
     93  CG       -20.6540 -103.3600  -18.6000 C.3   163  PRO163      0.0237
     94  CD       -20.0560 -104.6790  -19.0460 C.3   163  PRO163      0.0939
     95  N        -18.6610 -104.0340  -14.7320 N.am  164  GLN164     -0.1964
     96  CA       -19.1070 -104.5670  -13.4440 C.3   164  GLN164      0.1733
     97  C        -19.0570 -103.5210  -12.3200 C.2   164  GLN164      0.2616
     98  O        -17.9670 -103.1760  -11.8420 O.2   164  GLN164     -0.2715
     99  CB       -18.2180 -105.7640  -13.0410 C.3   164  GLN164      0.0408
    100  CG       -18.4240 -107.0340  -13.8500 C.3   164  GLN164      0.0908
    101  CD       -17.4510 -108.0930  -13.3830 C.2   164  GLN164      0.2608
    102  OE1      -16.3330 -108.1880  -13.8770 O.2   164  GLN164     -0.2717
    103  NE2      -17.8400 -108.8760  -12.3970 N.am  164  GLN164     -0.0878
    104  N        -20.2300 -103.0820  -11.8470 N.am  165  ALA165     -0.1963
    105  CA       -20.3080 -102.1930  -10.6760 C.3   165  ALA165      0.1728
    106  C        -19.8640 -103.0240   -9.4400 C.2   165  ALA165      0.2616
    107  O        -19.3020 -102.4660   -8.5000 O.2   165  ALA165     -0.2715
    108  CB       -21.7500 -101.7190  -10.4670 C.3   165  ALA165      0.0334
    109  N        -20.1030 -104.3550   -9.4560 N.am  166  LEU166     -0.1977
    110  CA       -19.7320 -105.2330   -8.3490 C.3   166  LEU166      0.1596
    111  C        -18.2890 -105.0250   -7.8810 C.2   166  LEU166      0.2287
    112  O        -18.0530 -104.9440   -6.6820 O.2   166  LEU166     -0.2864
    113  CB       -19.9650 -106.7160   -8.6920 C.3   166  LEU166      0.0297
    114  CG       -19.4600 -107.7320   -7.6610 C.3   166  LEU166      0.0022
    115  CD1      -20.2630 -107.6650   -6.3710 C.3   166  LEU166      0.0001
    116  CD2      -19.4750 -109.1420   -8.2490 C.3   166  LEU166      0.0001
    117  N        -15.1530  -96.4010   -9.7320 N.3   186  LEU186     -0.1245
    118  CA       -16.5420  -96.3920  -10.2240 C.3   186  LEU186      0.1561
    119  C        -17.0370  -97.7660  -10.6640 C.2   186  LEU186      0.2260
    120  O        -18.1760  -98.1500  -10.3560 O.2   186  LEU186     -0.2867
    121  CB       -16.7380  -95.3590  -11.3570 C.3   186  LEU186      0.0270
    122  CG       -18.1650  -95.2170  -11.9030 C.3   186  LEU186      0.0019
    123  CD1      -19.1540  -94.7280  -10.8230 C.3   186  LEU186      0.0001
    124  CD2      -18.1980  -94.2920  -13.1410 C.3   186  LEU186      0.0001
    125  N        -27.6520 -115.2810  -23.3580 N.3   202  VAL202     -0.1245
    126  CA       -28.6970 -114.3810  -22.8480 C.3   202  VAL202      0.1561
    127  C        -28.9050 -113.2070  -23.8440 C.2   202  VAL202      0.2260
    128  O        -27.9340 -112.6850  -24.4040 O.2   202  VAL202     -0.2867
    129  CB       -28.3940 -113.9160  -21.3840 C.3   202  VAL202      0.0252
    130  CG1      -27.3380 -112.8070  -21.3340 C.3   202  VAL202      0.0019
    131  CG2      -29.6670 -113.4880  -20.6500 C.3   202  VAL202      0.0019
    132  N        -30.5990 -109.6080  -23.9670 N.3   204  ILE204     -0.1245
    133  CA       -31.2100 -108.5590  -23.1690 C.3   204  ILE204      0.1561
    134  C        -31.8370 -107.5280  -24.1100 C.2   204  ILE204      0.2260
    135  O        -31.1350 -106.9230  -24.9290 O.2   204  ILE204     -0.2867
    136  CB       -30.1500 -107.9750  -22.1830 C.3   204  ILE204      0.0252
    137  CG1      -29.5630 -109.0930  -21.2470 C.3   204  ILE204      0.0019
    138  CG2      -30.7070 -106.8120  -21.3810 C.3   204  ILE204      0.0019
    139  CD1      -30.5870 -109.9060  -20.3840 C.3   204  ILE204      0.0001
    140  N        -34.0240 -104.0400  -25.4010 N.3   206  ARG206     -0.1245
    141  CA       -33.9700 -102.5910  -25.1770 C.3   206  ARG206      0.1563
    142  C        -35.3920 -102.0480  -25.2850 C.2   206  ARG206      0.2260
    143  O        -36.2560 -102.6770  -25.9140 O.2   206  ARG206     -0.2867
    144  CB       -33.0100 -101.8720  -26.1390 C.3   206  ARG206      0.0307
    145  CG       -31.5260 -102.1850  -25.8660 C.3   206  ARG206      0.0489
    146  CD       -31.0100 -101.7430  -24.4800 C.3   206  ARG206      0.2205
    147  NE       -29.5380 -101.8200  -24.4360 N.pl3 206  ARG206     -0.0865
    148  CZ       -28.8580 -102.9490  -24.2190 C.cat 206  ARG206      0.5346
    149  NH1      -29.5050 -104.0890  -23.9760 N.pl3 206  ARG206      0.1354
    150  NH2      -27.5330 -102.9480  -24.2510 N.pl3 206  ARG206      0.1354
@<TRIPOS>BOND
     1    21    20    1
     2     1     2    1
     3    22    20    1
     4    20    19    2
     5     2     5    1
     6     2     3    1
     7     5     6    1
     8    19    18    1
     9    18    17    1
    10     4     3    2
    11     3    12   am
    12    17    16    1
    13   144   145    1
    14   144   141    1
    15    12    13    1
    16     6     7    1
    17   143   142    2
    18   145   146    1
    19    16    13    1
    20   140   141    1
    21   142   141    1
    22     8     7    1
    23     8     9    2
    24    13    14    1
    25   135   134    2
    26    11     9    1
    27   146   147    1
    28   147   148    2
    29     9    10    1
    30   128   127    2
    31   150   148    1
    32   148   149    1
    33   134   133    1
    34   132   133    1
    35   127   126    1
    36    15    14    2
    37    14    23   am
    38   125   126    1
    39   133   136    1
    40   126   129    1
    41    23    24    1
    42   136   138    1
    43   136   137    1
    44   129   130    1
    45   129   131    1
    46    26    25    2
    47    25    24    1
    48    24    27    1
    49   137   139    1
    50    82    83    1
    51    28    29    1
    52    94    93    1
    53    94    88    1
    54    83    86    1
    55    83    84    1
    56    93    92    1
    57    37    36    1
    58    29    30    1
    59    29    32    1
    60    30    31    2
    61    88    84   am
    62    88    89    1
    63    86    87    1
    64    84    85    2
    65    92    89    1
    66    32    33    1
    67    36    38    1
    68    36    35    2
    69    33    34    1
    70    89    90    1
    71    45    47   ar
    72    45    44   ar
    73    73    72    2
    74    50    51    1
    75    47    49   ar
    76    34    35    1
    77    40    43    1
    78    40    39    1
    79    40    41    1
    80    43    44    1
    81    51    52    1
    82    51    54    1
    83    42    41    2
    84    56    55    1
    85    44    46   ar
    86    53    52    2
    87    74    75    1
    88    74    71    1
    89    91    90    2
    90    90    95   am
    91    72    71    1
    92    54    55    1
    93    49    48   ar
    94    77    75   ar
    95    77    79   ar
    96    75    76   ar
    97    55    57    1
    98    71    70    1
    99    46    48   ar
   100    95    96    1
   101    79    80   ar
   102    76    78   ar
   103    80    78   ar
   104    80    81    1
   105   102   101    2
   106   100   101    1
   107   100    99    1
   108    96    99    1
   109    96    97    1
   110   101   103   am
   111    69    68    1
   112   124   122    1
   113    66    68   ar
   114    66    64   ar
   115    68    67   ar
   116    97   104   am
   117    97    98    2
   118    64    63   ar
   119   122   121    1
   120   122   123    1
   121   104   105    1
   122   121   118    1
   123    67    65   ar
   124    63    65   ar
   125    63    62    1
   126   105   108    1
   127   105   106    1
   128   119   120    2
   129   119   118    1
   130   118   117    1
   131    62    59    1
   132    61    60    2
   133    59    60    1
   134    59    58    1
   135   109   106   am
   136   109   110    1
   137   106   107    2
   138   113   110    1
   139   113   114    1
   140   110   111    1
   141   116   114    1
   142   111   112    2
   143   114   115    1
