@<TRIPOS>MOLECULE
tmp/2wzxA00.pdb
 120 113 0 0 0
SMALL
GASTEIGER

@<TRIPOS>ATOM
      1  N          7.3350    8.3470   16.8270 N.3    63  SER63      -0.1217
      2  CA         6.9350    7.5220   17.9730 C.3    63  SER63       0.1889
      3  C          6.6780    6.0410   17.6970 C.2    63  SER63       0.2288
      4  O          6.5250    5.2730   18.6400 O.2    63  SER63      -0.2866
      5  CB         5.6870    8.0860   18.6440 C.3    63  SER63       0.2089
      6  OG         5.9630    9.3240   19.2890 O.3    63  SER63      -0.2183
      7  N          3.7570   15.8420   27.1970 N.3   118  LEU118     -0.1231
      8  CA         3.9350   15.2590   25.8750 C.3   118  LEU118      0.1693
      9  C          5.4060   15.2190   25.4490 C.2   118  LEU118      0.2591
     10  O          5.9050   14.1870   25.0040 O.2   118  LEU118     -0.2718
     11  CB         3.1100   16.0340   24.8410 C.3   118  LEU118      0.0284
     12  CG         3.2550   15.5990   23.3830 C.3   118  LEU118      0.0019
     13  CD1        2.5790   14.2470   23.1370 C.3   118  LEU118      0.0001
     14  CD2        2.6880   16.6570   22.4480 C.3   118  LEU118      0.0001
     15  N          6.0860   16.3530   25.5770 N.am  119  GLN119     -0.1979
     16  CA         7.4990   16.4460   25.2410 C.3   119  GLN119      0.1601
     17  C          8.2650   17.0400   26.4030 C.2   119  GLN119      0.2287
     18  O          7.6830   17.6890   27.2740 O.2   119  GLN119     -0.2864
     19  CB         7.6950   17.3360   24.0090 C.3   119  GLN119      0.0394
     20  CG         7.0580   16.8000   22.7430 C.3   119  GLN119      0.0908
     21  CD         7.1090   17.7910   21.5950 C.2   119  GLN119      0.2608
     22  OE1        6.4240   17.6220   20.5890 O.2   119  GLN119     -0.2717
     23  NE2        7.9300   18.8250   21.7360 N.am  119  GLN119     -0.0878
     24  N         -0.2700   10.8140   27.3890 N.3   150  TYR150     -0.1241
     25  CA         0.7190   10.3820   26.4250 C.3   150  TYR150      0.1605
     26  C          1.9790   11.2530   26.5090 C.2   150  TYR150      0.2264
     27  O          1.9000   12.4820   26.5150 O.2   150  TYR150     -0.2867
     28  CB         0.1020   10.3850   25.0280 C.3   150  TYR150      0.0534
     29  CG         1.0180    9.8690   23.9550 C.ar  150  TYR150     -0.0201
     30  CD1        1.2010    8.5010   23.7610 C.ar  150  TYR150     -0.0009
     31  CD2        1.7250   10.7490   23.1500 C.ar  150  TYR150     -0.0009
     32  CE1        2.0620    8.0330   22.7630 C.ar  150  TYR150      0.0417
     33  CE2        2.5760   10.3000   22.1590 C.ar  150  TYR150      0.0417
     34  CZ         2.7460    8.9380   21.9750 C.ar  150  TYR150      0.1957
     35  OH         3.5930    8.5050   20.9880 O.3   150  TYR150     -0.2866
     36  N          6.4490   11.5230   25.7850 N.3   152  ASN152     -0.1240
     37  CA         7.8130   11.1310   25.4220 C.3   152  ASN152      0.1653
     38  C          8.7510   10.9920   26.6350 C.2   152  ASN152      0.2266
     39  O          9.4320    9.9710   26.7600 O.2   152  ASN152     -0.2867
     40  CB         8.3980   12.1090   24.3920 C.3   152  ASN152      0.1155
     41  CG         7.9000   11.8580   22.9830 C.2   152  ASN152      0.2627
     42  OD1        7.1260   10.9390   22.7380 O.2   152  ASN152     -0.2716
     43  ND2        8.3580   12.6680   22.0430 N.am  152  ASN152     -0.0877
     44  N         14.9040   15.1940   11.3190 N.3   212  VAL212     -0.1231
     45  CA        14.8500   15.2870   12.7740 C.3   212  VAL212      0.1692
     46  C         16.2230   15.6140   13.3810 C.2   212  VAL212      0.2592
     47  O         17.2390   15.0410   12.9940 O.2   212  VAL212     -0.2718
     48  CB        14.1980   14.0110   13.3940 C.3   212  VAL212      0.0266
     49  CG1       15.0780   12.7950   13.2380 C.3   212  VAL212      0.0020
     50  CG2       13.8380   14.2380   14.8600 C.3   212  VAL212      0.0020
     51  N         16.2300   16.5640   14.3110 N.am  213  GLY213     -0.1957
     52  CA        17.4430   16.9540   15.0150 C.3   213  GLY213      0.1869
     53  C         17.5500   16.3140   16.3850 C.2   213  GLY213      0.2309
     54  O         16.6020   15.6830   16.8560 O.2   213  GLY213     -0.2863
     55  N         11.6710    8.5450   19.7030 N.3   222  TYR222     -0.1241
     56  CA        11.3630    8.8480   18.3200 C.3   222  TYR222      0.1605
     57  C         12.5480    8.7400   17.3630 C.2   222  TYR222      0.2264
     58  O         12.5100    9.3480   16.2860 O.2   222  TYR222     -0.2867
     59  CB        10.6960   10.2330   18.2320 C.3   222  TYR222      0.0534
     60  CG        11.5090   11.3860   18.8050 C.ar  222  TYR222     -0.0201
     61  CD1       12.4230   12.0750   18.0070 C.ar  222  TYR222     -0.0009
     62  CD2       11.3440   11.7970   20.1270 C.ar  222  TYR222     -0.0009
     63  CE1       13.1570   13.1420   18.5130 C.ar  222  TYR222      0.0417
     64  CE2       12.0790   12.8570   20.6450 C.ar  222  TYR222      0.0417
     65  CZ        12.9800   13.5180   19.8350 C.ar  222  TYR222      0.1957
     66  OH        13.7120   14.5760   20.3350 O.3   222  TYR222     -0.2866
     67  N         -4.2730   11.9210   22.5330 N.3   292  ALA292     -0.1245
     68  CA        -2.8560   12.1670   22.7780 C.3   292  ALA292      0.1562
     69  C         -2.5930   13.2830   23.7860 C.2   292  ALA292      0.2260
     70  O         -1.6820   13.1820   24.5990 O.2   292  ALA292     -0.2867
     71  CB        -2.1380   12.4750   21.4720 C.3   292  ALA292      0.0290
     72  N          0.4170    1.6660   16.0490 N.3   315  LYS315     -0.1231
     73  CA         1.0990    2.8390   16.5990 C.3   315  LYS315      0.1693
     74  C          1.2640    3.8880   15.5100 C.2   315  LYS315      0.2593
     75  O          1.6730    3.5740   14.3860 O.2   315  LYS315     -0.2718
     76  CB         2.4710    2.4640   17.2020 C.3   315  LYS315      0.0285
     77  CG         3.1330    3.6140   17.9720 C.3   315  LYS315      0.0035
     78  CD         2.4040    3.9290   19.2910 C.3   315  LYS315      0.0206
     79  CE         3.0010    5.1460   19.9920 C.3   315  LYS315      0.1093
     80  NZ         2.4870    6.4450   19.4260 N.3   315  LYS315     -0.1314
     81  N          0.9310    5.1280   15.8730 N.am  316  THR316     -0.1939
     82  CA         1.2390    6.3130   15.0670 C.3   316  THR316      0.2028
     83  C          2.5770    6.9240   15.4900 C.2   316  THR316      0.2643
     84  O          3.0200    6.7850   16.6450 O.2   316  THR316     -0.2714
     85  CB         0.1650    7.4050   15.2520 C.3   316  THR316      0.1808
     86  OG1       -0.0590    7.6320   16.6450 O.3   316  THR316     -0.2208
     87  CG2       -1.1570    7.0100   14.5930 C.3   316  THR316      0.0379
     88  N          3.2310    7.6210   14.5690 N.am  317  GLY317     -0.1939
     89  CA         4.4170    8.3740   14.9590 C.3   317  GLY317      0.2014
     90  C          4.6790    9.4470   13.9340 C.2   317  GLY317      0.2640
     91  O          4.4210    9.2520   12.7550 O.2   317  GLY317     -0.2714
     92  N          5.2010   10.5770   14.4030 N.am  318  SER318     -0.1935
     93  CA         5.4840   11.7190   13.5490 C.3   318  SER318      0.2055
     94  C          6.7620   12.3960   13.9560 C.2   318  SER318      0.2644
     95  O          7.1690   12.3490   15.1200 O.2   318  SER318     -0.2714
     96  CB         4.3590   12.7440   13.6600 C.3   318  SER318      0.2130
     97  OG         3.1280   12.1700   13.2650 O.3   318  SER318     -0.2179
     98  N          7.3900   13.0400   12.9860 N.am  319  THR319     -0.1936
     99  CA         8.4020   14.0420   13.2860 C.3   319  THR319      0.2028
    100  C          7.9390   15.3060   12.5750 C.2   319  THR319      0.2642
    101  O          6.8490   15.3270   11.9970 O.2   319  THR319     -0.2714
    102  CB         9.7760   13.6090   12.7890 C.3   319  THR319      0.1808
    103  OG1        9.7100   13.3830   11.3780 O.3   319  THR319     -0.2208
    104  CG2       10.2400   12.3480   13.5110 C.3   319  THR319      0.0379
    105  N          8.7420   16.3660   12.5900 N.am  320  ASN320     -0.1971
    106  CA         8.2940   17.5940   11.9340 C.3   320  ASN320      0.1688
    107  C          8.0340   17.3930   10.4410 C.2   320  ASN320      0.2292
    108  O          7.1490   18.0450    9.8760 O.2   320  ASN320     -0.2864
    109  CB         9.2910   18.7390   12.1470 C.3   320  ASN320      0.1181
    110  CG         9.3750   19.1940   13.5860 C.2   320  ASN320      0.2629
    111  OD1       10.4390   19.6330   14.0410 O.2   320  ASN320     -0.2716
    112  ND2        8.2660   19.1160   14.3070 N.am  320  ASN320     -0.0877
    113  N         -3.1990   12.0830   11.6690 N.3   346  ASN346     -0.1240
    114  CA        -3.3290   10.6680   12.0210 C.3   346  ASN346      0.1653
    115  C         -4.5760   10.0280   11.4070 C.2   346  ASN346      0.2266
    116  O         -4.5400    8.8810   10.9520 O.2   346  ASN346     -0.2867
    117  CB        -3.3690   10.4720   13.5400 C.3   346  ASN346      0.1155
    118  CG        -2.0080   10.6350   14.2080 C.2   346  ASN346      0.2627
    119  OD1       -0.9620   10.6980   13.5500 O.2   346  ASN346     -0.2716
    120  ND2       -2.0210   10.6890   15.5340 N.am  346  ASN346     -0.0877
@<TRIPOS>BOND
     1   108   107    2
     2   107   106    1
     3   116   115    2
     4    44    45    1
     5   103   102    1
     6   115   114    1
     7   113   114    1
     8   106   109    1
     9   106   105    1
    10   101   100    2
    11   114   117    1
    12   109   110    1
    13   100   105   am
    14   100    99    1
    15    91    90    2
    16    45    46    1
    17    45    48    1
    18   102    99    1
    19   102   104    1
    20    98    99    1
    21    98    94   am
    22    47    46    2
    23    49    48    1
    24    97    96    1
    25    46    51   am
    26    48    50    1
    27   117   118    1
    28    93    96    1
    29    93    94    1
    30    93    92    1
    31   119   118    2
    32   110   111    2
    33   110   112   am
    34    90    92   am
    35    90    89    1
    36    94    95    2
    37   118   120   am
    38    51    52    1
    39    75    74    2
    40    88    89    1
    41    88    83   am
    42    87    85    1
    43    52    53    1
    44    82    85    1
    45    82    83    1
    46    82    81    1
    47    85    86    1
    48    83    84    2
    49    74    81   am
    50    74    73    1
    51    72    73    1
    52    58    57    2
    53    53    54    2
    54    73    76    1
    55     1     2    1
    56    76    77    1
    57    57    56    1
    58     3     2    1
    59     3     4    2
    60    77    78    1
    61     2     5    1
    62    61    63   ar
    63    61    60   ar
    64    59    56    1
    65    59    60    1
    66    56    55    1
    67    63    65   ar
    68     5     6    1
    69    60    62   ar
    70    78    79    1
    71    80    79    1
    72    65    66    1
    73    65    64   ar
    74    62    64   ar
    75    22    21    2
    76    35    34    1
    77    71    68    1
    78    21    23   am
    79    21    20    1
    80    34    33   ar
    81    34    32   ar
    82    43    41   am
    83    33    31   ar
    84    14    12    1
    85    67    68    1
    86    42    41    2
    87    20    19    1
    88    32    30   ar
    89    68    69    1
    90    41    40    1
    91    13    12    1
    92    31    29   ar
    93    12    11    1
    94    30    29   ar
    95    69    70    2
    96    29    28    1
    97    19    16    1
    98    40    37    1
    99    11     8    1
   100    10     9    2
   101    28    25    1
   102    16    15    1
   103    16    17    1
   104    37    36    1
   105    37    38    1
   106     9    15   am
   107     9     8    1
   108     8     7    1
   109    17    18    2
   110    25    26    1
   111    25    24    1
   112    26    27    2
   113    38    39    2
