@<TRIPOS>MOLECULE
tmp/2wzyG00.pdb
 126 125 0 0 0
SMALL
GASTEIGER

@<TRIPOS>ATOM
      1  N        -33.6470    9.5430   76.1570 N.3    97  TYR97      -0.1227
      2  CA       -34.7470    9.5850   75.2030 C.3    97  TYR97       0.1736
      3  C        -34.5930   10.6800   74.1410 C.2    97  TYR97       0.2596
      4  O        -35.3680   10.7260   73.1770 O.2    97  TYR97      -0.2718
      5  CB       -36.0900    9.7640   75.9320 C.3    97  TYR97       0.0548
      6  CG       -36.6580    8.5560   76.6790 C.ar   97  TYR97      -0.0200
      7  CD1      -36.0670    7.2860   76.6000 C.ar   97  TYR97      -0.0009
      8  CD2      -37.8270    8.6900   77.4420 C.ar   97  TYR97      -0.0009
      9  CE1      -36.6160    6.1910   77.2780 C.ar   97  TYR97       0.0417
     10  CE2      -38.3960    7.6020   78.1170 C.ar   97  TYR97       0.0417
     11  CZ       -37.7830    6.3600   78.0360 C.ar   97  TYR97       0.1957
     12  OH       -38.3410    5.2990   78.7120 O.3    97  TYR97      -0.2866
     13  N        -33.6070   11.5620   74.3190 N.am   98  SER98      -0.1952
     14  CA       -33.3970   12.6830   73.3960 C.3    98  SER98       0.1924
     15  C        -31.9220   12.9170   73.0310 C.2    98  SER98       0.2314
     16  O        -31.5130   14.0490   72.7610 O.2    98  SER98      -0.2863
     17  CB       -34.0410   13.9650   73.9420 C.3    98  SER98       0.2116
     18  OG       -33.5970   14.2380   75.2640 O.3    98  SER98      -0.2180
     19  N        -34.6190   12.9410   79.4910 N.3   147  LYS147     -0.1245
     20  CA       -35.2590   11.8200   80.1350 C.3   147  LYS147      0.1561
     21  C        -34.4700   10.5380   79.9140 C.2   147  LYS147      0.2260
     22  O        -33.9740   10.2910   78.8120 O.2   147  LYS147     -0.2867
     23  CB       -36.6710   11.6620   79.5980 C.3   147  LYS147      0.0271
     24  CG       -37.6650   12.7080   80.0710 C.3   147  LYS147      0.0035
     25  CD       -39.0110   12.3690   79.4750 C.3   147  LYS147      0.0206
     26  CE       -40.1490   12.9740   80.2550 C.3   147  LYS147      0.1093
     27  NZ       -40.4690   14.3230   79.7620 N.3   147  LYS147     -0.1314
     28  N        -36.0990    2.8070   80.3850 N.3   150  SER150     -0.1202
     29  CA       -36.0230    1.5730   79.6150 C.3   150  SER150      0.2020
     30  C        -36.6370    1.8230   78.2460 C.2   150  SER150      0.2619
     31  O        -37.6440    2.5150   78.1360 O.2   150  SER150     -0.2717
     32  CB       -36.7860    0.4600   80.3370 C.3   150  SER150      0.2103
     33  OG       -36.8640   -0.7040   79.5330 O.3   150  SER150     -0.2182
     34  N        -36.0270    1.2700   77.2100 N.am  151  TRP151     -0.1961
     35  CA       -36.5540    1.4060   75.8590 C.3   151  TRP151      0.1771
     36  C        -37.7300    0.4690   75.6390 C.2   151  TRP151      0.2619
     37  O        -38.7020    0.8510   74.9990 O.2   151  TRP151     -0.2715
     38  CB       -35.4680    1.1500   74.8110 C.3   151  TRP151      0.0590
     39  CG       -35.7840    1.6330   73.3750 C.ar  151  TRP151      0.0006
     40  CD1      -35.9820    0.8430   72.2580 C.ar  151  TRP151      0.0946
     41  CD2      -35.8920    2.9930   72.9190 C.ar  151  TRP151      0.0152
     42  NE1      -36.2050    1.6310   71.1500 N.ar  151  TRP151     -0.2442
     43  CE2      -36.1580    2.9500   71.5240 C.ar  151  TRP151      0.0810
     44  CE3      -35.7890    4.2420   73.5510 C.ar  151  TRP151      0.0012
     45  CZ2      -36.3260    4.1140   70.7500 C.ar  151  TRP151      0.0191
     46  CZ3      -35.9540    5.4000   72.7840 C.ar  151  TRP151      0.0001
     47  CH2      -36.2230    5.3240   71.3940 C.ar  151  TRP151      0.0015
     48  N        -37.6530   -0.7470   76.1820 N.am  152  VAL152     -0.1963
     49  CA       -38.6540   -1.7770   75.8450 C.3   152  VAL152      0.1727
     50  C        -39.4480   -2.3990   77.0120 C.2   152  VAL152      0.2616
     51  O        -40.2860   -3.2660   76.7750 O.2   152  VAL152     -0.2715
     52  CB       -38.0550   -2.9050   74.9590 C.3   152  VAL152      0.0290
     53  CG1      -37.5150   -2.3410   73.6570 C.3   152  VAL152      0.0023
     54  CG2      -36.9600   -3.6480   75.7010 C.3   152  VAL152      0.0023
     55  N        -39.1970   -1.9690   78.2500 N.am  153  TYR153     -0.1960
     56  CA       -39.9520   -2.4940   79.3970 C.3   153  TYR153      0.1771
     57  C        -40.7360   -1.4330   80.1420 C.2   153  TYR153      0.2620
     58  O        -40.1720   -0.4240   80.5660 O.2   153  TYR153     -0.2715
     59  CB       -39.0400   -3.1740   80.4080 C.3   153  TYR153      0.0574
     60  CG       -38.3010   -4.4060   79.9400 C.ar  153  TYR153     -0.0198
     61  CD1      -38.9270   -5.6510   79.8900 C.ar  153  TYR153     -0.0009
     62  CD2      -36.9520   -4.3340   79.6010 C.ar  153  TYR153     -0.0009
     63  CE1      -38.2230   -6.7960   79.4900 C.ar  153  TYR153      0.0417
     64  CE2      -36.2460   -5.4630   79.2100 C.ar  153  TYR153      0.0417
     65  CZ       -36.8820   -6.6890   79.1580 C.ar  153  TYR153      0.1957
     66  OH       -36.1560   -7.7940   78.7650 O.3   153  TYR153     -0.2866
     67  N        -42.0280   -1.6900   80.3280 N.am  154  SER154     -0.1950
     68  CA       -42.8960   -0.8330   81.1290 C.3   154  SER154      0.1924
     69  C        -42.5240   -0.8460   82.6160 C.2   154  SER154      0.2314
     70  O        -41.6320   -1.5810   83.0490 O.2   154  SER154     -0.2863
     71  CB       -44.3620   -1.2670   80.9680 C.3   154  SER154      0.2116
     72  OG       -44.6470   -2.4480   81.7040 O.3   154  SER154     -0.2180
     73  N        -42.5860   -4.1390   84.3510 N.3   157  GLU157     -0.1245
     74  CA       -41.4600   -5.0580   84.2030 C.3   157  GLU157      0.1567
     75  C        -40.1700   -4.5110   84.8150 C.2   157  GLU157      0.2260
     76  O        -39.4570   -5.2310   85.5150 O.2   157  GLU157     -0.2867
     77  CB       -41.2360   -5.4360   82.7390 C.3   157  GLU157      0.0388
     78  CG       -42.3350   -6.2840   82.1070 C.3   157  GLU157      0.1160
     79  CD       -43.1470   -5.5390   81.0510 C.2   157  GLU157      0.3649
     80  OE1      -42.6330   -4.5900   80.4200 O.co2 157  GLU157     -0.2457
     81  OE2      -44.3130   -5.9210   80.8320 O.co2 157  GLU157     -0.2457
     82  N        -50.6860    6.1260   79.4390 N.3   192  TYR192     -0.1241
     83  CA       -51.2600    6.4590   78.1290 C.3   192  TYR192      0.1605
     84  C        -52.6380    5.8290   77.9720 C.2   192  TYR192      0.2264
     85  O        -52.9310    4.8110   78.5980 O.2   192  TYR192     -0.2867
     86  CB       -50.3190    6.0600   76.9850 C.3   192  TYR192      0.0534
     87  CG       -48.9310    6.6610   77.1120 C.ar  192  TYR192     -0.0201
     88  CD1      -48.7080    8.0280   76.8790 C.ar  192  TYR192     -0.0009
     89  CD2      -47.8400    5.8720   77.4730 C.ar  192  TYR192     -0.0009
     90  CE1      -47.4220    8.5890   77.0060 C.ar  192  TYR192      0.0417
     91  CE2      -46.5590    6.4170   77.6020 C.ar  192  TYR192      0.0417
     92  CZ       -46.3520    7.7720   77.3700 C.ar  192  TYR192      0.1957
     93  OH       -45.0780    8.3040   77.4960 O.3   192  TYR192     -0.2866
     94  N        -54.1130    4.1500   75.6770 N.3   194  CYS194     -0.1221
     95  CA       -54.1630    2.8260   75.0670 C.3   194  CYS194      0.1808
     96  C        -54.0050    1.6890   76.0680 C.2   194  CYS194      0.2601
     97  O        -54.5810    0.6160   75.9030 O.2   194  CYS194     -0.2717
     98  CB       -53.0420    2.6960   74.0320 C.3   194  CYS194      0.0970
     99  SG       -51.3770    2.8780   74.7420 S.3   194  CYS194     -0.0800
    100  N        -53.2290    1.9480   77.1130 N.am  195  CYS195     -0.1970
    101  CA       -52.4570    0.9050   77.7580 C.3   195  CYS195      0.1712
    102  C        -52.5320    0.9530   79.2840 C.2   195  CYS195      0.2296
    103  O        -52.4760    2.0360   79.8640 O.2   195  CYS195     -0.2864
    104  CB       -51.0140    1.0470   77.2770 C.3   195  CYS195      0.0983
    105  SG       -50.8640    1.0130   75.4460 S.3   195  CYS195     -0.0798
    106  N        -50.3670   -0.2130   81.5890 N.3   197  GLU197     -0.1245
    107  CA       -49.0760   -0.0990   82.2850 C.3   197  GLU197      0.1567
    108  C        -48.6850    1.3450   82.5570 C.2   197  GLU197      0.2260
    109  O        -48.9800    2.2240   81.7530 O.2   197  GLU197     -0.2867
    110  CB       -47.9400   -0.7470   81.4760 C.3   197  GLU197      0.0388
    111  CG       -48.2310   -2.1160   80.8540 C.3   197  GLU197      0.1160
    112  CD       -48.8930   -2.0290   79.4780 C.2   197  GLU197      0.3649
    113  OE1      -48.5970   -1.0760   78.7130 O.co2 197  GLU197     -0.2457
    114  OE2      -49.7020   -2.9310   79.1560 O.co2 197  GLU197     -0.2457
    115  N        -45.6310    4.1340   82.6980 N.3   199  TYR199     -0.1241
    116  CA       -44.3690    4.2920   82.0020 C.3   199  TYR199      0.1605
    117  C        -43.4830    5.2830   82.7160 C.2   199  TYR199      0.2264
    118  O        -43.8070    6.4690   82.8080 O.2   199  TYR199     -0.2867
    119  CB       -44.5940    4.6490   80.5300 C.3   199  TYR199      0.0534
    120  CG       -45.0800    3.4560   79.7330 C.ar  199  TYR199     -0.0201
    121  CD1      -44.1850    2.4890   79.2810 C.ar  199  TYR199     -0.0009
    122  CD2      -46.4380    3.2770   79.4630 C.ar  199  TYR199     -0.0009
    123  CE1      -44.6270    1.3810   78.5670 C.ar  199  TYR199      0.0417
    124  CE2      -46.8890    2.1740   78.7550 C.ar  199  TYR199      0.0417
    125  CZ       -45.9770    1.2290   78.3100 C.ar  199  TYR199      0.1957
    126  OH       -46.4120    0.1260   77.6070 O.3   199  TYR199     -0.2866
@<TRIPOS>BOND
     1    45    47   ar
     2    45    43   ar
     3    42    43   ar
     4    42    40   ar
     5    47    46   ar
     6    43    41   ar
     7    40    39   ar
     8    16    15    2
     9    46    44   ar
    10    41    39   ar
    11    41    44   ar
    12    15    14    1
    13     4     3    2
    14    39    38    1
    15    14    17    1
    16    14    13    1
    17    53    52    1
    18    17    18    1
    19    98    99    1
    20    98    95    1
    21     3    13   am
    22     3     2    1
    23    99   105    1
    24    38    35    1
    25    52    54    1
    26    52    49    1
    27    37    36    2
    28    95    94    1
    29    95    96    1
    30     2     5    1
    31     2     1    1
    32   105   104    1
    33    36    35    1
    34    36    48   am
    35    49    48    1
    36    49    50    1
    37    35    34    1
    38    97    96    2
    39     5     6    1
    40    96   100   am
    41     7     6   ar
    42     7     9   ar
    43     6     8   ar
    44    51    50    2
    45    88    90   ar
    46    88    87   ar
    47    86    87    1
    48    86    83    1
    49    90    92   ar
    50    50    55   am
    51    87    89   ar
    52   100   101    1
    53    34    30   am
    54   104   101    1
    55     9    11   ar
    56    92    93    1
    57    92    91   ar
    58     8    10   ar
    59    89    91   ar
    60   126   125    1
    61   101   102    1
    62    84    83    1
    63    84    85    2
    64    11    10   ar
    65    11    12    1
    66    83    82    1
    67    31    30    2
    68    30    29    1
    69    55    56    1
    70   125   123   ar
    71   125   124   ar
    72   123   121   ar
    73   113   112   ar
    74   124   122   ar
    75    66    65    1
    76    22    21    2
    77   114   112   ar
    78    65    64   ar
    79    65    63   ar
    80    64    62   ar
    81   121   120   ar
    82   102   103    2
    83    56    57    1
    84    56    59    1
    85   122   120   ar
    86    25    24    1
    87    25    26    1
    88   112   111    1
    89    63    61   ar
    90    19    20    1
    91    33    32    1
    92    23    24    1
    93    23    20    1
    94    62    60   ar
    95    29    32    1
    96    29    28    1
    97   120   119    1
    98    27    26    1
    99    61    60   ar
   100    21    20    1
   101    60    59    1
   102    57    67   am
   103    57    58    2
   104    67    68    1
   105    80    79   ar
   106   119   116    1
   107    81    79   ar
   108   111   110    1
   109    71    68    1
   110    71    72    1
   111    79    78    1
   112    68    69    1
   113   110   107    1
   114   106   107    1
   115   109   108    2
   116   116   115    1
   117   116   117    1
   118    78    77    1
   119   107   108    1
   120    69    70    2
   121   117   118    2
   122    77    74    1
   123    74    73    1
   124    74    75    1
   125    75    76    2
