@<TRIPOS>MOLECULE
tmp/2wzyG01.pdb
 101 90 0 0 0
SMALL
GASTEIGER

@<TRIPOS>ATOM
      1  N        -24.0440   11.0550   88.5170 N.3    40  THR40      -0.1218
      2  CA       -22.9300   11.8600   88.9780 C.3    40  THR40       0.1862
      3  C        -22.4780   12.6580   87.7720 C.2    40  THR40       0.2287
      4  O        -21.8650   12.1090   86.8590 O.2    40  THR40      -0.2866
      5  CB       -21.7830   10.9800   89.5230 C.3    40  THR40       0.1770
      6  OG1      -22.2220   10.3200   90.7120 O.3    40  THR40      -0.2211
      7  CG2      -20.5620   11.8140   89.8570 C.3    40  THR40       0.0375
      8  N        -20.1300   14.9800   85.9560 N.3    42  GLN42      -0.1245
      9  CA       -18.7380   15.3900   86.0680 C.3    42  GLN42       0.1566
     10  C        -18.4300   16.6740   85.3070 C.2    42  GLN42       0.2260
     11  O        -17.5560   17.4430   85.7250 O.2    42  GLN42      -0.2867
     12  CB       -17.8240   14.2800   85.5750 C.3    42  GLN42       0.0367
     13  CG       -16.4080   14.3750   86.1080 C.3    42  GLN42       0.0905
     14  CD       -15.5530   13.2020   85.6570 C.2    42  GLN42       0.2608
     15  OE1      -15.8010   12.5920   84.6040 O.2    42  GLN42      -0.2717
     16  NE2      -14.5340   12.8810   86.4450 N.am   42  GLN42      -0.0878
     17  N        -21.2870    9.9160   85.3940 N.3    59  TYR59      -0.1241
     18  CA       -21.3430    8.5030   85.7670 C.3    59  TYR59       0.1605
     19  C        -22.8090    8.1500   85.9700 C.2    59  TYR59       0.2264
     20  O        -23.5310    8.8540   86.6920 O.2    59  TYR59      -0.2867
     21  CB       -20.5560    8.2110   87.0560 C.3    59  TYR59       0.0534
     22  CG       -19.0960    8.6710   87.0970 C.ar   59  TYR59      -0.0201
     23  CD1      -18.4240    8.7920   88.3200 C.ar   59  TYR59      -0.0009
     24  CD2      -18.3980    8.9830   85.9360 C.ar   59  TYR59      -0.0009
     25  CE1      -17.0980    9.2130   88.3820 C.ar   59  TYR59       0.0417
     26  CE2      -17.0810    9.4040   85.9840 C.ar   59  TYR59       0.0417
     27  CZ       -16.4330    9.5140   87.2090 C.ar   59  TYR59       0.1957
     28  OH       -15.1240    9.9260   87.2480 O.3    59  TYR59      -0.2866
     29  N        -25.0500    5.5120   87.5560 N.3    61  GLN61      -0.1245
     30  CA       -25.0540    4.4090   88.4920 C.3    61  GLN61       0.1566
     31  C        -26.3270    3.5860   88.3720 C.2    61  GLN61       0.2260
     32  O        -27.4280    4.1220   88.5130 O.2    61  GLN61      -0.2867
     33  CB       -24.8850    4.9300   89.9240 C.3    61  GLN61       0.0367
     34  CG       -25.0550    3.8450   90.9840 C.3    61  GLN61       0.0905
     35  CD       -24.6320    4.2850   92.3770 C.2    61  GLN61       0.2608
     36  OE1      -25.0150    3.6640   93.3710 O.2    61  GLN61      -0.2717
     37  NE2      -23.8360    5.3490   92.4580 N.am   61  GLN61      -0.0878
     38  N        -17.9060  -11.0370   97.0330 N.3    81  ASP81      -0.1239
     39  CA       -18.1860  -10.3980   95.7530 C.3    81  ASP81       0.1674
     40  C        -17.2120  -10.8430   94.6660 C.2    81  ASP81       0.2266
     41  O        -16.1980  -11.4840   94.9490 O.2    81  ASP81      -0.2867
     42  CB       -18.1450   -8.8650   95.8930 C.3    81  ASP81       0.1410
     43  CG       -16.8320   -8.3570   96.4770 C.2    81  ASP81       0.3668
     44  OD1      -16.1660   -7.5110   95.8370 O.co2  81  ASP81      -0.2456
     45  OD2      -16.4630   -8.7920   97.5820 O.co2  81  ASP81      -0.2456
     46  N        -16.2040   -9.7680   90.1020 N.3    83  ARG83      -0.1245
     47  CA       -16.4500   -8.8950   88.9680 C.3    83  ARG83       0.1563
     48  C        -16.7440   -9.7250   87.7390 C.2    83  ARG83       0.2260
     49  O        -16.1790  -10.7920   87.5720 O.2    83  ARG83      -0.2867
     50  CB       -15.2400   -7.9920   88.6990 C.3    83  ARG83       0.0307
     51  CG       -14.7250   -7.2100   89.9020 C.3    83  ARG83       0.0489
     52  CD       -15.7710   -6.3100   90.4960 C.3    83  ARG83       0.2205
     53  NE       -15.2840   -5.5860   91.6670 N.pl3  83  ARG83      -0.0865
     54  CZ       -15.2610   -6.0750   92.9020 C.cat  83  ARG83       0.5346
     55  NH1      -14.8020   -5.3360   93.8990 N.pl3  83  ARG83       0.1354
     56  NH2      -15.6940   -7.3010   93.1510 N.pl3  83  ARG83       0.1354
     57  N        -17.5630   -3.2900   83.3040 N.3   110  ILE110     -0.1245
     58  CA       -17.4390   -4.2800   84.3600 C.3   110  ILE110      0.1561
     59  C        -18.4390   -3.9910   85.4640 C.2   110  ILE110      0.2260
     60  O        -18.5680   -2.8510   85.9260 O.2   110  ILE110     -0.2867
     61  CB       -16.0030   -4.3000   84.9420 C.3   110  ILE110      0.0252
     62  CG1      -14.9720   -4.4240   83.8110 C.3   110  ILE110      0.0019
     63  CG2      -15.8290   -5.4500   85.9730 C.3   110  ILE110      0.0019
     64  CD1      -13.5440   -4.5040   84.2710 C.3   110  ILE110      0.0001
     65  N        -20.1130   -5.1190   89.3820 N.3   112  VAL112     -0.1245
     66  CA       -19.8250   -5.7610   90.6670 C.3   112  VAL112      0.1561
     67  C        -21.0260   -6.6140   91.1190 C.2   112  VAL112      0.2260
     68  O        -22.1710   -6.1410   91.1140 O.2   112  VAL112     -0.2867
     69  CB       -19.4420   -4.7040   91.7480 C.3   112  VAL112      0.0252
     70  CG1      -19.0820   -5.3620   93.0770 C.3   112  VAL112      0.0019
     71  CG2      -18.3100   -3.8140   91.2440 C.3   112  VAL112      0.0019
     72  N        -24.0050   -4.0100   90.8040 N.3   120  MET120     -0.1245
     73  CA       -23.6910   -2.5880   90.6770 C.3   120  MET120      0.1570
     74  C        -22.9560   -2.3170   89.3550 C.2   120  MET120      0.2261
     75  O        -21.9120   -2.9210   89.0890 O.2   120  MET120     -0.2867
     76  CB       -22.8390   -2.1420   91.8740 C.3   120  MET120      0.0387
     77  CG       -22.5250   -0.6640   91.9220 C.3   120  MET120      0.0595
     78  SD       -23.9880    0.3020   92.2950 S.3   120  MET120     -0.1393
     79  CE       -24.0120    0.2230   94.0870 C.3   120  MET120      0.0692
     80  N        -21.6840    0.9870   86.9430 N.3   122  ILE122     -0.1245
     81  CA       -21.5240    2.4480   86.8840 C.3   122  ILE122      0.1561
     82  C        -20.6890    2.9170   85.6750 C.2   122  ILE122      0.2260
     83  O        -19.5450    3.3560   85.8260 O.2   122  ILE122     -0.2867
     84  CB       -20.9230    3.0260   88.2020 C.3   122  ILE122      0.0252
     85  CG1      -21.6400    2.4410   89.4300 C.3   122  ILE122      0.0019
     86  CG2      -20.9570    4.5590   88.1760 C.3   122  ILE122      0.0019
     87  CD1      -21.2120    3.0030   90.7820 C.3   122  ILE122      0.0001
     88  N        -25.6660   13.9790   92.1130 N.3   168  ASP168     -0.1239
     89  CA       -24.3780   14.0690   92.8040 C.3   168  ASP168      0.1674
     90  C        -23.4180   15.0070   92.0540 C.2   168  ASP168      0.2266
     91  O        -22.9750   14.6970   90.9440 O.2   168  ASP168     -0.2867
     92  CB       -23.7870   12.6590   92.9570 C.3   168  ASP168      0.1410
     93  CG       -22.5190   12.6220   93.8070 C.2   168  ASP168      0.3668
     94  OD1      -22.2120   13.6000   94.5210 O.co2 168  ASP168     -0.2456
     95  OD2      -21.8140   11.5950   93.7520 O.co2 168  ASP168     -0.2456
     96  N        -18.1230   15.5710   92.5460 N.3   171  SER171     -0.1217
     97  CA       -16.9430   15.5400   91.6630 C.3   171  SER171      0.1889
     98  C        -17.1650   16.1960   90.2980 C.2   171  SER171      0.2288
     99  O        -16.6330   15.7490   89.2810 O.2   171  SER171     -0.2866
    100  CB       -16.2210   14.1730   91.5940 C.3   171  SER171      0.2089
    101  OG       -17.0880   13.0670   91.5430 O.3   171  SER171     -0.2183
@<TRIPOS>BOND
     1    57    58    1
     2    62    64    1
     3    62    61    1
     4    58    61    1
     5    58    59    1
     6    15    14    2
     7    61    63    1
     8    10    11    2
     9    10     9    1
    10    17    18    1
    11    59    60    2
    12    12     9    1
    13    12    13    1
    14    14    13    1
    15    14    16   am
    16    82    83    2
    17    82    81    1
    18    18    19    1
    19    18    21    1
    20    24    26   ar
    21    24    22   ar
    22     8     9    1
    23    19    20    2
    24    26    27   ar
    25     4     3    2
    26    81    80    1
    27    81    84    1
    28    21    22    1
    29    22    23   ar
    30    27    28    1
    31    27    25   ar
    32    29    30    1
    33    49    48    2
    34    48    47    1
    35     3     2    1
    36    86    84    1
    37    84    85    1
    38    23    25   ar
    39    31    30    1
    40    31    32    2
    41    30    33    1
    42     1     2    1
    43    50    47    1
    44    50    51    1
    45    47    46    1
    46     2     5    1
    47    75    74    2
    48    99    98    2
    49    74    73    1
    50    65    66    1
    51    85    87    1
    52     5     7    1
    53     5     6    1
    54    51    52    1
    55    33    34    1
    56    98    97    1
    57    52    53    1
    58    66    67    1
    59    66    69    1
    60    73    72    1
    61    73    76    1
    62    91    90    2
    63    34    35    1
    64    68    67    2
    65    71    69    1
    66   101   100    1
    67   100    97    1
    68    97    96    1
    69    53    54    2
    70    69    70    1
    71    76    77    1
    72    77    78    1
    73    90    89    1
    74    88    89    1
    75    78    79    1
    76    35    37   am
    77    35    36    2
    78    89    92    1
    79    54    56    1
    80    54    55    1
    81    92    93    1
    82    95    93   ar
    83    93    94   ar
    84    40    41    2
    85    40    39    1
    86    39    42    1
    87    39    38    1
    88    44    43   ar
    89    42    43    1
    90    43    45   ar
