@<TRIPOS>MOLECULE
tmp/2x00C01.pdb
 93 83 0 0 0
SMALL
GASTEIGER

@<TRIPOS>ATOM
      1  N         -6.7930  -25.3260   -3.5160 N.3    42  THR42      -0.1218
      2  CA        -7.8850  -25.3090   -4.4610 C.3    42  THR42       0.1862
      3  C         -7.3850  -24.4260   -5.5820 C.2    42  THR42       0.2287
      4  O         -7.2240  -23.2240   -5.3900 O.2    42  THR42      -0.2866
      5  CB        -9.1570  -24.7090   -3.8430 C.3    42  THR42       0.1770
      6  OG1       -9.6150  -25.5540   -2.7800 O.3    42  THR42      -0.2211
      7  CG2      -10.2490  -24.5990   -4.8840 C.3    42  THR42       0.0375
      8  N         -7.7320  -22.3100   -8.6880 N.3    44  GLN44      -0.1245
      9  CA        -8.7860  -21.5980   -9.3810 C.3    44  GLN44       0.1566
     10  C         -8.4460  -21.2540  -10.8320 C.2    44  GLN44       0.2260
     11  O         -9.3320  -21.2690  -11.6880 O.2    44  GLN44      -0.2867
     12  CB        -9.2000  -20.3500   -8.6070 C.3    44  GLN44       0.0367
     13  CG       -10.5890  -19.8630   -8.9590 C.3    44  GLN44       0.0905
     14  CD       -11.0970  -18.7710   -8.0300 C.2    44  GLN44       0.2608
     15  OE1      -10.3220  -18.1060   -7.3340 O.2    44  GLN44      -0.2717
     16  NE2      -12.4100  -18.5760   -8.0220 N.am   44  GLN44      -0.0878
     17  N         -6.8360  -21.1040   -3.6390 N.3    61  TYR61      -0.1241
     18  CA        -7.1000  -20.9870   -2.2030 C.3    61  TYR61       0.1605
     19  C         -6.1950  -21.9630   -1.4660 C.2    61  TYR61       0.2264
     20  O         -6.0990  -23.1440   -1.8340 O.2    61  TYR61      -0.2867
     21  CB        -8.5600  -21.2840   -1.8360 C.3    61  TYR61       0.0534
     22  CG        -9.6390  -20.5500   -2.6060 C.ar   61  TYR61      -0.0201
     23  CD1       -9.3850  -19.3440   -3.2570 C.ar   61  TYR61      -0.0009
     24  CD2      -10.9420  -21.0530   -2.6410 C.ar   61  TYR61      -0.0009
     25  CE1      -10.3900  -18.6740   -3.9490 C.ar   61  TYR61       0.0417
     26  CE2      -11.9580  -20.3830   -3.3260 C.ar   61  TYR61       0.0417
     27  CZ       -11.6740  -19.2000   -3.9790 C.ar   61  TYR61       0.1957
     28  OH       -12.6680  -18.5470   -4.6700 O.3    61  TYR61      -0.2866
     29  N         -5.8690  -23.8190    1.8280 N.3    63  GLN63      -0.1245
     30  CA        -6.5650  -24.1820    3.0560 C.3    63  GLN63       0.1566
     31  C         -5.5720  -24.6090    4.1360 C.2    63  GLN63       0.2260
     32  O         -4.7330  -25.4900    3.9160 O.2    63  GLN63      -0.2867
     33  CB        -7.6220  -25.2620    2.7870 C.3    63  GLN63       0.0367
     34  CG        -8.4120  -25.7170    4.0410 C.3    63  GLN63       0.0905
     35  CD        -9.6680  -26.5240    3.6960 C.2    63  GLN63       0.2608
     36  OE1      -10.3000  -26.3040    2.6510 O.2    63  GLN63      -0.2717
     37  NE2      -10.0380  -27.4490    4.5760 N.am   63  GLN63      -0.0878
     38  N        -15.3520  -15.8630   14.6120 N.3    85  ARG85      -0.1245
     39  CA       -14.4410  -15.3060   13.6280 C.3    85  ARG85       0.1563
     40  C        -13.5460  -14.2790   14.2900 C.2    85  ARG85       0.2260
     41  O        -14.0120  -13.4630   15.0770 O.2    85  ARG85      -0.2867
     42  CB       -15.2180  -14.6680   12.4750 C.3    85  ARG85       0.0307
     43  CG       -15.6960  -15.6560   11.4190 C.3    85  ARG85       0.0489
     44  CD       -16.8710  -16.5290   11.8650 C.3    85  ARG85       0.2205
     45  NE       -17.1550  -17.5690   10.8790 N.pl3  85  ARG85      -0.0865
     46  CZ       -17.9250  -18.6350   11.0900 C.cat  85  ARG85       0.5346
     47  NH1      -18.1150  -19.5130   10.1100 N.pl3  85  ARG85       0.1354
     48  NH2      -18.4930  -18.8370   12.2700 N.pl3  85  ARG85       0.1354
     49  N         -8.9150  -13.2290    7.7860 N.3   112  ILE112     -0.1245
     50  CA        -9.7800  -13.5970    8.9020 C.3   112  ILE112      0.1561
     51  C         -9.8480  -15.1360    9.0070 C.2   112  ILE112      0.2260
     52  O         -9.9090  -15.8400    7.9920 O.2   112  ILE112     -0.2867
     53  CB       -11.2140  -13.0230    8.7190 C.3   112  ILE112      0.0252
     54  CG1      -11.1730  -11.5020    8.4820 C.3   112  ILE112      0.0019
     55  CG2      -12.1130  -13.3670    9.9250 C.3   112  ILE112      0.0019
     56  CD1      -12.5010  -10.8930    8.0260 C.3   112  ILE112      0.0001
     57  N        -11.3290  -18.7750   11.3460 N.3   114  VAL114     -0.1245
     58  CA       -12.4300  -19.3070   12.1340 C.3   114  VAL114      0.1561
     59  C        -11.9020  -20.2500   13.2160 C.2   114  VAL114      0.2260
     60  O        -11.1680  -21.1950   12.9210 O.2   114  VAL114     -0.2867
     61  CB       -13.4740  -20.0220   11.2440 C.3   114  VAL114      0.0252
     62  CG1      -14.7100  -20.3950   12.0660 C.3   114  VAL114      0.0019
     63  CG2      -13.8580  -19.1340   10.0640 C.3   114  VAL114      0.0019
     64  N         -9.3180  -22.7010   11.2540 N.3   122  MET122     -0.1245
     65  CA        -9.3800  -22.7990    9.8030 C.3   122  MET122      0.1570
     66  C         -9.0160  -21.4360    9.2350 C.2   122  MET122      0.2261
     67  O         -9.5900  -20.4190    9.6260 O.2   122  MET122     -0.2867
     68  CB       -10.7860  -23.1970    9.3610 C.3   122  MET122      0.0387
     69  CG       -10.8920  -23.5970    7.9130 C.3   122  MET122      0.0595
     70  SD       -10.1760  -25.2340    7.6680 S.3   122  MET122     -0.1393
     71  CE       -11.4290  -26.2890    8.4440 C.3   122  MET122      0.0692
     72  N         -8.0610  -19.8070    5.3490 N.3   124  ILE124     -0.1245
     73  CA        -8.0090  -20.0960    3.8980 C.3   124  ILE124      0.1561
     74  C         -7.8080  -18.8370    3.0550 C.2   124  ILE124      0.2260
     75  O         -8.7690  -18.3030    2.5020 O.2   124  ILE124     -0.2867
     76  CB        -9.2780  -20.8520    3.3940 C.3   124  ILE124      0.0252
     77  CG1       -9.6240  -22.0200    4.3230 C.3   124  ILE124      0.0019
     78  CG2       -9.0840  -21.3180    1.9310 C.3   124  ILE124      0.0019
     79  CD1      -10.9040  -22.7670    3.9670 C.3   124  ILE124      0.0001
     80  N         -7.7170  -29.8610   -5.2560 N.3   170  ASP170     -0.1239
     81  CA        -9.1130  -29.5770   -5.5070 C.3   170  ASP170      0.1674
     82  C         -9.2300  -28.7500   -6.7940 C.2   170  ASP170      0.2266
     83  O         -8.7850  -27.5970   -6.8530 O.2   170  ASP170     -0.2867
     84  CB        -9.7370  -28.8610   -4.3000 C.3   170  ASP170      0.1410
     85  CG       -11.1550  -28.3580   -4.5690 C.2   170  ASP170      0.3668
     86  OD1      -11.7000  -28.5680   -5.6840 O.co2 170  ASP170     -0.2456
     87  OD2      -11.7270  -27.7390   -3.6500 O.co2 170  ASP170     -0.2456
     88  N        -13.2300  -25.9880   -8.5300 N.3   173  SER173     -0.1217
     89  CA       -13.4690  -24.5680   -8.7590 C.3   173  SER173      0.1889
     90  C        -12.5120  -24.0210   -9.8270 C.2   173  SER173      0.2288
     91  O        -12.3320  -22.8120   -9.9380 O.2   173  SER173     -0.2866
     92  CB       -13.3030  -23.7720   -7.4550 C.3   173  SER173      0.2089
     93  OG       -14.1410  -24.2750   -6.4320 O.3   173  SER173     -0.2183
@<TRIPOS>BOND
     1    11    10    2
     2    10     9    1
     3    91    90    2
     4    90    89    1
     5     9     8    1
     6     9    12    1
     7    13    12    1
     8    13    14    1
     9    89    88    1
    10    89    92    1
    11    14    16   am
    12    14    15    2
    13    92    93    1
    14    83    82    2
    15    82    81    1
    16    86    85   ar
    17     3     4    2
    18     3     2    1
    19    81    80    1
    20    81    84    1
    21     7     5    1
    22    28    27    1
    23    85    84    1
    24    85    87   ar
    25     2     5    1
    26     2     1    1
    27    27    25   ar
    28    27    26   ar
    29    25    23   ar
    30     5     6    1
    31    17    18    1
    32    26    24   ar
    33    23    22   ar
    34    24    22   ar
    35    22    21    1
    36    18    21    1
    37    18    19    1
    38    20    19    2
    39    29    30    1
    40    78    76    1
    41    75    74    2
    42    36    35    2
    43    33    30    1
    44    33    34    1
    45    74    73    1
    46    30    31    1
    47    76    73    1
    48    76    77    1
    49    35    34    1
    50    35    37   am
    51    73    72    1
    52    32    31    2
    53    79    77    1
    54    70    69    1
    55    70    71    1
    56    49    50    1
    57    69    68    1
    58    52    51    2
    59    56    54    1
    60    54    53    1
    61    53    50    1
    62    53    55    1
    63    50    51    1
    64    66    67    2
    65    66    65    1
    66    68    65    1
    67    65    64    1
    68    63    61    1
    69    47    46    1
    70    45    46    2
    71    45    44    1
    72    46    48    1
    73    61    62    1
    74    61    58    1
    75    57    58    1
    76    43    44    1
    77    43    42    1
    78    58    59    1
    79    42    39    1
    80    60    59    2
    81    39    40    1
    82    39    38    1
    83    40    41    2
