@<TRIPOS>MOLECULE
tmp/2x00C00.pdb
 98 97 0 0 0
SMALL
GASTEIGER

@<TRIPOS>ATOM
      1  N          8.3470  -21.9210   -1.9120 N.3    99  TYR99      -0.1227
      2  CA         9.8130  -21.8550   -1.8990 C.3    99  TYR99       0.1736
      3  C         10.4660  -21.3070   -3.1800 C.2    99  TYR99       0.2596
      4  O         11.6720  -21.0420   -3.1810 O.2    99  TYR99      -0.2718
      5  CB        10.4440  -23.2070   -1.5420 C.3    99  TYR99       0.0548
      6  CG        10.1480  -23.7350   -0.1460 C.ar   99  TYR99      -0.0200
      7  CD1        9.7910  -22.8820    0.8980 C.ar   99  TYR99      -0.0009
      8  CD2       10.2610  -25.0950    0.1270 C.ar   99  TYR99      -0.0009
      9  CE1        9.5290  -23.3820    2.1810 C.ar   99  TYR99       0.0417
     10  CE2       10.0100  -25.6030    1.3910 C.ar   99  TYR99       0.0417
     11  CZ         9.6430  -24.7450    2.4120 C.ar   99  TYR99       0.1957
     12  OH         9.3910  -25.2680    3.6610 O.3    99  TYR99      -0.2866
     13  N          9.6840  -21.1220   -4.2440 N.am  100  SER100     -0.1952
     14  CA        10.2370  -20.7050   -5.5330 C.3   100  SER100      0.1924
     15  C          9.4360  -19.5890   -6.1920 C.2   100  SER100      0.2314
     16  O          9.3530  -19.5150   -7.4160 O.2   100  SER100     -0.2863
     17  CB        10.3460  -21.8960   -6.4880 C.3   100  SER100      0.2116
     18  OG         9.0750  -22.4960   -6.6950 O.3   100  SER100     -0.2180
     19  N          8.5900  -20.0000  -10.2970 N.3   132  MET132     -0.1245
     20  CA         9.5170  -20.4530  -11.3230 C.3   132  MET132      0.1570
     21  C          8.9520  -21.6600  -12.0630 C.2   132  MET132      0.2261
     22  O          8.7800  -22.7430  -11.4800 O.2   132  MET132     -0.2867
     23  CB        10.8810  -20.7930  -10.7100 C.3   132  MET132      0.0387
     24  CG        11.6260  -19.5910  -10.1680 C.3   132  MET132      0.0595
     25  SD        12.8770  -20.0000   -8.9420 S.3   132  MET132     -0.1393
     26  CE        12.9440  -18.4610   -8.0140 C.3   132  MET132      0.0692
     27  N          7.0160  -25.9460   -4.1810 N.3   149  LYS149     -0.1245
     28  CA         6.9440  -26.4510   -2.8130 C.3   149  LYS149      0.1561
     29  C          6.4590  -25.3940   -1.8140 C.2   149  LYS149      0.2260
     30  O          6.8350  -24.2140   -1.8870 O.2   149  LYS149     -0.2867
     31  CB         8.2950  -27.0050   -2.3630 C.3   149  LYS149      0.0271
     32  CG         8.7870  -28.2060   -3.1560 C.3   149  LYS149      0.0035
     33  CD        10.1770  -28.6240   -2.6430 C.3   149  LYS149      0.0206
     34  CE        10.9640  -29.3870   -3.6880 C.3   149  LYS149      0.1093
     35  NZ        12.3130  -29.7150   -3.1740 N.3   149  LYS149     -0.1314
     36  N          6.9940  -24.4320    5.8870 N.3   152  SER152     -0.1202
     37  CA         7.4660  -23.4630    6.8470 C.3   152  SER152      0.2020
     38  C          8.7870  -22.8950    6.3550 C.2   152  SER152      0.2619
     39  O          9.5610  -23.5820    5.6740 O.2   152  SER152     -0.2717
     40  CB         7.6400  -24.1120    8.2150 C.3   152  SER152      0.2103
     41  OG         8.1460  -23.1730    9.1440 O.3   152  SER152     -0.2182
     42  N          9.0390  -21.6380    6.6920 N.am  153  TRP153     -0.1961
     43  CA        10.2840  -21.0050    6.3230 C.3   153  TRP153      0.1771
     44  C         11.3170  -21.2540    7.4120 C.2   153  TRP153      0.2619
     45  O         12.5060  -21.3800    7.1270 O.2   153  TRP153     -0.2715
     46  CB        10.0730  -19.5060    6.0850 C.3   153  TRP153      0.0590
     47  CG        11.2530  -18.8190    5.4360 C.ar  153  TRP153      0.0006
     48  CD1       12.1010  -17.9080    6.0200 C.ar  153  TRP153      0.0946
     49  CD2       11.7220  -18.9990    4.0890 C.ar  153  TRP153      0.0152
     50  NE1       13.0480  -17.4990    5.1120 N.ar  153  TRP153     -0.2442
     51  CE2       12.8410  -18.1510    3.9210 C.ar  153  TRP153      0.0810
     52  CE3       11.2960  -19.7870    3.0050 C.ar  153  TRP153      0.0012
     53  CZ2       13.5520  -18.0770    2.7170 C.ar  153  TRP153      0.0191
     54  CZ3       11.9890  -19.7050    1.8020 C.ar  153  TRP153      0.0001
     55  CH2       13.1130  -18.8600    1.6680 C.ar  153  TRP153      0.0015
     56  N         10.8530  -21.3680    8.6550 N.am  154  VAL154     -0.1977
     57  CA        11.7490  -21.3600    9.8190 C.3   154  VAL154      0.1596
     58  C         11.6410  -22.5690   10.7570 C.2   154  VAL154      0.2287
     59  O         12.5270  -22.7730   11.5850 O.2   154  VAL154     -0.2864
     60  CB        11.5870  -20.0570   10.6610 C.3   154  VAL154      0.0276
     61  CG1       12.0450  -18.8310    9.8690 C.3   154  VAL154      0.0022
     62  CG2       10.1410  -19.8790   11.1730 C.3   154  VAL154      0.0022
     63  N         18.1360  -31.6230    4.1350 N.3   194  TYR194     -0.1241
     64  CA        19.1460  -30.6400    3.7380 C.3   194  TYR194      0.1605
     65  C         20.4950  -30.9170    4.4200 C.2   194  TYR194      0.2264
     66  O         20.5310  -31.3480    5.5810 O.2   194  TYR194     -0.2867
     67  CB        18.6700  -29.2170    4.0770 C.3   194  TYR194      0.0534
     68  CG        17.3760  -28.8160    3.3970 C.ar  194  TYR194     -0.0201
     69  CD1       17.3820  -28.1930    2.1480 C.ar  194  TYR194     -0.0009
     70  CD2       16.1440  -29.0560    4.0030 C.ar  194  TYR194     -0.0009
     71  CE1       16.1860  -27.8290    1.5140 C.ar  194  TYR194      0.0417
     72  CE2       14.9500  -28.6950    3.3820 C.ar  194  TYR194      0.0417
     73  CZ        14.9840  -28.0820    2.1380 C.ar  194  TYR194      0.1957
     74  OH        13.8070  -27.7300    1.5180 O.3   194  TYR194     -0.2866
     75  N         22.6020  -28.9990    5.6890 N.3   196  CYS196     -0.1221
     76  CA        22.8550  -28.1200    6.8230 C.3   196  CYS196      0.1808
     77  C         22.4880  -28.7720    8.1400 C.2   196  CYS196      0.2601
     78  O         23.0550  -28.4310    9.1750 O.2   196  CYS196     -0.2717
     79  CB        22.0040  -26.8630    6.6910 C.3   196  CYS196      0.0970
     80  SG        20.2210  -27.2400    6.7530 S.3   196  CYS196     -0.0800
     81  N         21.5450  -29.7070    8.0960 N.am  197  CYS197     -0.1970
     82  CA        20.6880  -29.9520    9.2460 C.3   197  CYS197      0.1712
     83  C         20.2930  -31.4110    9.4660 C.2   197  CYS197      0.2296
     84  O         19.7340  -32.0450    8.5650 O.2   197  CYS197     -0.2864
     85  CB        19.4200  -29.0980    9.0990 C.3   197  CYS197      0.0983
     86  SG        19.7420  -27.3370    8.7470 S.3   197  CYS197     -0.0798
     87  N         12.9250  -31.2380    7.1840 N.3   201  TYR201     -0.1241
     88  CA        11.9640  -30.1720    6.9690 C.3   201  TYR201      0.1605
     89  C         10.8510  -30.7380    6.1070 C.2   201  TYR201      0.2264
     90  O         11.1190  -31.5440    5.2190 O.2   201  TYR201     -0.2867
     91  CB        12.6490  -28.9510    6.3410 C.3   201  TYR201      0.0534
     92  CG        13.5300  -28.2390    7.3480 C.ar  201  TYR201     -0.0201
     93  CD1       13.1610  -27.0110    7.8850 C.ar  201  TYR201     -0.0009
     94  CD2       14.7130  -28.8270    7.8020 C.ar  201  TYR201     -0.0009
     95  CE1       13.9550  -26.3830    8.8400 C.ar  201  TYR201      0.0417
     96  CE2       15.5090  -28.2080    8.7580 C.ar  201  TYR201      0.0417
     97  CZ        15.1280  -26.9880    9.2690 C.ar  201  TYR201      0.1957
     98  OH        15.9310  -26.3880   10.2140 O.3   201  TYR201     -0.2866
@<TRIPOS>BOND
     1    21    22    2
     2    21    20    1
     3    20    23    1
     4    20    19    1
     5    23    24    1
     6    24    25    1
     7    25    26    1
     8    16    15    2
     9    18    17    1
    10    17    14    1
    11    15    14    1
    12    14    13    1
    13    13     3   am
    14    27    28    1
    15    34    35    1
    16    34    33    1
    17     4     3    2
    18     3     2    1
    19    32    33    1
    20    32    31    1
    21    28    31    1
    22    28    29    1
    23     1     2    1
    24     2     5    1
    25    30    29    2
    26     5     6    1
    27     6     8   ar
    28     6     7   ar
    29     8    10   ar
    30     7     9   ar
    31    10    11   ar
    32    71    73   ar
    33    71    69   ar
    34    74    73    1
    35    55    54   ar
    36    55    53   ar
    37    54    52   ar
    38    73    72   ar
    39    69    68   ar
    40     9    11   ar
    41    11    12    1
    42    53    51   ar
    43    52    49   ar
    44    72    70   ar
    45    68    70   ar
    46    68    67    1
    47    64    67    1
    48    64    63    1
    49    64    65    1
    50    51    49   ar
    51    51    50   ar
    52    49    47   ar
    53    65    66    2
    54    50    48   ar
    55    90    89    2
    56    47    48   ar
    57    47    46    1
    58    39    38    2
    59    75    76    1
    60    36    37    1
    61    46    43    1
    62    89    88    1
    63    43    42    1
    64    43    44    1
    65    91    88    1
    66    91    92    1
    67    38    42   am
    68    38    37    1
    69    79    80    1
    70    79    76    1
    71    80    86    1
    72    76    77    1
    73    37    40    1
    74    88    87    1
    75    45    44    2
    76    92    94   ar
    77    92    93   ar
    78    44    56   am
    79    94    96   ar
    80    93    95   ar
    81    81    77   am
    82    81    82    1
    83    77    78    2
    84    40    41    1
    85    84    83    2
    86    56    57    1
    87    86    85    1
    88    96    97   ar
    89    95    97   ar
    90    85    82    1
    91    82    83    1
    92    97    98    1
    93    57    60    1
    94    57    58    1
    95    61    60    1
    96    60    62    1
    97    58    59    2
