@<TRIPOS>MOLECULE
tmp/2x01B00.pdb
 90 87 0 0 0
SMALL
GASTEIGER

@<TRIPOS>ATOM
      1  N          6.3560   -1.4070   22.6060 N.3     5  THR5       -0.1218
      2  CA         5.1840   -1.3870   21.7170 C.3     5  THR5        0.1862
      3  C          4.2340   -0.2210   22.0060 C.2     5  THR5        0.2287
      4  O          4.1250    0.2600   23.1400 O.2     5  THR5       -0.2866
      5  CB         4.4140   -2.7480   21.6680 C.3     5  THR5        0.1770
      6  OG1        3.2540   -2.6080   20.8380 O.3     5  THR5       -0.2211
      7  CG2        3.9730   -3.1850   23.0250 C.3     5  THR5        0.0375
      8  N         -3.9720    4.4560   24.8810 N.3    10  TRP10      -0.1241
      9  CA        -3.5460    5.1100   26.0970 C.3    10  TRP10       0.1605
     10  C         -3.5840    6.6250   25.9660 C.2    10  TRP10       0.2264
     11  O         -3.2340    7.3440   26.9140 O.2    10  TRP10      -0.2867
     12  CB        -2.1180    4.6790   26.4330 C.3    10  TRP10       0.0550
     13  CG        -1.9970    3.3600   27.1270 C.ar   10  TRP10       0.0003
     14  CD1       -2.9690    2.4160   27.2890 C.ar   10  TRP10       0.0946
     15  CD2       -0.8170    2.8320   27.7280 C.ar   10  TRP10       0.0152
     16  NE1       -2.4730    1.3320   27.9820 N.ar   10  TRP10      -0.2442
     17  CE2       -1.1490    1.5590   28.2540 C.ar   10  TRP10       0.0810
     18  CE3        0.4900    3.3090   27.8720 C.ar   10  TRP10       0.0012
     19  CZ2       -0.2260    0.7580   28.9220 C.ar   10  TRP10       0.0191
     20  CZ3        1.4140    2.5220   28.5240 C.ar   10  TRP10       0.0001
     21  CH2        1.0510    1.2530   29.0550 C.ar   10  TRP10       0.0015
     22  N          5.4120    2.3210   30.2170 N.3    25  LEU25      -0.1231
     23  CA         5.2860    1.3760   31.3110 C.3    25  LEU25       0.1693
     24  C          5.9230    0.0670   30.8580 C.2    25  LEU25       0.2592
     25  O          5.5720   -0.4330   29.7890 O.2    25  LEU25      -0.2718
     26  CB         3.8070    1.1640   31.6580 C.3    25  LEU25       0.0284
     27  CG         3.4340    0.1900   32.7700 C.3    25  LEU25       0.0019
     28  CD1        3.9500    0.6800   34.1070 C.3    25  LEU25       0.0001
     29  CD2        1.9240    0.0280   32.8390 C.3    25  LEU25       0.0001
     30  N          6.8610   -0.4600   31.6620 N.am   26  CYS26      -0.1956
     31  CA         7.6220   -1.6620   31.3260 C.3    26  CYS26       0.1843
     32  C          7.6020   -2.7000   32.4530 C.2    26  CYS26       0.2625
     33  O          7.6170   -2.3660   33.6330 O.2    26  CYS26      -0.2714
     34  CB         9.1030   -1.3490   31.0360 C.3    26  CYS26       0.0997
     35  SG         9.4440    0.0750   30.0390 S.3    26  CYS26      -0.0797
     36  N          7.7010   -3.9510   32.0510 N.am   27  LYS27      -0.1977
     37  CA         7.5620   -5.1060   32.9250 C.3    27  LYS27       0.1596
     38  C          8.8980   -5.7890   32.9050 C.2    27  LYS27       0.2287
     39  O          9.3680   -6.2020   31.8270 O.2    27  LYS27      -0.2864
     40  CB         6.5250   -6.0520   32.3280 C.3    27  LYS27       0.0298
     41  CG         5.4810   -6.5490   33.3130 C.3    27  LYS27       0.0038
     42  CD         4.2270   -7.0360   32.6040 C.3    27  LYS27       0.0206
     43  CE         4.3450   -8.5060   32.2320 C.3    27  LYS27       0.1093
     44  NZ         3.2000   -8.9170   31.3790 N.3    27  LYS27      -0.1314
     45  N          9.6510   -5.9830   28.5840 N.3    32  SER32      -0.1202
     46  CA         8.8530   -5.3530   27.5360 C.3    32  SER32       0.2020
     47  C          8.1340   -4.0900   28.0240 C.2    32  SER32       0.2619
     48  O          7.6470   -4.0310   29.1540 O.2    32  SER32      -0.2717
     49  CB         7.8640   -6.3490   26.9520 C.3    32  SER32       0.2103
     50  OG         6.8060   -6.5710   27.8580 O.3    32  SER32      -0.2182
     51  N          8.1030   -3.0840   27.1590 N.am   33  CYS33      -0.1955
     52  CA         7.5390   -1.7740   27.4460 C.3    33  CYS33       0.1843
     53  C          6.3730   -1.4710   26.5420 C.2    33  CYS33       0.2625
     54  O          6.3640   -1.8760   25.3770 O.2    33  CYS33      -0.2714
     55  CB         8.5520   -0.6600   27.1950 C.3    33  CYS33       0.0997
     56  SG        10.0010   -0.7580   28.2050 S.3    33  CYS33      -0.0797
     57  N          5.4090   -0.7230   27.0800 N.am   34  ALA34      -0.1977
     58  CA         4.3220   -0.1430   26.2890 C.3    34  ALA34       0.1597
     59  C          4.3190    1.3710   26.4570 C.2    34  ALA34       0.2287
     60  O          4.8170    1.8910   27.4540 O.2    34  ALA34      -0.2864
     61  CB         2.9620   -0.7390   26.6880 C.3    34  ALA34       0.0319
     62  N          7.3100   -3.0390   37.7290 N.3   215  TYR215     -0.1241
     63  CA         6.8590   -2.1450   36.6740 C.3   215  TYR215      0.1605
     64  C          7.6340   -0.8510   36.7870 C.2   215  TYR215      0.2264
     65  O          7.4550   -0.1070   37.7610 O.2   215  TYR215     -0.2867
     66  CB         5.3380   -1.8710   36.8110 C.3   215  TYR215      0.0534
     67  CG         4.5440   -3.1300   36.7840 C.ar  215  TYR215     -0.0201
     68  CD1        4.1400   -3.7000   35.5630 C.ar  215  TYR215     -0.0009
     69  CD2        4.2040   -3.7740   37.9590 C.ar  215  TYR215     -0.0009
     70  CE1        3.4200   -4.8930   35.5310 C.ar  215  TYR215      0.0417
     71  CE2        3.4930   -4.9720   37.9390 C.ar  215  TYR215      0.0417
     72  CZ         3.0960   -5.5110   36.7270 C.ar  215  TYR215      0.1957
     73  OH         2.3900   -6.6950   36.7390 O.3   215  TYR215     -0.2866
     74  N         -4.4550   -1.2420   34.2180 N.3   243  GLU243     -0.1245
     75  CA        -3.6690   -2.4460   34.0140 C.3   243  GLU243      0.1567
     76  C         -3.7020   -3.3770   35.2450 C.2   243  GLU243      0.2260
     77  O         -3.1260   -4.4690   35.2210 O.2   243  GLU243     -0.2867
     78  CB        -2.2260   -2.0770   33.5990 C.3   243  GLU243      0.0388
     79  CG        -2.0970   -1.4530   32.2020 C.3   243  GLU243      0.1160
     80  CD        -2.2980   -2.4590   31.0800 C.2   243  GLU243      0.3649
     81  OE1       -1.7010   -3.5540   31.1400 O.co2 243  GLU243     -0.2457
     82  OE2       -3.0530   -2.1600   30.1300 O.co2 243  GLU243     -0.2457
     83  N         -2.3900   -2.9470   38.1400 N.3   245  ILE245     -0.1245
     84  CA        -1.1250   -2.8660   38.8770 C.3   245  ILE245      0.1561
     85  C         -1.3720   -2.3880   40.3130 C.2   245  ILE245      0.2260
     86  O         -1.2120   -3.1580   41.2550 O.2   245  ILE245     -0.2867
     87  CB        -0.0710   -1.9470   38.1410 C.3   245  ILE245      0.0252
     88  CG1        0.6450   -2.6730   36.9970 C.3   245  ILE245      0.0019
     89  CG2        1.0180   -1.4440   39.0840 C.3   245  ILE245      0.0019
     90  CD1       -0.2250   -3.0950   35.8550 C.3   245  ILE245      0.0001
@<TRIPOS>BOND
     1     6     5    1
     2     5     2    1
     3     5     7    1
     4     2     3    1
     5     2     1    1
     6     3     4    2
     7     8     9    1
     8    54    53    2
     9    10     9    1
    10    10    11    2
    11     9    12    1
    12    58    59    1
    13    58    61    1
    14    58    57    1
    15    12    13    1
    16    59    60    2
    17    53    57   am
    18    53    52    1
    19    49    46    1
    20    49    50    1
    21    13    14   ar
    22    13    15   ar
    23    51    52    1
    24    51    47   am
    25    55    52    1
    26    55    56    1
    27    14    16   ar
    28    46    47    1
    29    46    45    1
    30    15    18   ar
    31    15    17   ar
    32    18    20   ar
    33    16    17   ar
    34    47    48    2
    35    56    35    1
    36    17    19   ar
    37    20    21   ar
    38    19    21   ar
    39    25    24    2
    40    35    34    1
    41    82    80   ar
    42    22    23    1
    43    24    23    1
    44    24    30   am
    45    34    31    1
    46    80    81   ar
    47    80    79    1
    48    23    26    1
    49    31    30    1
    50    31    32    1
    51    44    43    1
    52    26    27    1
    53    39    38    2
    54    36    32   am
    55    36    37    1
    56    79    78    1
    57    43    42    1
    58    40    37    1
    59    40    41    1
    60    32    33    2
    61    42    41    1
    62    27    29    1
    63    27    28    1
    64    38    37    1
    65    78    75    1
    66    75    74    1
    67    75    76    1
    68    77    76    2
    69    70    68   ar
    70    70    72   ar
    71    68    67   ar
    72    90    88    1
    73    63    64    1
    74    63    66    1
    75    63    62    1
    76    72    73    1
    77    72    71   ar
    78    67    66    1
    79    67    69   ar
    80    64    65    2
    81    88    87    1
    82    71    69   ar
    83    83    84    1
    84    87    84    1
    85    87    89    1
    86    84    85    1
    87    85    86    2
