@<TRIPOS>MOLECULE
tmp/2x04B00.pdb
 115 109 0 0 0
SMALL
GASTEIGER

@<TRIPOS>ATOM
      1  N         -0.3310    0.2790   -4.2120 N.3    17  GLN17      -0.1245
      2  CA         0.9030    1.0710   -4.2160 C.3    17  GLN17       0.1566
      3  C          0.7060    2.3340   -3.3840 C.2    17  GLN17       0.2260
      4  O          1.6150    2.7760   -2.6780 O.2    17  GLN17      -0.2867
      5  CB         1.3680    1.4210   -5.6370 C.3    17  GLN17       0.0367
      6  CG         2.7990    1.9950   -5.7040 C.3    17  GLN17       0.0905
      7  CD         2.9100    3.4370   -5.2300 C.2    17  GLN17       0.2608
      8  OE1        1.9390    4.1920   -5.2530 O.2    17  GLN17      -0.2717
      9  NE2        4.1060    3.8270   -4.8090 N.am   17  GLN17      -0.0878
     10  N          1.1700    1.8330    0.3490 N.3    20  LYS20      -0.1231
     11  CA         2.5850    1.7880    0.7180 C.3    20  LYS20       0.1693
     12  C          3.1720    3.1970    0.7390 C.2    20  LYS20       0.2591
     13  O          3.9680    3.5250    1.6060 O.2    20  LYS20      -0.2718
     14  CB         3.3760    0.8910   -0.2400 C.3    20  LYS20       0.0285
     15  CG         2.9730   -0.5970   -0.2030 C.3    20  LYS20       0.0035
     16  CD         3.2900   -1.2550    1.1400 C.3    20  LYS20       0.0206
     17  CE         2.9240   -2.7350    1.1340 C.3    20  LYS20       0.1093
     18  NZ         3.1000   -3.3560    2.4760 N.3    20  LYS20      -0.1314
     19  N          2.7760    4.0360   -0.2110 N.am   21  GLN21      -0.1979
     20  CA         3.2550    5.4140   -0.2290 C.3    21  GLN21       0.1601
     21  C          2.7740    6.1870    0.9910 C.2    21  GLN21       0.2287
     22  O          3.5400    6.9440    1.5870 O.2    21  GLN21      -0.2864
     23  CB         2.7940    6.1310   -1.4960 C.3    21  GLN21       0.0394
     24  CG         3.6160    7.3650   -1.8310 C.3    21  GLN21       0.0908
     25  CD         4.9980    7.0090   -2.3390 C.2    21  GLN21       0.2608
     26  OE1        5.2050    5.9320   -2.8960 O.2    21  GLN21      -0.2717
     27  NE2        5.9530    7.9150   -2.1550 N.am   21  GLN21      -0.0878
     28  N          4.8430    4.9160    3.8610 N.3    24  GLY24      -0.1210
     29  CA         6.2400    5.2920    3.7170 C.3    24  GLY24       0.1956
     30  C          6.4930    6.7550    4.0410 C.2    24  GLY24       0.2611
     31  O          7.4960    7.1010    4.6700 O.2    24  GLY24      -0.2717
     32  N          5.5880    7.6340    3.6170 N.am   25  GLU25      -0.1979
     33  CA         5.7840    9.0630    3.8670 C.3    25  GLU25       0.1602
     34  C          5.8010    9.3800    5.3560 C.2    25  GLU25       0.2287
     35  O          6.4240   10.3510    5.7720 O.2    25  GLU25      -0.2864
     36  CB         4.7020    9.9070    3.1840 C.3    25  GLU25       0.0415
     37  CG         4.6400    9.7420    1.6680 C.3    25  GLU25       0.1163
     38  CD         5.7900   10.4220    0.9330 C.2    25  GLU25       0.3649
     39  OE1        6.6750   11.0090    1.5940 O.co2  25  GLU25      -0.2457
     40  OE2        5.7990   10.3690   -0.3170 O.co2  25  GLU25      -0.2457
     41  N          9.1910    7.1350    7.0560 N.3    28  PHE28      -0.1228
     42  CA        10.5240    7.6100    6.6940 C.3    28  PHE28       0.1721
     43  C         11.0860    8.6900    7.6330 C.2    28  PHE28       0.2437
     44  O         12.1990    8.5380    8.1400 O.2    28  PHE28      -0.2733
     45  CB        10.5750    8.0610    5.2260 C.3    28  PHE28       0.0547
     46  CG        11.9290    8.5440    4.8050 C.ar   28  PHE28      -0.0202
     47  CD1       12.8480    7.6780    4.2350 C.ar   28  PHE28      -0.0042
     48  CD2       12.3010    9.8640    5.0160 C.ar   28  PHE28      -0.0042
     49  CE1       14.1160    8.1280    3.8600 C.ar   28  PHE28      -0.0003
     50  CE2       13.5620   10.3170    4.6440 C.ar   28  PHE28      -0.0003
     51  CZ        14.4670    9.4500    4.0700 C.ar   28  PHE28      -0.0000
     52  N         10.3280    9.7820    7.8710 N.am   29  PRO29      -0.2729
     53  CA        10.9060   10.8450    8.7040 C.3    29  PRO29       0.1401
     54  C         11.2410   10.3780   10.1310 C.2    29  PRO29       0.2269
     55  O         12.2410   10.8260   10.7120 O.2    29  PRO29      -0.2865
     56  CB         9.7990   11.9130    8.7380 C.3    29  PRO29       0.0296
     57  CG         8.9580   11.6300    7.5520 C.3    29  PRO29       0.0237
     58  CD         9.0110   10.1560    7.3270 C.3    29  PRO29       0.0939
     59  N         16.4260    5.2140    4.2030 N.3    40  GLY40      -0.1210
     60  CA        15.7860    4.7660    2.9790 C.3    40  GLY40       0.1956
     61  C         15.7120    3.2530    2.8830 C.2    40  GLY40       0.2611
     62  O         14.6780    2.6970    2.5080 O.2    40  GLY40      -0.2717
     63  N         16.8110    2.5880    3.2270 N.am   41  LYS41      -0.1979
     64  CA        16.8650    1.1320    3.2010 C.3    41  LYS41       0.1596
     65  C         15.9640    0.5120    4.2650 C.2    41  LYS41       0.2287
     66  O         15.2160   -0.4290    3.9870 O.2    41  LYS41      -0.2864
     67  CB        18.2980    0.6470    3.4010 C.3    41  LYS41       0.0298
     68  CG        19.1960    0.8480    2.2000 C.3    41  LYS41       0.0038
     69  CD        20.6350    0.4940    2.5370 C.3    41  LYS41       0.0206
     70  CE        21.5610    0.7980    1.3720 C.3    41  LYS41       0.1093
     71  NZ        22.9940    0.6710    1.7740 N.3    41  LYS41      -0.1314
     72  N         13.3200    1.8430    5.6840 N.3    43  THR43      -0.1203
     73  CA        11.9190    2.0850    5.3380 C.3    43  THR43       0.1994
     74  C         11.4420    1.1120    4.2580 C.2    43  THR43       0.2618
     75  O         10.3560    0.5560    4.3660 O.2    43  THR43      -0.2717
     76  CB        11.6760    3.5540    4.9300 C.3    43  THR43       0.1784
     77  OG1       12.0900    4.4100    6.0010 O.3    43  THR43      -0.2211
     78  CG2       10.1950    3.8110    4.6500 C.3    43  THR43       0.0376
     79  N         12.2590    0.8880    3.2330 N.am   44  GLY44      -0.1942
     80  CA        11.9070   -0.0650    2.1920 C.3    44  GLY44       0.2014
     81  C         11.7530   -1.4800    2.7280 C.2    44  GLY44       0.2638
     82  O         10.8620   -2.2190    2.2910 O.2    44  GLY44      -0.2714
     83  N         12.6160   -1.8740    3.6720 N.am   45  MET45      -0.1976
     84  CA        12.4870   -3.1910    4.2960 C.3    45  MET45       0.1605
     85  C         11.1670   -3.3200    5.0590 C.2    45  MET45       0.2287
     86  O         10.4520   -4.3110    4.9130 O.2    45  MET45      -0.2864
     87  CB        13.6510   -3.4610    5.2430 C.3    45  MET45       0.0413
     88  CG        15.0050   -3.5620    4.5530 C.3    45  MET45       0.0598
     89  SD        16.3350   -3.7400    5.7560 S.3    45  MET45      -0.1393
     90  CE        15.9240   -5.3210    6.4960 C.3    45  MET45       0.0692
     91  N          8.4110   -1.6220    4.6200 N.3    47  LEU47      -0.1231
     92  CA         7.2570   -1.5540    3.7150 C.3    47  LEU47       0.1693
     93  C          6.9290   -2.9070    3.0840 C.2    47  LEU47       0.2591
     94  O          5.8880   -3.0550    2.4550 O.2    47  LEU47      -0.2718
     95  CB         7.4660   -0.5020    2.6140 C.3    47  LEU47       0.0284
     96  CG         7.3570    0.9670    3.0480 C.3    47  LEU47       0.0019
     97  CD1        7.8600    1.9010    1.9450 C.3    47  LEU47       0.0001
     98  CD2        5.9260    1.3160    3.4590 C.3    47  LEU47       0.0001
     99  N          7.8160   -3.8900    3.2490 N.am   48  GLU48      -0.1979
    100  CA         7.5540   -5.2560    2.7640 C.3    48  GLU48       0.1602
    101  C          6.4620   -5.9600    3.5700 C.2    48  GLU48       0.2287
    102  O          5.8350   -6.9080    3.0810 O.2    48  GLU48      -0.2864
    103  CB         8.8220   -6.1170    2.8000 C.3    48  GLU48       0.0415
    104  CG         9.9240   -5.6580    1.8820 C.3    48  GLU48       0.1163
    105  CD         9.5830   -5.8620    0.4190 C.2    48  GLU48       0.3649
    106  OE1        9.4300   -7.0270   -0.0020 O.co2  48  GLU48      -0.2457
    107  OE2        9.4850   -4.8620   -0.3200 O.co2  48  GLU48      -0.2457
    108  N         20.6310   -5.3890    8.3510 N.3    75  LEU75      -0.1245
    109  CA        21.4190   -4.6070    7.3970 C.3    75  LEU75       0.1561
    110  C         22.8870   -4.5470    7.7790 C.2    75  LEU75       0.2260
    111  O         23.7580   -4.6230    6.9210 O.2    75  LEU75      -0.2867
    112  CB        20.8880   -3.1720    7.2900 C.3    75  LEU75       0.0270
    113  CG        19.6320   -2.9460    6.4640 C.3    75  LEU75       0.0019
    114  CD1       19.0930   -1.5610    6.7550 C.3    75  LEU75       0.0001
    115  CD2       19.9450   -3.1180    4.9900 C.3    75  LEU75       0.0001
@<TRIPOS>BOND
     1     6     5    1
     2     6     7    1
     3     5     2    1
     4     8     7    2
     5     7     9   am
     6     2     1    1
     7     2     3    1
     8     3     4    2
     9    26    25    2
    10    25    27   am
    11    25    24    1
    12    24    23    1
    13    23    20    1
    14   107   105   ar
    15    40    38   ar
    16    14    15    1
    17    14    11    1
    18    20    19    1
    19    20    21    1
    20    19    12   am
    21    15    16    1
    22   106   105   ar
    23    10    11    1
    24   105   104    1
    25    11    12    1
    26    12    13    2
    27    38    39   ar
    28    38    37    1
    29    21    22    2
    30    17    16    1
    31    17    18    1
    32    70    71    1
    33    70    69    1
    34    37    36    1
    35   104   103    1
    36    97    96    1
    37    80    81    1
    38    80    79    1
    39    68    69    1
    40    68    67    1
    41    82    81    2
    42    94    93    2
    43    62    61    2
    44    95    96    1
    45    95    92    1
    46    81    83   am
    47   100   103    1
    48   100    99    1
    49   100   101    1
    50    61    60    1
    51    61    63   am
    52    60    59    1
    53    96    98    1
    54   102   101    2
    55    93    99   am
    56    93    92    1
    57    36    33    1
    58    64    63    1
    59    64    67    1
    60    64    65    1
    61    79    74   am
    62    32    33    1
    63    32    30   am
    64    83    84    1
    65    92    91    1
    66    29    28    1
    67    29    30    1
    68    49    51   ar
    69    49    47   ar
    70    33    34    1
    71    66    65    2
    72    30    31    2
    73    51    50   ar
    74    47    46   ar
    75    74    75    2
    76    74    73    1
    77    84    85    1
    78    84    87    1
    79    88    87    1
    80    88    89    1
    81    50    48   ar
    82    78    76    1
    83    46    48   ar
    84    46    45    1
    85    86    85    2
    86    76    73    1
    87    76    77    1
    88   115   113    1
    89    45    42    1
    90    73    72    1
    91    34    35    2
    92    89    90    1
    93   113   114    1
    94   113   112    1
    95    42    41    1
    96    42    43    1
    97   111   110    2
    98   112   109    1
    99    58    57    1
   100    58    52    1
   101   109   110    1
   102   109   108    1
   103    57    56    1
   104    43    52   am
   105    43    44    2
   106    52    53    1
   107    53    56    1
   108    53    54    1
   109    54    55    2
