@<TRIPOS>MOLECULE
tmp/2x05A00.pdb
 147 147 0 0 0
SMALL
GASTEIGER

@<TRIPOS>ATOM
      1  N         50.3820   46.4930   78.4420 N.3   155  ILE155     -0.1231
      2  CA        50.9830   46.0370   77.1870 C.3   155  ILE155      0.1692
      3  C         51.1710   47.2420   76.2630 C.2   155  ILE155      0.2592
      4  O         51.9060   48.1690   76.6150 O.2   155  ILE155     -0.2718
      5  CB        50.1470   44.8750   76.5870 C.3   155  ILE155      0.0266
      6  CG1       49.9090   43.8200   77.6920 C.3   155  ILE155      0.0019
      7  CG2       50.8280   44.2530   75.3330 C.3   155  ILE155      0.0020
      8  CD1       48.8430   42.8140   77.3920 C.3   155  ILE155      0.0001
      9  N         50.4930   47.2670   75.1220 N.am  156  ASP156     -0.1960
     10  CA        50.5150   48.4550   74.2660 C.3   156  ASP156      0.1840
     11  C         49.1080   48.9320   73.9090 C.2   156  ASP156      0.2622
     12  O         48.8950   49.5660   72.8650 O.2   156  ASP156     -0.2715
     13  CB        51.3390   48.2030   72.9960 C.3   156  ASP156      0.1450
     14  CG        50.8400   47.0040   72.1790 C.2   156  ASP156      0.3671
     15  OD1       49.7720   46.4470   72.5040 O.co2 156  ASP156     -0.2456
     16  OD2       51.5360   46.6150   71.2060 O.co2 156  ASP156     -0.2456
     17  N         48.1470   48.6180   74.7720 N.am  157  TRP157     -0.1974
     18  CA        46.7540   48.8920   74.4760 C.3   157  TRP157      0.1640
     19  C         46.4120   50.3710   74.6270 C.2   157  TRP157      0.2290
     20  O         45.6080   50.9110   73.8500 O.2   157  TRP157     -0.2864
     21  CB        45.8210   48.0580   75.3630 C.3   157  TRP157      0.0576
     22  CG        46.0010   46.5670   75.2880 C.ar  157  TRP157      0.0006
     23  CD1       46.7710   45.8500   74.3910 C.ar  157  TRP157      0.0946
     24  CD2       45.3490   45.5940   76.1120 C.ar  157  TRP157      0.0152
     25  NE1       46.6590   44.5080   74.6430 N.ar  157  TRP157     -0.2442
     26  CE2       45.7870   44.3210   75.6880 C.ar  157  TRP157      0.0810
     27  CE3       44.4550   45.6760   77.1740 C.ar  157  TRP157      0.0012
     28  CZ2       45.3550   43.1410   76.2980 C.ar  157  TRP157      0.0191
     29  CZ3       44.0290   44.4970   77.7720 C.ar  157  TRP157      0.0001
     30  CH2       44.4760   43.2550   77.3300 C.ar  157  TRP157      0.0015
     31  N         42.7370   38.7170   77.8940 N.3   347  GLU347     -0.1245
     32  CA        44.1780   38.5870   78.0220 C.3   347  GLU347      0.1567
     33  C         44.5630   39.2320   79.3470 C.2   347  GLU347      0.2260
     34  O         44.7790   40.4450   79.4240 O.2   347  GLU347     -0.2867
     35  CB        44.9520   39.1780   76.8360 C.3   347  GLU347      0.0388
     36  CG        46.4440   38.8070   76.8890 C.3   347  GLU347      0.1160
     37  CD        47.2750   39.3240   75.7100 C.2   347  GLU347      0.3649
     38  OE1       46.8030   40.1600   74.9380 O.co2 347  GLU347     -0.2457
     39  OE2       48.4170   38.8700   75.5450 O.co2 347  GLU347     -0.2457
     40  N         50.5270   38.5590   77.8840 N.3   372  CYS372     -0.1221
     41  CA        51.8820   38.5790   77.3450 C.3   372  CYS372      0.1808
     42  C         52.6420   39.7830   77.8490 C.2   372  CYS372      0.2601
     43  O         52.0720   40.6580   78.5230 O.2   372  CYS372     -0.2717
     44  CB        51.8400   38.7230   75.8200 C.3   372  CYS372      0.0970
     45  SG        51.5290   40.4390   75.2900 S.3   372  CYS372     -0.0800
     46  N         53.9250   39.8410   77.4810 N.am  373  CYS373     -0.1970
     47  CA        54.6500   41.1030   77.4160 C.3   373  CYS373      0.1712
     48  C         54.9730   41.7440   78.7540 C.2   373  CYS373      0.2296
     49  O         55.2610   42.9440   78.8110 O.2   373  CYS373     -0.2864
     50  CB        53.8400   42.0790   76.5710 C.3   373  CYS373      0.0983
     51  SG        53.3740   41.3080   75.0210 S.3   373  CYS373     -0.0798
     52  N         50.2640   33.4670   76.3960 N.3   421  SER421     -0.1202
     53  CA        49.6540   34.2960   75.3750 C.3   421  SER421      0.2020
     54  C         50.5160   34.2700   74.1200 C.2   421  SER421      0.2618
     55  O         50.2530   33.4810   73.2220 O.2   421  SER421     -0.2717
     56  CB        49.4940   35.7260   75.8800 C.3   421  SER421      0.2103
     57  OG        48.4860   36.4040   75.1600 O.3   421  SER421     -0.2182
     58  N         51.5400   35.1270   74.0690 N.am  422  ASP422     -0.1973
     59  CA        52.5250   35.1020   72.9900 C.3   422  ASP422      0.1709
     60  C         53.4620   33.9060   73.2100 C.2   422  ASP422      0.2293
     61  O         53.7340   33.1530   72.2930 O.2   422  ASP422     -0.2864
     62  CB        53.3780   36.3900   72.9320 C.3   422  ASP422      0.1436
     63  CG        52.5670   37.6510   72.6920 C.2   422  ASP422      0.3671
     64  OD1       51.3210   37.5990   72.7370 O.co2 422  ASP422     -0.2456
     65  OD2       53.1920   38.7210   72.4760 O.co2 422  ASP422     -0.2456
     66  N         49.0140   33.8860   66.0570 N.3   465  MET465     -0.1245
     67  CA        49.1020   35.3040   66.2960 C.3   465  MET465      0.1570
     68  C         49.9990   35.8860   65.1930 C.2   465  MET465      0.2261
     69  O         51.1360   36.2750   65.4530 O.2   465  MET465     -0.2867
     70  CB        49.7160   35.5180   67.6830 C.3   465  MET465      0.0387
     71  CG        49.6390   36.9280   68.2180 C.3   465  MET465      0.0595
     72  SD        50.4140   37.0000   69.8480 S.3   465  MET465     -0.1393
     73  CE        49.3450   35.8860   70.7630 C.3   465  MET465      0.0692
     74  N         47.5810   44.0500   62.9430 N.3   469  TYR469     -0.1241
     75  CA        47.1230   44.8390   64.0750 C.3   469  TYR469      0.1605
     76  C         47.0010   46.2810   63.6120 C.2   469  TYR469      0.2264
     77  O         46.7140   47.1880   64.4160 O.2   469  TYR469     -0.2867
     78  CB        48.1250   44.7650   65.2130 C.3   469  TYR469      0.0534
     79  CG        48.1820   43.4380   65.9420 C.ar  469  TYR469     -0.0201
     80  CD1       47.3650   43.1850   67.0560 C.ar  469  TYR469     -0.0009
     81  CD2       49.0900   42.4530   65.5500 C.ar  469  TYR469     -0.0009
     82  CE1       47.4310   41.9780   67.7400 C.ar  469  TYR469      0.0417
     83  CE2       49.1660   41.2440   66.2170 C.ar  469  TYR469      0.0417
     84  CZ        48.3350   41.0070   67.3030 C.ar  469  TYR469      0.1957
     85  OH        48.4430   39.8050   67.9480 O.3   469  TYR469     -0.2866
     86  N         43.8790   37.0490   68.1020 N.3   494  GLU494     -0.1245
     87  CA        43.9050   38.4890   68.3750 C.3   494  GLU494      0.1567
     88  C         44.3560   39.3070   67.1770 C.2   494  GLU494      0.2260
     89  O         45.5430   39.4440   66.9280 O.2   494  GLU494     -0.2867
     90  CB        44.7590   38.8360   69.6050 C.3   494  GLU494      0.0388
     91  CG        46.0480   38.0760   69.7260 C.3   494  GLU494      0.1160
     92  CD        47.0180   38.7440   70.6500 C.2   494  GLU494      0.3649
     93  OE1       47.7850   39.6130   70.1710 O.co2 494  GLU494     -0.2457
     94  OE2       47.0220   38.4140   71.8590 O.co2 494  GLU494     -0.2457
     95  N         52.5630   51.6440   67.3290 N.3   536  PHE536     -0.1241
     96  CA        51.1600   52.0370   67.2030 C.3   536  PHE536      0.1605
     97  C         50.9360   53.4190   67.7880 C.2   536  PHE536      0.2264
     98  O         49.9280   53.6770   68.4420 O.2   536  PHE536     -0.2867
     99  CB        50.2590   50.9900   67.8710 C.3   536  PHE536      0.0534
    100  CG        50.5160   49.5770   67.3950 C.ar  536  PHE536     -0.0203
    101  CD1       50.3270   49.2340   66.0570 C.ar  536  PHE536     -0.0042
    102  CD2       50.9400   48.5940   68.2870 C.ar  536  PHE536     -0.0042
    103  CE1       50.5570   47.9340   65.6120 C.ar  536  PHE536     -0.0003
    104  CE2       51.1890   47.2890   67.8500 C.ar  536  PHE536     -0.0003
    105  CZ        50.9800   46.9580   66.5010 C.ar  536  PHE536     -0.0000
    106  N         40.6330   42.5050   67.6660 N.3   595  TRP595     -0.1241
    107  CA        41.4850   43.2350   68.5870 C.3   595  TRP595      0.1605
    108  C         41.2150   44.7450   68.4910 C.2   595  TRP595      0.2264
    109  O         41.6970   45.4220   67.5750 O.2   595  TRP595     -0.2867
    110  CB        42.9500   42.9130   68.3040 C.3   595  TRP595      0.0550
    111  CG        43.8480   42.9680   69.5050 C.ar  595  TRP595      0.0003
    112  CD1       44.9150   43.7850   69.6800 C.ar  595  TRP595      0.0946
    113  CD2       43.7620   42.1590   70.6870 C.ar  595  TRP595      0.0152
    114  NE1       45.5060   43.5500   70.8950 N.ar  595  TRP595     -0.2442
    115  CE2       44.8100   42.5590   71.5400 C.ar  595  TRP595      0.0810
    116  CE3       42.8750   41.1620   71.1260 C.ar  595  TRP595      0.0012
    117  CZ2       45.0260   41.9690   72.8010 C.ar  595  TRP595      0.0191
    118  CZ3       43.0880   40.5760   72.3820 C.ar  595  TRP595      0.0001
    119  CH2       44.1650   40.9890   73.1980 C.ar  595  TRP595      0.0015
    120  N         41.6760   49.6750   67.9820 N.3   606  TRP606     -0.1241
    121  CA        41.4310   48.4080   68.6360 C.3   606  TRP606      0.1605
    122  C         40.1750   48.4550   69.5340 C.2   606  TRP606      0.2264
    123  O         40.2560   48.2490   70.7590 O.2   606  TRP606     -0.2867
    124  CB        42.6620   48.0040   69.4760 C.3   606  TRP606      0.0550
    125  CG        43.9530   47.8220   68.7170 C.ar  606  TRP606      0.0003
    126  CD1       44.1200   47.7830   67.3570 C.ar  606  TRP606      0.0946
    127  CD2       45.2460   47.5940   69.2900 C.ar  606  TRP606      0.0152
    128  NE1       45.4410   47.5790   67.0530 N.ar  606  TRP606     -0.2442
    129  CE2       46.1540   47.4580   68.2220 C.ar  606  TRP606      0.0810
    130  CE3       45.7260   47.4950   70.6140 C.ar  606  TRP606      0.0012
    131  CZ2       47.5240   47.2340   68.4280 C.ar  606  TRP606      0.0191
    132  CZ3       47.0840   47.2750   70.8260 C.ar  606  TRP606      0.0001
    133  CH2       47.9700   47.1440   69.7370 C.ar  606  TRP606      0.0015
    134  N         55.2410   42.0060   61.0750 N.3   734  TRP734     -0.1241
    135  CA        54.4250   41.2130   61.9980 C.3   734  TRP734      0.1605
    136  C         53.0570   41.8550   62.2320 C.2   734  TRP734      0.2264
    137  O         52.1010   41.1570   62.5900 O.2   734  TRP734     -0.2867
    138  CB        55.1390   41.0220   63.3420 C.3   734  TRP734      0.0550
    139  CG        55.6670   42.3140   63.8860 C.ar  734  TRP734      0.0003
    140  CD1       56.8350   42.9350   63.5300 C.ar  734  TRP734      0.0946
    141  CD2       55.0410   43.1670   64.8620 C.ar  734  TRP734      0.0152
    142  NE1       56.9790   44.1120   64.2310 N.ar  734  TRP734     -0.2442
    143  CE2       55.8940   44.2780   65.0550 C.ar  734  TRP734      0.0810
    144  CE3       53.8510   43.0940   65.6000 C.ar  734  TRP734      0.0012
    145  CZ2       55.5940   45.3060   65.9530 C.ar  734  TRP734      0.0191
    146  CZ3       53.5560   44.1180   66.4910 C.ar  734  TRP734      0.0001
    147  CH2       54.4250   45.2050   66.6630 C.ar  734  TRP734      0.0015
@<TRIPOS>BOND
     1   134   135    1
     2   135   136    1
     3   135   138    1
     4   136   137    2
     5    74    75    1
     6   138   139    1
     7   140   139   ar
     8   140   142   ar
     9    76    75    1
    10    76    77    2
    11   139   141   ar
    12    75    78    1
    13   142   143   ar
    14   141   143   ar
    15   141   144   ar
    16   143   145   ar
    17    68    69    2
    18    68    67    1
    19    78    79    1
    20    81    79   ar
    21    81    83   ar
    22   144   146   ar
    23   103   101   ar
    24   103   105   ar
    25    79    80   ar
    26   145   147   ar
    27   101   100   ar
    28    66    67    1
    29    83    84   ar
    30    67    70    1
    31   146   147   ar
    32   105   104   ar
    33    89    88    2
    34   128   126   ar
    35   128   129   ar
    36    80    82   ar
    37    88    87    1
    38    96    95    1
    39    96    97    1
    40    96    99    1
    41    84    82   ar
    42    84    85    1
    43   126   125   ar
    44   100    99    1
    45   100   102   ar
    46   109   108    2
    47   106   107    1
    48    70    71    1
    49    97    98    2
    50   104   102   ar
    51   120   121    1
    52    86    87    1
    53    71    72    1
    54   129   131   ar
    55   129   127   ar
    56   110   107    1
    57   110   111    1
    58    87    90    1
    59   131   133   ar
    60   108   107    1
    61   121   124    1
    62   121   122    1
    63   125   127   ar
    64   125   124    1
    65   127   130   ar
    66   111   112   ar
    67   111   113   ar
    68   122   123    2
    69    90    91    1
    70   112   114   ar
    71    91    92    1
    72   133   132   ar
    73    72    73    1
    74    93    92   ar
    75   130   132   ar
    76    92    94   ar
    77   113   116   ar
    78   113   115   ar
    79   114   115   ar
    80   116   118   ar
    81    16    14   ar
    82   115   117   ar
    83    14    15   ar
    84    14    13    1
    85    61    60    2
    86   118   119   ar
    87    65    63   ar
    88    63    64   ar
    89    63    62    1
    90   117   119   ar
    91    12    11    2
    92    62    59    1
    93    59    60    1
    94    59    58    1
    95    13    10    1
    96    55    54    2
    97    20    19    2
    98    11    10    1
    99    11    17   am
   100    58    54   am
   101    54    53    1
   102    10     9    1
   103    23    25   ar
   104    23    22   ar
   105    18    19    1
   106    18    17    1
   107    18    21    1
   108    25    26   ar
   109    38    37   ar
   110    51    45    1
   111    51    50    1
   112     9     3   am
   113    57    56    1
   114    22    21    1
   115    22    24   ar
   116    45    44    1
   117     7     5    1
   118    53    56    1
   119    53    52    1
   120    39    37   ar
   121    26    24   ar
   122    26    28   ar
   123    37    36    1
   124    44    41    1
   125    24    27   ar
   126     3     4    2
   127     3     2    1
   128    28    30   ar
   129    50    47    1
   130     5     2    1
   131     5     6    1
   132    35    36    1
   133    35    32    1
   134    27    29   ar
   135     2     1    1
   136    30    29   ar
   137    41    42    1
   138    41    40    1
   139     8     6    1
   140    47    46    1
   141    47    48    1
   142    46    42   am
   143    42    43    2
   144    31    32    1
   145    32    33    1
   146    48    49    2
   147    33    34    2
