@<TRIPOS>MOLECULE
tmp/2x06C00.pdb
 223 216 0 0 0
SMALL
GASTEIGER

@<TRIPOS>ATOM
      1  N         12.0810  202.7120   54.7610 N.3    40  PHE40      -0.1241
      2  CA        12.1300  201.7470   55.8450 C.3    40  PHE40       0.1605
      3  C         13.5910  201.3490   56.0340 C.2    40  PHE40       0.2264
      4  O         13.9720  200.1800   55.8660 O.2    40  PHE40      -0.2867
      5  CB        11.2650  200.5260   55.5550 C.3    40  PHE40       0.0534
      6  CG         9.8250  200.8470   55.3050 C.ar   40  PHE40      -0.0203
      7  CD1        9.1900  200.4010   54.1500 C.ar   40  PHE40      -0.0042
      8  CD2        9.0990  201.6010   56.2210 C.ar   40  PHE40      -0.0042
      9  CE1        7.8450  200.6880   53.9120 C.ar   40  PHE40      -0.0003
     10  CE2        7.7590  201.9030   55.9890 C.ar   40  PHE40      -0.0003
     11  CZ         7.1300  201.4380   54.8290 C.ar   40  PHE40      -0.0000
     12  N         15.2380  198.1120   57.2180 N.3    43  HIS43      -0.1241
     13  CA        15.0480  196.8660   56.4720 C.3    43  HIS43       0.1621
     14  C         15.8010  196.9370   55.1640 C.2    43  HIS43       0.2264
     15  O         15.8150  195.9820   54.3870 O.2    43  HIS43      -0.2867
     16  CB        13.5670  196.5930   56.2370 C.3    43  HIS43       0.0745
     17  CG        12.8270  196.3060   57.5020 C.ar   43  HIS43       0.0817
     18  ND1       12.6940  195.0340   58.0130 N.ar   43  HIS43      -0.2268
     19  CD2       12.2400  197.1340   58.3960 C.ar   43  HIS43       0.1154
     20  CE1       12.0320  195.0870   59.1530 C.ar   43  HIS43       0.1986
     21  NE2       11.7440  196.3500   59.4080 N.ar   43  HIS43      -0.2212
     22  N         20.7850  196.6900   57.0450 N.3    47  ARG47      -0.1245
     23  CA        20.4920  195.3780   57.5830 C.3    47  ARG47       0.1563
     24  C         21.3750  194.3350   56.9130 C.2    47  ARG47       0.2260
     25  O         21.4160  193.1770   57.3280 O.2    47  ARG47      -0.2867
     26  CB        19.0260  195.0640   57.2970 C.3    47  ARG47       0.0307
     27  CG        18.5370  193.7620   57.8400 C.3    47  ARG47       0.0489
     28  CD        17.4890  194.0270   58.8700 C.3    47  ARG47       0.2205
     29  NE        17.0260  192.7960   59.4810 N.pl3  47  ARG47      -0.0865
     30  CZ        16.0460  192.7490   60.3720 C.cat  47  ARG47       0.5346
     31  NH1       15.4400  193.8700   60.7440 N.pl3  47  ARG47       0.1354
     32  NH2       15.6780  191.5880   60.8890 N.pl3  47  ARG47       0.1354
     33  N         14.2320  186.1310   57.2470 N.3   114  HIS114     -0.1226
     34  CA        13.6650  187.4710   57.1880 C.3   114  HIS114      0.1752
     35  C         13.5500  187.9150   55.7430 C.2   114  HIS114      0.2596
     36  O         14.5230  187.8470   54.9940 O.2   114  HIS114     -0.2718
     37  CB        14.5680  188.4290   57.9720 C.3   114  HIS114      0.0759
     38  CG        14.2700  189.8810   57.7580 C.ar  114  HIS114      0.0818
     39  ND1       14.9920  190.6690   56.8850 N.ar  114  HIS114     -0.2268
     40  CD2       13.3520  190.6980   58.3270 C.ar  114  HIS114      0.1154
     41  CE1       14.5230  191.9040   56.9150 C.ar  114  HIS114      0.1986
     42  NE2       13.5290  191.9480   57.7820 N.ar  114  HIS114     -0.2212
     43  N         12.3660  188.3820   55.3560 N.am  115  PHE115     -0.1962
     44  CA        12.0990  188.7170   53.9540 C.3   115  PHE115      0.1771
     45  C         12.0350  190.2090   53.6450 C.2   115  PHE115      0.2620
     46  O         11.5450  190.6010   52.5920 O.2   115  PHE115     -0.2715
     47  CB        10.8360  187.9940   53.4230 C.3   115  PHE115      0.0574
     48  CG         9.5290  188.4760   54.0170 C.ar  115  PHE115     -0.0200
     49  CD1        9.4650  189.6070   54.8170 C.ar  115  PHE115     -0.0042
     50  CD2        8.3550  187.7980   53.7480 C.ar  115  PHE115     -0.0042
     51  CE1        8.2480  190.0440   55.3550 C.ar  115  PHE115     -0.0003
     52  CE2        7.1360  188.2270   54.2840 C.ar  115  PHE115     -0.0003
     53  CZ         7.0890  189.3510   55.0920 C.ar  115  PHE115     -0.0000
     54  N         12.5410  191.0440   54.5440 N.am  116  GLY116     -0.1940
     55  CA        12.5210  192.4760   54.3010 C.3   116  GLY116      0.2014
     56  C         11.1790  193.1100   54.6370 C.2   116  GLY116      0.2639
     57  O         10.5430  192.7430   55.6210 O.2   116  GLY116     -0.2714
     58  N         10.7480  194.0750   53.8340 N.am  117  ILE117     -0.1963
     59  CA         9.4720  194.7320   54.0760 C.3   117  ILE117      0.1727
     60  C          8.3170  193.8960   53.5200 C.2   117  ILE117      0.2616
     61  O          8.4300  193.2950   52.4540 O.2   117  ILE117     -0.2715
     62  CB         9.4460  196.1450   53.4800 C.3   117  ILE117      0.0290
     63  CG1        9.7350  196.0930   51.9870 C.3   117  ILE117      0.0022
     64  CG2       10.4840  197.0000   54.1400 C.3   117  ILE117      0.0023
     65  CD1        9.4830  197.3890   51.2860 C.3   117  ILE117      0.0001
     66  N          7.2110  193.8460   54.2550 N.am  118  ALA118     -0.1977
     67  CA         6.0850  193.0000   53.8680 C.3   118  ALA118      0.1597
     68  C          5.3640  193.5250   52.6250 C.2   118  ALA118      0.2287
     69  O          4.8360  192.7500   51.8170 O.2   118  ALA118     -0.2864
     70  CB         5.1170  192.8490   55.0240 C.3   118  ALA118      0.0319
     71  N          3.6020  188.0760   58.9370 N.3   134  THR134     -0.1203
     72  CA         4.8000  187.3750   59.3430 C.3   134  THR134      0.1994
     73  C          5.0730  187.4990   60.8300 C.2   134  THR134      0.2618
     74  O          4.6120  188.4180   61.4900 O.2   134  THR134     -0.2717
     75  CB         6.0430  187.8480   58.5290 C.3   134  THR134      0.1784
     76  OG1        7.0360  186.8120   58.4910 O.3   134  THR134     -0.2211
     77  CG2        6.6440  189.0930   59.1300 C.3   134  THR134      0.0376
     78  N          5.8250  186.5200   61.3170 N.am  135  ASN135     -0.1960
     79  CA         6.3690  186.4250   62.6550 C.3   135  ASN135      0.1819
     80  C          7.7470  187.0530   62.7510 C.2   135  ASN135      0.2621
     81  O          8.4710  187.1390   61.7540 O.2   135  ASN135     -0.2715
     82  CB         6.6060  184.9500   62.9420 C.3   135  ASN135      0.1195
     83  CG         5.5350  184.3620   63.7220 C.2   135  ASN135      0.2630
     84  OD1        5.5460  183.1740   64.0200 O.2   135  ASN135     -0.2716
     85  ND2        4.5810  185.1920   64.0960 N.am  135  ASN135     -0.0877
     86  N          8.1300  187.4280   63.9670 N.am  136  THR136     -0.1951
     87  CA         9.4900  187.8650   64.2700 C.3   136  THR136      0.1897
     88  C          9.8190  187.4240   65.6910 C.2   136  THR136      0.2313
     89  O          8.9380  186.9630   66.4100 O.2   136  THR136     -0.2863
     90  CB         9.6470  189.4080   64.1740 C.3   136  THR136      0.1794
     91  OG1        8.9820  190.0350   65.2780 O.3   136  THR136     -0.2208
     92  CG2        9.0650  189.9410   62.8710 C.3   136  THR136      0.0378
     93  N          7.0310  191.7510   66.3820 N.3   151  THR151     -0.1218
     94  CA         6.5410  193.0390   65.8920 C.3   151  THR151      0.1862
     95  C          5.4910  192.8460   64.7940 C.2   151  THR151      0.2287
     96  O          4.9380  193.8160   64.2800 O.2   151  THR151     -0.2866
     97  CB         7.6860  193.8590   65.3000 C.3   151  THR151      0.1770
     98  OG1        8.3100  193.1020   64.2460 O.3   151  THR151     -0.2211
     99  CG2        8.7100  194.1690   66.3700 C.3   151  THR151      0.0375
    100  N          4.1430  192.2640   61.3980 N.3   153  PRO153     -0.2116
    101  CA         3.6480  193.2010   60.4010 C.3   153  PRO153      0.1372
    102  C          2.5190  192.6180   59.5750 C.2   153  PRO153      0.2244
    103  O          2.4120  191.4050   59.4100 O.2   153  PRO153     -0.2868
    104  CB         4.8570  193.3870   59.5150 C.3   153  PRO153      0.0268
    105  CG         5.4800  192.0630   59.5290 C.3   153  PRO153      0.0207
    106  CD         5.3170  191.5330   60.9130 C.3   153  PRO153      0.0892
    107  N         -1.4340  200.7950   49.5770 N.3   166  SER166     -0.1202
    108  CA        -0.4200  199.9180   50.1090 C.3   166  SER166      0.2020
    109  C         -0.1710  200.1630   51.5890 C.2   166  SER166      0.2619
    110  O          0.6340  201.0010   51.9710 O.2   166  SER166     -0.2717
    111  CB         0.8700  200.0380   49.3210 C.3   166  SER166      0.2103
    112  OG         1.7590  199.0200   49.7280 O.3   166  SER166     -0.2182
    113  N         -0.8800  199.4150   52.4170 N.am  167  LEU167     -0.1965
    114  CA        -0.6460  199.4410   53.8430 C.3   167  LEU167      0.1728
    115  C          0.4820  198.4470   54.1800 C.2   167  LEU167      0.2616
    116  O          0.4720  197.2830   53.7610 O.2   167  LEU167     -0.2715
    117  CB        -1.9370  199.1120   54.5910 C.3   167  LEU167      0.0311
    118  CG        -1.8700  198.9410   56.1160 C.3   167  LEU167      0.0022
    119  CD1       -1.1380  200.1190   56.7610 C.3   167  LEU167      0.0001
    120  CD2       -3.2660  198.7230   56.7610 C.3   167  LEU167      0.0001
    121  N          1.4570  198.9250   54.9340 N.am  168  ASP168     -0.1971
    122  CA         2.5800  198.1100   55.3320 C.3   168  ASP168      0.1709
    123  C          2.9770  198.5590   56.7300 C.2   168  ASP168      0.2293
    124  O          3.6370  199.5730   56.8960 O.2   168  ASP168     -0.2864
    125  CB         3.7480  198.2750   54.3390 C.3   168  ASP168      0.1436
    126  CG         4.8290  197.2040   54.5160 C.2   168  ASP168      0.3671
    127  OD1        4.6290  196.3060   55.3730 O.co2 168  ASP168     -0.2456
    128  OD2        5.8700  197.2600   53.8000 O.co2 168  ASP168     -0.2456
    129  N          3.9290  197.4710   61.0280 N.3   169  ALA169     -0.1245
    130  CA         4.1540  196.6290   62.1890 C.3   169  ALA169      0.1562
    131  C          3.0010  196.8450   63.1710 C.2   169  ALA169      0.2260
    132  O          2.4280  197.9390   63.2300 O.2   169  ALA169     -0.2867
    133  CB         5.4780  196.9930   62.8400 C.3   169  ALA169      0.0290
    134  N          3.5050  196.8180   66.2110 N.3   171  ALA171     -0.1245
    135  CA         4.1900  197.3820   67.3690 C.3   171  ALA171      0.1562
    136  C          3.9570  198.8930   67.4780 C.2   171  ALA171      0.2260
    137  O          4.0010  199.6110   66.4800 O.2   171  ALA171     -0.2867
    138  CB         5.6720  197.0900   67.2730 C.3   171  ALA171      0.0290
    139  N          9.2690  201.3270   67.1240 N.3   174  ALA174     -0.1245
    140  CA        10.4530  200.5090   66.8790 C.3   174  ALA174      0.1562
    141  C         11.5480  200.8980   67.8680 C.2   174  ALA174      0.2260
    142  O         11.6810  202.0720   68.2050 O.2   174  ALA174     -0.2867
    143  CB        10.9270  200.6760   65.4470 C.3   174  ALA174      0.0290
    144  N         15.3720  186.1310   63.4840 N.3   244  THR244     -0.1218
    145  CA        14.8750  187.0920   62.5070 C.3   244  THR244      0.1862
    146  C         15.6590  188.3920   62.5600 C.2   244  THR244      0.2287
    147  O         15.7440  189.1170   61.5690 O.2   244  THR244     -0.2866
    148  CB        13.3660  187.3400   62.6360 C.3   244  THR244      0.1770
    149  OG1       13.0860  188.1430   63.7970 O.3   244  THR244     -0.2211
    150  CG2       12.6590  186.0180   62.7170 C.3   244  THR244      0.0375
    151  N         -3.5090  218.6100   59.1700 N.3   290  PHE290     -0.1227
    152  CA        -3.0840  217.4020   58.4830 C.3   290  PHE290      0.1736
    153  C         -3.4860  217.5310   57.0240 C.2   290  PHE290      0.2595
    154  O         -4.3220  218.3660   56.6650 O.2   290  PHE290     -0.2718
    155  CB        -3.7770  216.1550   59.0390 C.3   290  PHE290      0.0547
    156  CG        -3.7900  216.0640   60.5350 C.ar  290  PHE290     -0.0202
    157  CD1       -2.9970  215.1390   61.1920 C.ar  290  PHE290     -0.0042
    158  CD2       -4.6200  216.8780   61.2850 C.ar  290  PHE290     -0.0042
    159  CE1       -3.0190  215.0410   62.5690 C.ar  290  PHE290     -0.0003
    160  CE2       -4.6460  216.7840   62.6580 C.ar  290  PHE290     -0.0003
    161  CZ        -3.8460  215.8640   63.3010 C.ar  290  PHE290     -0.0000
    162  N         -2.8840  216.7020   56.1850 N.am  291  GLU291     -0.1979
    163  CA        -3.4180  216.4400   54.8640 C.3   291  GLU291      0.1602
    164  C         -3.8830  215.0020   54.9270 C.2   291  GLU291      0.2287
    165  O         -3.2210  214.1710   55.5440 O.2   291  GLU291     -0.2864
    166  CB        -2.3360  216.6060   53.8050 C.3   291  GLU291      0.0415
    167  CG        -0.9590  216.1490   54.2760 C.3   291  GLU291      0.1163
    168  CD         0.0170  215.9170   53.1330 C.2   291  GLU291      0.3649
    169  OE1        1.2160  215.7270   53.4220 O.co2 291  GLU291     -0.2457
    170  OE2       -0.4110  215.9180   51.9540 O.co2 291  GLU291     -0.2457
    171  N         -4.1630  211.3200   53.8850 N.3   293  LEU293     -0.1231
    172  CA        -3.3070  210.4590   53.0820 C.3   293  LEU293      0.1693
    173  C         -3.8720  209.0490   52.9160 C.2   293  LEU293      0.2592
    174  O         -4.5110  208.5120   53.8200 O.2   293  LEU293     -0.2718
    175  CB        -1.9140  210.3800   53.7100 C.3   293  LEU293      0.0284
    176  CG        -1.1680  211.6950   53.9600 C.3   293  LEU293      0.0019
    177  CD1        0.0410  211.4650   54.8510 C.3   293  LEU293      0.0001
    178  CD2       -0.7460  212.3190   52.6480 C.3   293  LEU293      0.0001
    179  N         -3.6290  208.4410   51.7610 N.am  294  ILE294     -0.1966
    180  CA        -3.8920  207.0140   51.6180 C.3   294  ILE294      0.1712
    181  C         -2.6650  206.2520   52.1140 C.2   294  ILE294      0.2458
    182  O         -1.5590  206.6300   51.7980 O.2   294  ILE294     -0.2730
    183  CB        -4.1260  206.6240   50.1530 C.3   294  ILE294      0.0289
    184  CG1       -5.2220  207.4820   49.5400 C.3   294  ILE294      0.0022
    185  CG2       -4.4730  205.1500   50.0460 C.3   294  ILE294      0.0023
    186  CD1       -6.4660  207.5000   50.3590 C.3   294  ILE294      0.0001
    187  N         -2.8550  205.1720   52.8880 N.am  295  PRO295     -0.2716
    188  CA        -1.7050  204.3220   53.2130 C.3   295  PRO295      0.1536
    189  C         -0.8820  204.0520   51.9510 C.2   295  PRO295      0.2599
    190  O         -1.4620  203.7550   50.9110 O.2   295  PRO295     -0.2715
    191  CB        -2.3580  203.0200   53.6700 C.3   295  PRO295      0.0310
    192  CG        -3.6790  203.4330   54.1970 C.3   295  PRO295      0.0237
    193  CD        -4.1210  204.6190   53.3950 C.3   295  PRO295      0.0939
    194  N          0.4420  204.1630   52.0400 N.am  296  GLY296     -0.1941
    195  CA         1.3090  203.9680   50.8900 C.3   296  GLY296      0.2014
    196  C          1.7890  205.2620   50.2410 C.2   296  GLY296      0.2639
    197  O          2.8500  205.3090   49.6030 O.2   296  GLY296     -0.2714
    198  N          1.0110  206.3220   50.4120 N.am  297  GLU297     -0.1963
    199  CA         1.3260  207.6120   49.8030 C.3   297  GLU297      0.1733
    200  C          2.6400  208.2260   50.2980 C.2   297  GLU297      0.2616
    201  O          3.3580  208.8430   49.5120 O.2   297  GLU297     -0.2715
    202  CB         0.1590  208.5900   49.9880 C.3   297  GLU297      0.0429
    203  CG         0.1540  209.7510   49.0140 C.3   297  GLU297      0.1163
    204  CD        -1.2130  210.4040   48.8810 C.2   297  GLU297      0.3649
    205  OE1       -1.3370  211.3290   48.0430 O.co2 297  GLU297     -0.2457
    206  OE2       -2.1570  209.9910   49.6030 O.co2 297  GLU297     -0.2457
    207  N          2.9500  208.0810   51.5890 N.am  298  ILE298     -0.1963
    208  CA         4.2280  208.5720   52.1170 C.3   298  ILE298      0.1727
    209  C          5.3960  207.8290   51.4740 C.2   298  ILE298      0.2616
    210  O          6.3370  208.4390   50.9620 O.2   298  ILE298     -0.2715
    211  CB         4.3490  208.4130   53.6410 C.3   298  ILE298      0.0290
    212  CG1        3.4490  209.4010   54.3710 C.3   298  ILE298      0.0022
    213  CG2        5.8070  208.5950   54.0900 C.3   298  ILE298      0.0023
    214  CD1        3.2590  209.0430   55.8360 C.3   298  ILE298      0.0001
    215  N          5.3290  206.5050   51.4980 N.am  299  GLU299     -0.1977
    216  CA         6.3370  205.7020   50.8200 C.3   299  GLU299      0.1602
    217  C          6.5160  206.1340   49.3670 C.2   299  GLU299      0.2287
    218  O          7.6290  206.1400   48.8590 O.2   299  GLU299     -0.2864
    219  CB         6.0040  204.2150   50.8980 C.3   299  GLU299      0.0415
    220  CG         6.0370  203.6610   52.3120 C.3   299  GLU299      0.1163
    221  CD         4.8360  204.0960   53.1470 C.2   299  GLU299      0.3649
    222  OE1        3.7040  203.7590   52.7450 O.co2 299  GLU299     -0.2457
    223  OE2        5.0250  204.7540   54.2030 O.co2 299  GLU299     -0.2457
@<TRIPOS>BOND
     1   205   204   ar
     2   218   217    2
     3   204   203    1
     4   204   206   ar
     5   203   202    1
     6   111   112    1
     7   111   108    1
     8   217   216    1
     9   201   200    2
    10   184   183    1
    11   184   186    1
    12   107   108    1
    13   197   196    2
    14   199   202    1
    15   199   200    1
    16   199   198    1
    17   185   183    1
    18   108   109    1
    19   183   180    1
    20   196   198   am
    21   196   195    1
    22   200   207   am
    23   216   219    1
    24   216   215    1
    25   195   194    1
    26   219   220    1
    27   190   189    2
    28   210   209    2
    29    65    63    1
    30   209   215   am
    31   209   208    1
    32   207   208    1
    33   109   110    2
    34   109   113   am
    35   180   179    1
    36   180   181    1
    37   179   173   am
    38   182   181    2
    39    69    68    2
    40   189   194   am
    41   189   188    1
    42   170   168   ar
    43    63    62    1
    44   181   187   am
    45   208   211    1
    46   220   221    1
    47   113   114    1
    48    61    60    2
    49    46    45    2
    50    68    67    1
    51   178   176    1
    52   222   221   ar
    53   187   188    1
    54   187   193    1
    55   173   172    1
    56   173   174    2
    57   172   175    1
    58   172   171    1
    59   168   169   ar
    60   168   167    1
    61   221   223   ar
    62   188   191    1
    63   193   192    1
    64    47    44    1
    65    47    48    1
    66    62    59    1
    67    62    64    1
    68    60    59    1
    69    60    66   am
    70   211   213    1
    71   211   212    1
    72    45    44    1
    73    45    54   am
    74   191   192    1
    75   175   176    1
    76    50    48   ar
    77    50    52   ar
    78   116   115    2
    79   128   126   ar
    80   166   167    1
    81   166   163    1
    82    58    59    1
    83    58    56   am
    84   114   115    1
    85   114   117    1
    86    67    66    1
    87    67    70    1
    88     9     7   ar
    89     9    11   ar
    90    44    43    1
    91   176   177    1
    92    48    49   ar
    93     7     6   ar
    94   115   121   am
    95    52    53   ar
    96    55    54    1
    97    55    56    1
    98   125   126    1
    99   125   122    1
   100   212   214    1
   101    15    14    2
   102   126   127   ar
   103   117   118    1
   104    56    57    2
   105     1     2    1
   106    49    51   ar
   107    11    10   ar
   108   163   164    1
   109   163   162    1
   110   164   165    2
   111   121   122    1
   112    36    35    2
   113    53    51   ar
   114    14    13    1
   115     6     5    1
   116     6     8   ar
   117   122   123    1
   118    43    35   am
   119     5     2    1
   120    35    34    1
   121     2     3    1
   122     4     3    2
   123    10     8   ar
   124   118   119    1
   125   118   120    1
   126   162   153   am
   127    16    13    1
   128    16    17    1
   129    13    12    1
   130   154   153    2
   131   123   124    2
   132    39    41   ar
   133    39    38   ar
   134    24    25    2
   135    24    23    1
   136    41    42   ar
   137   153   152    1
   138    22    23    1
   139    34    33    1
   140    34    37    1
   141    26    23    1
   142    26    27    1
   143    17    18   ar
   144    17    19   ar
   145    38    37    1
   146    38    40   ar
   147    42    40   ar
   148    27    28    1
   149    18    20   ar
   150    19    21   ar
   151   152   155    1
   152   152   151    1
   153    76    75    1
   154    75    77    1
   155    75    72    1
   156    28    29    1
   157    71    72    1
   158   155   156    1
   159    20    21   ar
   160    72    73    1
   161   103   102    2
   162    29    30    2
   163   104   105    1
   164   104   101    1
   165   105   106    1
   166   102   101    1
   167    30    31    1
   168    30    32    1
   169   101   100    1
   170   156   157   ar
   171   156   158   ar
   172    73    78   am
   173    73    74    2
   174   106   100    1
   175   129   130    1
   176   157   159   ar
   177   158   160   ar
   178    78    79    1
   179   147   146    2
   180    81    80    2
   181   130   133    1
   182   130   131    1
   183   145   146    1
   184   145   148    1
   185   145   144    1
   186   159   161   ar
   187   148   150    1
   188   148   149    1
   189    79    80    1
   190    79    82    1
   191   160   161   ar
   192    80    86   am
   193    92    90    1
   194    82    83    1
   195   131   132    2
   196    83    84    2
   197    83    85   am
   198    86    87    1
   199    90    87    1
   200    90    91    1
   201    98    97    1
   202    87    88    1
   203    96    95    2
   204    95    94    1
   205    97    94    1
   206    97    99    1
   207   143   140    1
   208    88    89    2
   209    94    93    1
   210   134   135    1
   211   137   136    2
   212   140   139    1
   213   140   141    1
   214   138   135    1
   215   135   136    1
   216   141   142    2
