@<TRIPOS>MOLECULE
tmp/2x08A00.pdb
 93 89 0 0 0
SMALL
GASTEIGER

@<TRIPOS>ATOM
      1  N        -28.7660    2.8410   10.7420 N.3    35  ALA35      -0.1231
      2  CA       -27.6420    3.6760   10.2770 C.3    35  ALA35       0.1694
      3  C        -27.2800    3.4410    8.7990 C.2    35  ALA35       0.2592
      4  O        -27.5180    2.3580    8.2630 O.2    35  ALA35      -0.2718
      5  CB       -26.4320    3.4610   11.1640 C.3    35  ALA35       0.0304
      6  N        -26.7000    4.4630    8.1700 N.am   36  ASP36      -0.1974
      7  CA       -26.3620    4.4660    6.7360 C.3    36  ASP36       0.1709
      8  C        -27.4900    3.9960    5.8140 C.2    36  ASP36       0.2293
      9  O        -27.2750    3.1580    4.8960 O.2    36  ASP36      -0.2864
     10  CB       -25.0800    3.6600    6.4590 C.3    36  ASP36       0.1436
     11  CG       -24.1780    4.3440    5.4460 C.2    36  ASP36       0.3671
     12  OD1      -24.5520    5.4470    4.9770 O.co2  36  ASP36      -0.2456
     13  OD2      -23.1050    3.7970    5.1170 O.co2  36  ASP36      -0.2456
     14  N        -28.2770    0.1500    6.3440 N.3    39  ILE39      -0.1231
     15  CA       -27.1100   -0.7270    6.1680 C.3    39  ILE39       0.1692
     16  C        -26.6170   -1.2320    7.5390 C.2    39  ILE39       0.2593
     17  O        -26.2740   -2.4010    7.6890 O.2    39  ILE39      -0.2718
     18  CB       -25.9680   -0.0520    5.3460 C.3    39  ILE39       0.0266
     19  CG1      -26.3680    0.0700    3.8530 C.3    39  ILE39       0.0019
     20  CG2      -24.6340   -0.8280    5.5040 C.3    39  ILE39       0.0020
     21  CD1      -25.2660    0.5710    2.9250 C.3    39  ILE39       0.0001
     22  N        -26.6130   -0.3630    8.5420 N.am   40  GLY40      -0.1942
     23  CA       -26.1700   -0.7550    9.8910 C.3    40  GLY40       0.2014
     24  C        -24.7020   -0.4090   10.1380 C.2    40  GLY40       0.2638
     25  O        -24.0420    0.2270    9.3040 O.2    40  GLY40      -0.2714
     26  N        -24.1920   -0.8250   11.2950 N.am   41  TYR41      -0.1973
     27  CA       -22.7960   -0.5700   11.6130 C.3    41  TYR41       0.1639
     28  C        -21.8810   -1.7660   11.2960 C.2    41  TYR41       0.2290
     29  O        -20.6600   -1.6830   11.4950 O.2    41  TYR41      -0.2864
     30  CB       -22.6420   -0.1500   13.0840 C.3    41  TYR41       0.0560
     31  CG       -22.9010    1.3270   13.3630 C.ar   41  TYR41      -0.0198
     32  CD1      -24.1770    1.7670   13.7220 C.ar   41  TYR41      -0.0009
     33  CD2      -21.8750    2.2710   13.2950 C.ar   41  TYR41      -0.0009
     34  CE1      -24.4340    3.1090   14.0050 C.ar   41  TYR41       0.0417
     35  CE2      -22.1250    3.6310   13.5630 C.ar   41  TYR41       0.0417
     36  CZ       -23.4250    4.0310   13.9120 C.ar   41  TYR41       0.1957
     37  OH       -23.7280    5.3470   14.1920 O.3    41  TYR41      -0.2866
     38  N        -20.6920   -3.0960    8.3610 N.3    43  PRO43      -0.2102
     39  CA       -19.5830   -2.8620    7.4570 C.3    43  PRO43       0.1504
     40  C        -18.5130   -1.9390    7.9920 C.2    43  PRO43       0.2575
     41  O        -17.3320   -2.1820    7.7780 O.2    43  PRO43      -0.2718
     42  CB       -20.2720   -2.2290    6.2430 C.3    43  PRO43       0.0282
     43  CG       -21.6050   -2.8690    6.2330 C.3    43  PRO43       0.0208
     44  CD       -21.9850   -2.8200    7.7050 C.3    43  PRO43       0.0893
     45  N        -18.9020   -0.8610    8.6650 N.am   44  VAL44      -0.1980
     46  CA       -17.8930    0.0650    9.1290 C.3    44  VAL44       0.1595
     47  C        -17.0080   -0.6120   10.1990 C.2    44  VAL44       0.2287
     48  O        -15.8550   -0.2180   10.3780 O.2    44  VAL44      -0.2864
     49  CB       -18.4870    1.3920    9.6420 C.3    44  VAL44       0.0276
     50  CG1      -19.0840    1.2170   11.0510 C.3    44  VAL44       0.0022
     51  CG2      -17.4170    2.5200    9.5960 C.3    44  VAL44       0.0022
     52  N        -17.0380    6.7380   13.2480 N.3    86  ASN86      -0.1240
     53  CA       -18.3690    6.1410   13.5230 C.3    86  ASN86       0.1653
     54  C        -18.3100    4.7450   14.1430 C.2    86  ASN86       0.2266
     55  O        -19.1270    4.3900   15.0360 O.2    86  ASN86      -0.2867
     56  CB       -19.1830    6.0480   12.2230 C.3    86  ASN86       0.1155
     57  CG       -19.5500    7.4170   11.6480 C.2    86  ASN86       0.2627
     58  OD1      -20.0140    8.3050   12.3780 O.2    86  ASN86      -0.2716
     59  ND2      -19.3690    7.5790   10.3370 N.am   86  ASN86      -0.0877
     60  N        -21.5590   -3.0400    2.5820 N.3   177  GLY177     -0.1210
     61  CA       -21.7300   -1.5980    2.6380 C.3   177  GLY177      0.1956
     62  C        -21.4560   -0.9230    1.3070 C.2   177  GLY177      0.2611
     63  O        -21.7890   -1.4580    0.2350 O.2   177  GLY177     -0.2717
     64  N        -20.7920    0.2330    1.3630 N.am  178  LYS178     -0.1979
     65  CA       -20.7940    1.1410    0.2080 C.3   178  LYS178      0.1596
     66  C        -19.6350    2.1450    0.3190 C.2   178  LYS178      0.2287
     67  O        -19.0250    2.2760    1.3850 O.2   178  LYS178     -0.2864
     68  CB       -22.1590    1.8930    0.1160 C.3   178  LYS178      0.0298
     69  CG       -22.3730    2.9500    1.2030 C.3   178  LYS178      0.0038
     70  CD       -23.6840    3.7470    1.1180 C.3   178  LYS178      0.0206
     71  CE       -23.7990    4.5640   -0.1770 C.3   178  LYS178      0.1093
     72  NZ       -23.0290    5.8490   -0.0710 N.3   178  LYS178     -0.1314
     73  N        -18.7900    6.2920    0.1600 N.3   180  HIS180     -0.1241
     74  CA       -19.4070    7.5820    0.4580 C.3   180  HIS180      0.1621
     75  C        -18.5370    8.6830   -0.1380 C.2   180  HIS180      0.2264
     76  O        -17.3200    8.7670    0.1670 O.2   180  HIS180     -0.2867
     77  CB       -19.4940    7.7750    1.9700 C.3   180  HIS180      0.0745
     78  CG       -20.1700    6.6450    2.6720 C.ar  180  HIS180      0.0817
     79  ND1      -19.5040    5.4940    3.0520 N.ar  180  HIS180     -0.2268
     80  CD2      -21.4580    6.4760    3.0400 C.ar  180  HIS180      0.1154
     81  CE1      -20.3570    4.6660    3.6230 C.ar  180  HIS180      0.1986
     82  NE2      -21.5510    5.2420    3.6370 N.ar  180  HIS180     -0.2212
     83  N        -16.2910   10.6450    2.0520 N.3   183  ARG183     -0.1245
     84  CA       -15.2900    9.9050    2.8400 C.3   183  ARG183      0.1563
     85  C        -14.0530    9.5340    2.0140 C.2   183  ARG183      0.2260
     86  O        -12.9260    9.7020    2.4740 O.2   183  ARG183     -0.2867
     87  CB       -15.9110    8.6550    3.4810 C.3   183  ARG183      0.0307
     88  CG       -16.8290    8.9450    4.6570 C.3   183  ARG183      0.0489
     89  CD       -17.3740    7.6500    5.2420 C.3   183  ARG183      0.2205
     90  NE       -18.5680    7.8560    6.0550 N.pl3 183  ARG183     -0.0865
     91  CZ       -19.2410    6.8940    6.6720 C.cat 183  ARG183      0.5346
     92  NH1      -18.8280    5.6180    6.6160 N.pl3 183  ARG183      0.1354
     93  NH2      -20.3330    7.2200    7.3580 N.pl3 183  ARG183      0.1354
@<TRIPOS>BOND
     1    71    72    1
     2    71    70    1
     3    75    76    2
     4    75    74    1
     5    68    65    1
     6    68    69    1
     7    73    74    1
     8    65    66    1
     9    65    64    1
    10    63    62    2
    11    66    67    2
    12    74    77    1
    13    70    69    1
    14    62    64   am
    15    62    61    1
    16    77    78    1
    17    85    86    2
    18    85    84    1
    19    83    84    1
    20    60    61    1
    21    78    80   ar
    22    78    79   ar
    23    84    87    1
    24    21    19    1
    25    80    82   ar
    26    79    81   ar
    27    87    88    1
    28    81    82   ar
    29    19    18    1
    30    88    89    1
    31     9     8    2
    32    12    11   ar
    33    13    11   ar
    34    89    90    1
    35    18    20    1
    36    18    15    1
    37    11    10    1
    38     8     7    1
    39    90    91    2
    40    15    14    1
    41    15    16    1
    42    43    42    1
    43    43    44    1
    44    42    39    1
    45    10     7    1
    46    92    91    1
    47    91    93    1
    48     7     6    1
    49    39    40    1
    50    39    38    1
    51    16    17    2
    52    16    22   am
    53    44    38    1
    54    41    40    2
    55    40    45   am
    56     6     3   am
    57     4     3    2
    58    22    23    1
    59    45    46    1
    60     3     2    1
    61    46    49    1
    62    46    47    1
    63    25    24    2
    64    51    49    1
    65    49    50    1
    66    23    24    1
    67    24    26   am
    68    47    48    2
    69     2     1    1
    70     2     5    1
    71    59    57   am
    72    26    27    1
    73    28    29    2
    74    28    27    1
    75    27    30    1
    76    57    56    1
    77    57    58    2
    78    56    53    1
    79    30    31    1
    80    52    53    1
    81    33    31   ar
    82    33    35   ar
    83    31    32   ar
    84    53    54    1
    85    35    36   ar
    86    32    34   ar
    87    36    34   ar
    88    36    37    1
    89    54    55    2
