@<TRIPOS>MOLECULE
tmp/2x09A00.pdb
 147 147 0 0 0
SMALL
GASTEIGER

@<TRIPOS>ATOM
      1  N         50.8770   46.3620   78.7570 N.3   154  ILE154     -0.1231
      2  CA        51.4580   45.9620   77.4690 C.3   154  ILE154      0.1692
      3  C         51.5990   47.2110   76.5680 C.2   154  ILE154      0.2592
      4  O         52.2580   48.1760   76.9430 O.2   154  ILE154     -0.2718
      5  CB        50.6380   44.7600   76.8250 C.3   154  ILE154      0.0266
      6  CG1       50.3520   43.6790   77.9000 C.3   154  ILE154      0.0019
      7  CG2       51.3900   44.1440   75.6380 C.3   154  ILE154      0.0020
      8  CD1       49.3920   42.5140   77.5280 C.3   154  ILE154      0.0001
      9  N         50.9460   47.2140   75.4150 N.am  155  ASP155     -0.1960
     10  CA        50.8780   48.3990   74.5500 C.3   155  ASP155      0.1840
     11  C         49.4220   48.8710   74.2820 C.2   155  ASP155      0.2622
     12  O         49.1610   49.6620   73.3830 O.2   155  ASP155     -0.2715
     13  CB        51.6320   48.1390   73.2320 C.3   155  ASP155      0.1450
     14  CG        51.1750   46.8800   72.5360 C.2   155  ASP155      0.3671
     15  OD1       50.1740   46.2770   72.9770 O.co2 155  ASP155     -0.2456
     16  OD2       51.8320   46.4710   71.5580 O.co2 155  ASP155     -0.2456
     17  N         48.4710   48.3960   75.0750 N.am  156  TRP156     -0.1974
     18  CA        47.0680   48.7660   74.8590 C.3   156  TRP156      0.1640
     19  C         46.8070   50.2700   74.9900 C.2   156  TRP156      0.2290
     20  O         45.9840   50.8300   74.2580 O.2   156  TRP156     -0.2864
     21  CB        46.1460   47.9640   75.7850 C.3   156  TRP156      0.0576
     22  CG        46.3480   46.4620   75.6740 C.ar  156  TRP156      0.0006
     23  CD1       47.1590   45.7890   74.7770 C.ar  156  TRP156      0.0946
     24  CD2       45.7090   45.4520   76.4680 C.ar  156  TRP156      0.0152
     25  NE1       47.0690   44.4270   74.9920 N.ar  156  TRP156     -0.2442
     26  CE2       46.1930   44.1940   76.0220 C.ar  156  TRP156      0.0810
     27  CE3       44.7870   45.4870   77.5220 C.ar  156  TRP156      0.0012
     28  CZ2       45.7720   42.9840   76.5890 C.ar  156  TRP156      0.0191
     29  CZ3       44.3760   44.2850   78.0930 C.ar  156  TRP156      0.0001
     30  CH2       44.8620   43.0520   77.6170 C.ar  156  TRP156      0.0015
     31  N         43.0540   38.5570   78.2850 N.3   346  GLU346     -0.1245
     32  CA        44.4940   38.4380   78.4650 C.3   346  GLU346      0.1567
     33  C         44.8860   39.1160   79.7940 C.2   346  GLU346      0.2260
     34  O         44.8700   40.3370   79.9010 O.2   346  GLU346     -0.2867
     35  CB        45.2550   39.0170   77.2680 C.3   346  GLU346      0.0388
     36  CG        46.7250   38.6840   77.3500 C.3   346  GLU346      0.1160
     37  CD        47.5390   39.2690   76.2150 C.2   346  GLU346      0.3649
     38  OE1       47.0160   40.1390   75.4800 O.co2 346  GLU346     -0.2457
     39  OE2       48.7230   38.8520   76.0730 O.co2 346  GLU346     -0.2457
     40  N         50.8150   38.3240   78.2210 N.3   371  CYS371     -0.1221
     41  CA        52.1980   38.3530   77.6910 C.3   371  CYS371      0.1808
     42  C         52.9980   39.5170   78.2340 C.2   371  CYS371      0.2601
     43  O         52.4950   40.3420   78.9950 O.2   371  CYS371     -0.2717
     44  CB        52.2030   38.5180   76.1640 C.3   371  CYS371      0.0970
     45  SG        51.9080   40.2350   75.6170 S.3   371  CYS371     -0.0800
     46  N         54.2620   39.5650   77.8120 N.am  372  CYS372     -0.1970
     47  CA        55.0190   40.8250   77.7370 C.3   372  CYS372      0.1712
     48  C         55.3520   41.4910   79.0630 C.2   372  CYS372      0.2296
     49  O         55.5790   42.6930   79.1100 O.2   372  CYS372     -0.2864
     50  CB        54.2600   41.8040   76.8240 C.3   372  CYS372      0.0983
     51  SG        53.7560   41.0340   75.2520 S.3   372  CYS372     -0.0798
     52  N         50.4590   33.2140   76.7300 N.3   420  SER420     -0.1202
     53  CA        49.8740   34.1100   75.7350 C.3   420  SER420      0.2020
     54  C         50.7140   34.1500   74.4730 C.2   420  SER420      0.2618
     55  O         50.3550   33.5190   73.4870 O.2   420  SER420     -0.2717
     56  CB        49.6510   35.5160   76.3040 C.3   420  SER420      0.2103
     57  OG        48.8090   36.2630   75.4420 O.3   420  SER420     -0.2182
     58  N         51.8220   34.8880   74.4900 N.am  421  ASP421     -0.1973
     59  CA        52.7590   34.8610   73.3540 C.3   421  ASP421      0.1709
     60  C         53.6710   33.6630   73.4830 C.2   421  ASP421      0.2293
     61  O         53.8610   32.9300   72.5260 O.2   421  ASP421     -0.2864
     62  CB        53.5930   36.1370   73.2520 C.3   421  ASP421      0.1436
     63  CG        52.7480   37.3760   72.9860 C.2   421  ASP421      0.3671
     64  OD1       51.4990   37.2760   72.9870 O.co2 421  ASP421     -0.2456
     65  OD2       53.3540   38.4510   72.7930 O.co2 421  ASP421     -0.2456
     66  N         49.0190   33.5950   66.1270 N.3   464  MET464     -0.1245
     67  CA        49.1660   35.0030   66.4570 C.3   464  MET464      0.1570
     68  C         50.1700   35.5680   65.4660 C.2   464  MET464      0.2261
     69  O         51.3190   35.8470   65.8100 O.2   464  MET464     -0.2867
     70  CB        49.6430   35.1580   67.9030 C.3   464  MET464      0.0387
     71  CG        49.7520   36.5760   68.3960 C.3   464  MET464      0.0595
     72  SD        50.6850   36.6610   69.9270 S.3   464  MET464     -0.1393
     73  CE        49.5720   35.7940   71.0200 C.3   464  MET464      0.0692
     74  N         47.8820   43.8250   63.2430 N.3   468  TYR468     -0.1241
     75  CA        47.5030   44.6630   64.3600 C.3   468  TYR468      0.1605
     76  C         47.3920   46.0900   63.8640 C.2   468  TYR468      0.2264
     77  O         47.1850   47.0180   64.6410 O.2   468  TYR468     -0.2867
     78  CB        48.5580   44.5760   65.4590 C.3   468  TYR468      0.0534
     79  CG        48.5720   43.2560   66.1820 C.ar  468  TYR468     -0.0201
     80  CD1       47.7190   43.0210   67.2750 C.ar  468  TYR468     -0.0009
     81  CD2       49.4310   42.2370   65.7810 C.ar  468  TYR468     -0.0009
     82  CE1       47.7330   41.8030   67.9550 C.ar  468  TYR468      0.0417
     83  CE2       49.4500   41.0180   66.4470 C.ar  468  TYR468      0.0417
     84  CZ        48.5980   40.8060   67.5250 C.ar  468  TYR468      0.1957
     85  OH        48.6140   39.5840   68.1620 O.3   468  TYR468     -0.2866
     86  N         43.8400   36.8700   68.4730 N.3   493  GLU493     -0.1245
     87  CA        44.0150   38.3170   68.6760 C.3   493  GLU493      0.1567
     88  C         44.5020   39.0140   67.4150 C.2   493  GLU493      0.2260
     89  O         45.6960   39.0230   67.1240 O.2   493  GLU493     -0.2867
     90  CB        44.9470   38.6470   69.8460 C.3   493  GLU493      0.0388
     91  CG        46.2060   37.7740   69.9870 C.3   493  GLU493      0.1160
     92  CD        47.1980   38.3950   70.9250 C.2   493  GLU493      0.3649
     93  OE1       47.7360   39.4580   70.5630 O.co2 493  GLU493     -0.2457
     94  OE2       47.4360   37.8510   72.0310 O.co2 493  GLU493     -0.2457
     95  N         53.1180   51.3580   67.4360 N.3   535  PHE535     -0.1241
     96  CA        51.6960   51.6810   67.3630 C.3   535  PHE535      0.1605
     97  C         51.3950   53.0390   67.9620 C.2   535  PHE535      0.2264
     98  O         50.2950   53.2660   68.4570 O.2   535  PHE535     -0.2867
     99  CB        50.8630   50.6210   68.0830 C.3   535  PHE535      0.0534
    100  CG        51.0480   49.2300   67.5460 C.ar  535  PHE535     -0.0203
    101  CD1       50.7350   48.9270   66.2170 C.ar  535  PHE535     -0.0042
    102  CD2       51.5000   48.2160   68.3720 C.ar  535  PHE535     -0.0042
    103  CE1       50.8870   47.6500   65.7220 C.ar  535  PHE535     -0.0003
    104  CE2       51.6530   46.9350   67.8820 C.ar  535  PHE535     -0.0003
    105  CZ        51.3500   46.6530   66.5470 C.ar  535  PHE535     -0.0000
    106  N         40.9380   42.2900   68.1070 N.3   594  TRP594     -0.1241
    107  CA        41.8030   43.0230   69.0260 C.3   594  TRP594      0.1605
    108  C         41.4730   44.5060   68.9070 C.2   594  TRP594      0.2264
    109  O         41.9200   45.1500   67.9560 O.2   594  TRP594     -0.2867
    110  CB        43.2820   42.7560   68.6670 C.3   594  TRP594      0.0550
    111  CG        44.2110   42.7660   69.8380 C.ar  594  TRP594      0.0003
    112  CD1       45.3180   43.5390   69.9960 C.ar  594  TRP594      0.0946
    113  CD2       44.0940   41.9790   71.0370 C.ar  594  TRP594      0.0152
    114  NE1       45.8990   43.2910   71.2160 N.ar  594  TRP594     -0.2442
    115  CE2       45.1690   42.3370   71.8750 C.ar  594  TRP594      0.0810
    116  CE3       43.1750   41.0100   71.4840 C.ar  594  TRP594      0.0012
    117  CZ2       45.3650   41.7560   73.1370 C.ar  594  TRP594      0.0191
    118  CZ3       43.3670   40.4310   72.7410 C.ar  594  TRP594      0.0001
    119  CH2       44.4600   40.8090   73.5510 C.ar  594  TRP594      0.0015
    120  N         42.1280   49.6380   68.2780 N.3   605  TRP605     -0.1241
    121  CA        41.8940   48.3670   68.9710 C.3   605  TRP605      0.1605
    122  C         40.6400   48.4160   69.8400 C.2   605  TRP605      0.2264
    123  O         40.7060   48.1910   71.0590 O.2   605  TRP605     -0.2867
    124  CB        43.1240   48.0400   69.8470 C.3   605  TRP605      0.0550
    125  CG        44.3930   47.7820   69.0730 C.ar  605  TRP605      0.0003
    126  CD1       44.5300   47.7110   67.7060 C.ar  605  TRP605      0.0946
    127  CD2       45.6860   47.4780   69.6170 C.ar  605  TRP605      0.0152
    128  NE1       45.8220   47.3940   67.3720 N.ar  605  TRP605     -0.2442
    129  CE2       46.5600   47.2600   68.5210 C.ar  605  TRP605      0.0810
    130  CE3       46.1970   47.3820   70.9240 C.ar  605  TRP605      0.0012
    131  CZ2       47.9180   46.9570   68.6910 C.ar  605  TRP605      0.0191
    132  CZ3       47.5350   47.0770   71.0980 C.ar  605  TRP605      0.0001
    133  CH2       48.3840   46.8660   69.9840 C.ar  605  TRP605      0.0015
    134  N         55.8030   41.8800   61.1990 N.3   733  TRP733     -0.1241
    135  CA        54.9760   41.1140   62.1440 C.3   733  TRP733      0.1605
    136  C         53.5720   41.6480   62.3600 C.2   733  TRP733      0.2264
    137  O         52.6620   40.8960   62.6780 O.2   733  TRP733     -0.2867
    138  CB        55.6720   40.9840   63.5080 C.3   733  TRP733      0.0550
    139  CG        56.1630   42.2830   64.0840 C.ar  733  TRP733      0.0003
    140  CD1       57.3050   42.9640   63.7340 C.ar  733  TRP733      0.0946
    141  CD2       55.5410   43.0510   65.1230 C.ar  733  TRP733      0.0152
    142  NE1       57.4240   44.1150   64.4880 N.ar  733  TRP733     -0.2442
    143  CE2       56.3580   44.1910   65.3500 C.ar  733  TRP733      0.0810
    144  CE3       54.3720   42.8900   65.8840 C.ar  733  TRP733      0.0012
    145  CZ2       56.0370   45.1650   66.3050 C.ar  733  TRP733      0.0191
    146  CZ3       54.0550   43.8500   66.8270 C.ar  733  TRP733      0.0001
    147  CH2       54.8840   44.9790   67.0330 C.ar  733  TRP733      0.0015
@<TRIPOS>BOND
     1   134   135    1
     2   135   136    1
     3   135   138    1
     4   136   137    2
     5    74    75    1
     6   138   139    1
     7   140   139   ar
     8   140   142   ar
     9    76    75    1
    10    76    77    2
    11   139   141   ar
    12    75    78    1
    13   142   143   ar
    14   141   143   ar
    15   141   144   ar
    16   143   145   ar
    17    78    79    1
    18    68    69    2
    19    68    67    1
    20   103   101   ar
    21   103   105   ar
    22    81    79   ar
    23    81    83   ar
    24   144   146   ar
    25    66    67    1
    26    79    80   ar
    27   101   100   ar
    28   145   147   ar
    29    83    84   ar
    30    67    70    1
    31   105   104   ar
    32   146   147   ar
    33    89    88    2
    34    80    82   ar
    35    96    95    1
    36    96    97    1
    37    96    99    1
    38   128   126   ar
    39   128   129   ar
    40    88    87    1
    41    84    82   ar
    42    84    85    1
    43   100    99    1
    44   100   102   ar
    45   126   125   ar
    46   104   102   ar
    47    70    71    1
    48   109   108    2
    49    97    98    2
    50   106   107    1
    51   120   121    1
    52    71    72    1
    53    86    87    1
    54   129   131   ar
    55   129   127   ar
    56   110   107    1
    57   110   111    1
    58    87    90    1
    59   131   133   ar
    60   108   107    1
    61   121   122    1
    62   121   124    1
    63   125   127   ar
    64   125   124    1
    65   127   130   ar
    66   111   112   ar
    67   111   113   ar
    68   122   123    2
    69    90    91    1
    70    72    73    1
    71   133   132   ar
    72    91    92    1
    73   112   114   ar
    74    93    92   ar
    75   130   132   ar
    76    92    94   ar
    77   113   116   ar
    78   113   115   ar
    79   114   115   ar
    80   116   118   ar
    81    16    14   ar
    82   115   117   ar
    83    61    60    2
    84    14    15   ar
    85    14    13    1
    86   118   119   ar
    87    65    63   ar
    88    63    64   ar
    89    63    62    1
    90   117   119   ar
    91    13    10    1
    92    62    59    1
    93    59    60    1
    94    59    58    1
    95    12    11    2
    96    55    54    2
    97    20    19    2
    98    11    10    1
    99    11    17   am
   100    54    58   am
   101    54    53    1
   102    10     9    1
   103    23    25   ar
   104    23    22   ar
   105    18    19    1
   106    18    17    1
   107    18    21    1
   108    25    26   ar
   109    51    45    1
   110    51    50    1
   111     9     3   am
   112    57    56    1
   113    38    37   ar
   114    45    44    1
   115     7     5    1
   116    22    21    1
   117    22    24   ar
   118    53    56    1
   119    53    52    1
   120    26    24   ar
   121    26    28   ar
   122    39    37   ar
   123    44    41    1
   124    37    36    1
   125    24    27   ar
   126     3     4    2
   127     3     2    1
   128    28    30   ar
   129    50    47    1
   130     5     2    1
   131     5     6    1
   132    35    36    1
   133    35    32    1
   134     2     1    1
   135    27    29   ar
   136     8     6    1
   137    30    29   ar
   138    41    40    1
   139    41    42    1
   140    47    46    1
   141    47    48    1
   142    46    42   am
   143    42    43    2
   144    31    32    1
   145    32    33    1
   146    48    49    2
   147    33    34    2
