@<TRIPOS>MOLECULE
tmp/2x0eA00.pdb
 149 142 0 0 0
SMALL
GASTEIGER

@<TRIPOS>ATOM
      1  N        -17.6720   12.2620   -9.9240 N.3    35  PHE35      -0.1227
      2  CA       -16.6370   11.3200   -9.5060 C.3    35  PHE35       0.1736
      3  C        -16.9840    9.8850   -9.9060 C.2    35  PHE35       0.2596
      4  O        -18.0450    9.6290  -10.4740 O.2    35  PHE35      -0.2718
      5  CB       -16.3550   11.4230   -8.0000 C.3    35  PHE35       0.0547
      6  CG       -17.5720   11.7160   -7.1650 C.ar   35  PHE35      -0.0202
      7  CD1      -18.5120   10.7310   -6.9110 C.ar   35  PHE35      -0.0042
      8  CD2      -17.7630   12.9740   -6.6150 C.ar   35  PHE35      -0.0042
      9  CE1      -19.6280   10.9970   -6.1360 C.ar   35  PHE35      -0.0003
     10  CE2      -18.8760   13.2470   -5.8400 C.ar   35  PHE35      -0.0003
     11  CZ       -19.8100   12.2570   -5.6000 C.ar   35  PHE35      -0.0000
     12  N        -16.0820    8.9570   -9.6020 N.am   36  GLY36      -0.1942
     13  CA       -16.1970    7.5830  -10.0590 C.3    36  GLY36       0.2014
     14  C        -17.4530    6.8300   -9.6580 C.2    36  GLY36       0.2639
     15  O        -17.9390    5.9910  -10.4190 O.2    36  GLY36      -0.2714
     16  N        -17.9730    7.1170   -8.4660 N.am   37  GLY37      -0.1954
     17  CA       -19.1520    6.4340   -7.9540 C.3    37  GLY37       0.1869
     18  C        -20.3890    6.6460   -8.8090 C.2    37  GLY37       0.2309
     19  O        -21.0380    5.6920   -9.2390 O.2    37  GLY37      -0.2863
     20  N         -9.2240    1.1490  -17.3410 N.3   200  ASN200     -0.1240
     21  CA        -9.7020    2.2080  -18.2160 C.3   200  ASN200      0.1653
     22  C         -9.3120    1.9060  -19.6560 C.2   200  ASN200      0.2266
     23  O         -8.1690    1.5400  -19.9310 O.2   200  ASN200     -0.2867
     24  CB        -9.1280    3.5550  -17.7760 C.3   200  ASN200      0.1155
     25  CG        -9.4290    4.6620  -18.7580 C.2   200  ASN200      0.2627
     26  OD1       -8.6940    4.8680  -19.7210 O.2   200  ASN200     -0.2716
     27  ND2      -10.5140    5.3860  -18.5190 N.am  200  ASN200     -0.0877
     28  N         -6.3690    3.8770  -21.1580 N.3   203  LEU203     -0.1245
     29  CA        -5.0940    3.4550  -20.5780 C.3   203  LEU203      0.1561
     30  C         -4.5790    2.1750  -21.2190 C.2   203  LEU203      0.2260
     31  O         -3.3880    2.0540  -21.5030 O.2   203  LEU203     -0.2867
     32  CB        -5.2020    3.2650  -19.0630 C.3   203  LEU203      0.0270
     33  CG        -5.1320    4.5150  -18.1870 C.3   203  LEU203      0.0019
     34  CD1       -4.9130    4.1120  -16.7400 C.3   203  LEU203      0.0001
     35  CD2       -4.0260    5.4470  -18.6500 C.3   203  LEU203      0.0001
     36  N         -0.3130    9.1920   -5.4160 N.3   220  TYR220     -0.1241
     37  CA        -1.7290    9.4780   -5.6360 C.3   220  TYR220      0.1605
     38  C         -2.2490   10.3570   -4.5080 C.2   220  TYR220      0.2264
     39  O         -2.7210    9.8640   -3.4870 O.2   220  TYR220     -0.2867
     40  CB        -2.5440    8.1900   -5.7250 C.3   220  TYR220      0.0534
     41  CG        -3.9970    8.4220   -6.0650 C.ar  220  TYR220     -0.0201
     42  CD1       -4.3820    8.7740   -7.3540 C.ar  220  TYR220     -0.0009
     43  CD2       -4.9840    8.2880   -5.1010 C.ar  220  TYR220     -0.0009
     44  CE1       -5.7140    8.9890   -7.6720 C.ar  220  TYR220      0.0417
     45  CE2       -6.3140    8.4980   -5.4080 C.ar  220  TYR220      0.0417
     46  CZ        -6.6740    8.8490   -6.6940 C.ar  220  TYR220      0.1957
     47  OH        -7.9990    9.0560   -7.0010 O.3   220  TYR220     -0.2866
     48  N         -4.6890   13.1080   -2.8570 N.3   222  ARG222     -0.1245
     49  CA        -5.9420   13.8400   -2.8280 C.3   222  ARG222      0.1563
     50  C         -6.2780   14.2740   -1.4140 C.2   222  ARG222      0.2260
     51  O         -6.8900   13.5260   -0.6560 O.2   222  ARG222     -0.2867
     52  CB        -7.0710   13.0090   -3.4270 C.3   222  ARG222      0.0307
     53  CG        -6.8910   12.7520   -4.9070 C.3   222  ARG222      0.0489
     54  CD        -8.2020   12.3820   -5.5530 C.3   222  ARG222      0.2205
     55  NE        -8.7690   11.1850   -4.9500 N.pl3 222  ARG222     -0.0865
     56  CZ        -9.9130   10.6350   -5.3340 C.cat 222  ARG222      0.5346
     57  NH1      -10.6080   11.1870   -6.3220 N.pl3 222  ARG222      0.1354
     58  NH2      -10.3570    9.5390   -4.7320 N.pl3 222  ARG222      0.1354
     59  N        -10.0250    9.0850    2.7990 N.3   227  ARG227     -0.1245
     60  CA        -9.7470    7.6850    2.4680 C.3   227  ARG227      0.1563
     61  C         -8.3760    7.4800    1.8170 C.2   227  ARG227      0.2260
     62  O         -7.8320    6.3730    1.8330 O.2   227  ARG227     -0.2867
     63  CB       -10.8070    7.1500    1.5070 C.3   227  ARG227      0.0307
     64  CG       -12.0390    6.5770    2.1590 C.3   227  ARG227      0.0489
     65  CD       -13.0590    6.2090    1.0950 C.3   227  ARG227      0.2205
     66  NE       -13.4740    7.3780    0.3260 N.pl3 227  ARG227     -0.0865
     67  CZ       -14.2440    7.3280   -0.7570 C.cat 227  ARG227      0.5346
     68  NH1      -14.6830    6.1610   -1.2110 N.pl3 227  ARG227      0.1354
     69  NH2      -14.5710    8.4460   -1.3910 N.pl3 227  ARG227      0.1354
     70  N         -0.1810   13.2150   -8.3250 N.3   255  VAL255     -0.1231
     71  CA        -1.2770   13.3050   -9.2770 C.3   255  VAL255      0.1692
     72  C         -2.5860   12.9060   -8.5990 C.2   255  VAL255      0.2592
     73  O         -2.5770   12.2790   -7.5370 O.2   255  VAL255     -0.2718
     74  CB        -1.0300   12.4210  -10.5120 C.3   255  VAL255      0.0266
     75  CG1        0.0410   13.0370  -11.3920 C.3   255  VAL255      0.0020
     76  CG2       -0.6300   11.0170  -10.0890 C.3   255  VAL255      0.0020
     77  N         -3.7080   13.2800   -9.2080 N.am  256  GLY256     -0.1957
     78  CA        -5.0140   12.9550   -8.6620 C.3   256  GLY256      0.1869
     79  C         -5.8810   14.1730   -8.4030 C.2   256  GLY256      0.2309
     80  O         -7.0080   14.2690   -8.8900 O.2   256  GLY256     -0.2863
     81  N         -2.0220   17.6640  -10.4390 N.3   274  GLY274     -0.1210
     82  CA        -3.4710   17.6580  -10.4220 C.3   274  GLY274      0.1956
     83  C         -4.0200   16.4170  -11.0940 C.2   274  GLY274      0.2612
     84  O         -3.4400   15.3410  -10.9860 O.2   274  GLY274     -0.2717
     85  N         -5.1470   16.5630  -11.7830 N.am  275  LYS275     -0.1965
     86  CA        -5.7130   15.4650  -12.5540 C.3   275  LYS275      0.1728
     87  C         -5.2200   15.5510  -13.9920 C.2   275  LYS275      0.2616
     88  O         -5.7100   16.3560  -14.7810 O.2   275  LYS275     -0.2715
     89  CB        -7.2390   15.5110  -12.5200 C.3   275  LYS275      0.0311
     90  CG        -7.9120   14.2360  -13.0030 C.3   275  LYS275      0.0038
     91  CD        -9.4200   14.4140  -13.1160 C.3   275  LYS275      0.0206
     92  CE       -10.1260   13.0900  -13.3780 C.3   275  LYS275      0.1093
     93  NZ       -10.1030   12.1940  -12.1860 N.3   275  LYS275     -0.1314
     94  N         -4.2300   14.7320  -14.3250 N.am  276  LEU276     -0.1977
     95  CA        -3.6930   14.7030  -15.6780 C.3   276  LEU276      0.1596
     96  C         -4.7160   14.1060  -16.6260 C.2   276  LEU276      0.2287
     97  O         -5.5330   13.2850  -16.2200 O.2   276  LEU276     -0.2864
     98  CB        -2.4170   13.8580  -15.7330 C.3   276  LEU276      0.0297
     99  CG        -1.1670   14.3640  -15.0220 C.3   276  LEU276      0.0022
    100  CD1       -0.0500   13.3480  -15.1700 C.3   276  LEU276      0.0001
    101  CD2       -0.7510   15.7190  -15.5740 C.3   276  LEU276      0.0001
    102  N         -6.0290   11.5110  -19.3330 N.3   278  LEU278     -0.1245
    103  CA        -5.7330   10.0820  -19.4060 C.3   278  LEU278      0.1561
    104  C         -4.4540    9.8100  -20.1870 C.2   278  LEU278      0.2260
    105  O         -3.7180    8.8770  -19.8740 O.2   278  LEU278     -0.2867
    106  CB        -6.8980    9.2910  -20.0070 C.3   278  LEU278      0.0270
    107  CG        -7.8570    8.8110  -18.9160 C.3   278  LEU278      0.0019
    108  CD1       -9.1120    8.0950  -19.3940 C.3   278  LEU278      0.0001
    109  CD2       -7.1710    8.1130  -17.7410 C.3   278  LEU278      0.0001
    110  N         -1.4290   11.1700  -18.0420 N.3   281  TYR281     -0.1241
    111  CA        -1.3440   10.2050  -16.9550 C.3   281  TYR281      0.1605
    112  C         -0.6510    8.9360  -17.4300 C.2   281  TYR281      0.2264
    113  O          0.2540    8.4330  -16.7740 O.2   281  TYR281     -0.2867
    114  CB        -2.7500    9.8870  -16.4300 C.3   281  TYR281      0.0534
    115  CG        -2.8040    8.8940  -15.2870 C.ar  281  TYR281     -0.0201
    116  CD1       -1.9140    8.9730  -14.2230 C.ar  281  TYR281     -0.0009
    117  CD2       -3.7660    7.8940  -15.2600 C.ar  281  TYR281     -0.0009
    118  CE1       -1.9680    8.0720  -13.1720 C.ar  281  TYR281      0.0417
    119  CE2       -3.8310    6.9910  -14.2130 C.ar  281  TYR281      0.0417
    120  CZ        -2.9280    7.0860  -13.1730 C.ar  281  TYR281      0.1957
    121  OH        -2.9860    6.1870  -12.1340 O.3   281  TYR281     -0.2866
    122  N         -8.4380    2.1730   -8.1140 N.3   302  TYR302     -0.1228
    123  CA        -7.8520    1.9550   -9.4320 C.3   302  TYR302      0.1721
    124  C         -6.3530    2.2560   -9.5210 C.2   302  TYR302      0.2437
    125  O         -5.5910    1.4440  -10.0490 O.2   302  TYR302     -0.2733
    126  CB        -8.6420    2.7060  -10.5110 C.3   302  TYR302      0.0547
    127  CG        -9.8730    1.9590  -10.9750 C.ar  302  TYR302     -0.0200
    128  CD1      -10.0000    1.5430  -12.2920 C.ar  302  TYR302     -0.0009
    129  CD2      -10.8970    1.6490  -10.0890 C.ar  302  TYR302     -0.0009
    130  CE1      -11.1190    0.8540  -12.7170 C.ar  302  TYR302      0.0417
    131  CE2      -12.0180    0.9580  -10.5020 C.ar  302  TYR302      0.0417
    132  CZ       -12.1250    0.5620  -11.8180 C.ar  302  TYR302      0.1957
    133  OH       -13.2400   -0.1260  -12.2400 O.3   302  TYR302     -0.2866
    134  N         -5.9230    3.4140   -8.9940 N.am  303  PRO303     -0.2729
    135  CA        -4.5240    3.8320   -9.1510 C.3   303  PRO303      0.1401
    136  C         -3.4760    2.7700   -8.7940 C.2   303  PRO303      0.2269
    137  O         -2.5050    2.6330   -9.5350 O.2   303  PRO303     -0.2865
    138  CB        -4.4200    5.0490   -8.2280 C.3   303  PRO303      0.0296
    139  CG        -5.7900    5.6200   -8.2310 C.3   303  PRO303      0.0237
    140  CD        -6.7120    4.4240   -8.2660 C.3   303  PRO303      0.0939
    141  N         -3.4740    0.4300  -11.7490 N.3   306  GLU306     -0.1245
    142  CA        -2.9430    1.0640  -12.9440 C.3   306  GLU306      0.1567
    143  C         -1.4220    1.1840  -12.8670 C.2   306  GLU306      0.2260
    144  O         -0.7130    0.8190  -13.8040 O.2   306  GLU306     -0.2867
    145  CB        -3.6010    2.4260  -13.1430 C.3   306  GLU306      0.0388
    146  CG        -5.1050    2.3260  -13.2190 C.3   306  GLU306      0.1160
    147  CD        -5.7980    3.6660  -13.2030 C.2   306  GLU306      0.3649
    148  OE1       -6.8850    3.7650  -13.8140 O.co2 306  GLU306     -0.2457
    149  OE2       -5.2640    4.6110  -12.5830 O.co2 306  GLU306     -0.2457
@<TRIPOS>BOND
     1    31    30    2
     2    30    29    1
     3    28    29    1
     4    29    32    1
     5   104   105    2
     6   104   103    1
     7   106   103    1
     8   106   107    1
     9    23    22    2
    10    26    25    2
    11    22    21    1
    12   103   102    1
    13   108   107    1
    14    32    33    1
    15   107   109    1
    16    25    27   am
    17    25    24    1
    18    35    33    1
    19    21    24    1
    20    21    20    1
    21    33    34    1
    22   110   111    1
    23   112   111    1
    24   112   113    2
    25   111   114    1
    26    96    97    2
    27    96    95    1
    28   114   115    1
    29    98    95    1
    30    98    99    1
    31    95    94    1
    32   101    99    1
    33   115   117   ar
    34   115   116   ar
    35   117   119   ar
    36   100    99    1
    37    88    87    2
    38    94    87   am
    39   116   118   ar
    40   119   120   ar
    41    87    86    1
    42   148   147   ar
    43   144   143    2
    44    92    91    1
    45    92    93    1
    46   146   147    1
    47   146   145    1
    48   147   149   ar
    49   120   118   ar
    50   120   121    1
    51   145   142    1
    52    91    90    1
    53    90    89    1
    54   142   143    1
    55   142   141    1
    56   130   128   ar
    57   130   132   ar
    58    86    89    1
    59    86    85    1
    60   128   127   ar
    61   133   132    1
    62   132   131   ar
    63    85    83   am
    64    75    74    1
    65    83    84    2
    66    83    82    1
    67   127   126    1
    68   127   129   ar
    69    74    76    1
    70    74    71    1
    71   126   123    1
    72   131   129   ar
    73     4     3    2
    74    81    82    1
    75    15    14    2
    76    13    14    1
    77    13    12    1
    78   125   124    2
    79     1     2    1
    80     3    12   am
    81     3     2    1
    82    14    16   am
    83   137   136    2
    84   124   123    1
    85   124   134   am
    86     2     5    1
    87   123   122    1
    88    71    72    1
    89    71    70    1
    90    19    18    2
    91    77    78    1
    92    77    72   am
    93   135   134    1
    94   135   136    1
    95   135   138    1
    96   134   140    1
    97    80    79    2
    98    18    17    1
    99    78    79    1
   100    72    73    2
   101    16    17    1
   102   140   139    1
   103   139   138    1
   104     5     6    1
   105    44    42   ar
   106    44    46   ar
   107    42    41   ar
   108     6     7   ar
   109     6     8   ar
   110    47    46    1
   111     7     9   ar
   112    46    45   ar
   113     8    10   ar
   114    57    56    1
   115     9    11   ar
   116    41    40    1
   117    41    43   ar
   118    10    11   ar
   119    40    37    1
   120    37    36    1
   121    37    38    1
   122    54    55    1
   123    54    53    1
   124    45    43   ar
   125    56    55    2
   126    56    58    1
   127    53    52    1
   128    38    39    2
   129    52    49    1
   130    48    49    1
   131    49    50    1
   132    50    51    2
   133    69    67    1
   134    68    67    1
   135    67    66    2
   136    66    65    1
   137    65    64    1
   138    63    64    1
   139    63    60    1
   140    61    62    2
   141    61    60    1
   142    60    59    1
