@<TRIPOS>MOLECULE
tmp/2x0fB00.pdb
 199 191 0 0 0
SMALL
GASTEIGER

@<TRIPOS>ATOM
      1  N        -13.1540   14.1120   32.8090 N.3    37  PHE37      -0.1227
      2  CA       -14.3300   13.2840   32.5830 C.3    37  PHE37       0.1740
      3  C        -13.9310   11.9900   31.8790 C.2    37  PHE37       0.2635
      4  O        -13.0620   11.2630   32.3610 O.2    37  PHE37      -0.2714
      5  CB       -15.3760   14.0430   31.7590 C.3    37  PHE37       0.0548
      6  CG       -15.8020   15.3540   32.3700 C.ar   37  PHE37      -0.0202
      7  CD1      -16.5460   15.3840   33.5400 C.ar   37  PHE37      -0.0042
      8  CD2      -15.4700   16.5570   31.7660 C.ar   37  PHE37      -0.0042
      9  CE1      -16.9410   16.5880   34.1000 C.ar   37  PHE37      -0.0003
     10  CE2      -15.8650   17.7640   32.3220 C.ar   37  PHE37      -0.0003
     11  CZ       -16.6000   17.7780   33.4900 C.ar   37  PHE37      -0.0000
     12  N        -14.5660   11.7180   30.7410 N.am   38  GLY38      -0.1732
     13  CA       -14.2830   10.5400   29.9350 C.2    38  GLY38       0.1340
     14  C        -13.4270    9.4760   30.5960 C.2    38  GLY38       0.2521
     15  O        -13.7940    8.9190   31.6320 O.2    38  GLY38      -0.2816
     16  N        -10.2380   10.4770   33.8780 N.3    41  SER41      -0.1202
     17  CA       -10.4500   10.2520   35.3050 C.3    41  SER41       0.2020
     18  C        -10.2340    8.7870   35.6600 C.2    41  SER41       0.2619
     19  O         -9.7020    8.4660   36.7220 O.2    41  SER41      -0.2717
     20  CB       -11.8560   10.6890   35.7200 C.3    41  SER41       0.2103
     21  OG       -12.8410    9.9500   35.0210 O.3    41  SER41      -0.2182
     22  N        -10.6500    7.8990   34.7640 N.am   42  THR42      -0.1952
     23  CA       -10.4830    6.4680   34.9770 C.3    42  THR42       0.1897
     24  C         -9.0030    6.0970   34.9820 C.2    42  THR42       0.2313
     25  O         -8.5550    5.2970   35.8040 O.2    42  THR42      -0.2863
     26  CB       -11.2000    5.6520   33.8880 C.3    42  THR42       0.1794
     27  OG1      -12.5230    6.1660   33.6970 O.3    42  THR42      -0.2208
     28  CG2      -11.2820    4.1880   34.2870 C.3    42  THR42       0.0378
     29  N         -7.4770    7.1480   38.1520 N.3    45  LYS45      -0.1245
     30  CA        -7.9290    6.2580   39.2140 C.3    45  LYS45       0.1561
     31  C         -7.0770    4.9950   39.2250 C.2    45  LYS45       0.2260
     32  O         -6.6500    4.5210   40.2790 O.2    45  LYS45      -0.2867
     33  CB        -9.4000    5.8920   39.0000 C.3    45  LYS45       0.0271
     34  CG       -10.0290    5.1020   40.1360 C.3    45  LYS45       0.0035
     35  CD       -10.1520    5.9540   41.3900 C.3    45  LYS45       0.0206
     36  CE       -10.8810    5.2140   42.5030 C.3    45  LYS45       0.1093
     37  NZ       -11.0390    6.0640   43.7190 N.3    45  LYS45      -0.1314
     38  N        -18.5580   -0.2750   36.9750 N.3   200  LYS200     -0.1231
     39  CA       -19.0650   -0.3320   38.3370 C.3   200  LYS200      0.1693
     40  C        -19.9000    0.9120   38.6300 C.2   200  LYS200      0.2592
     41  O        -19.4990    2.0310   38.3050 O.2   200  LYS200     -0.2718
     42  CB       -17.9100   -0.4520   39.3330 C.3   200  LYS200      0.0285
     43  CG       -18.1010   -1.5500   40.3660 C.3   200  LYS200      0.0035
     44  CD       -16.9970   -1.5260   41.4100 C.3   200  LYS200      0.0206
     45  CE       -16.9800   -0.2020   42.1550 C.3   200  LYS200      0.1093
     46  NZ       -15.9410   -0.1730   43.2200 N.3   200  LYS200     -0.1314
     47  N        -21.0620    0.7130   39.2420 N.am  201  ILE201     -0.1966
     48  CA       -21.9780    1.8150   39.5020 C.3   201  ILE201      0.1727
     49  C        -21.2990    2.9530   40.2530 C.2   201  ILE201      0.2616
     50  O        -20.5640    2.7300   41.2130 O.2   201  ILE201     -0.2715
     51  CB       -23.2300    1.3510   40.2780 C.3   201  ILE201      0.0290
     52  CG1      -24.2960    2.4500   40.2750 C.3   201  ILE201      0.0022
     53  CG2      -22.8700    0.9480   41.7030 C.3   201  ILE201      0.0023
     54  CD1      -25.6520    1.9870   40.7600 C.3   201  ILE201      0.0001
     55  N        -21.5400    4.1760   39.7920 N.am  202  ASN202     -0.1972
     56  CA       -21.0330    5.3660   40.4600 C.3   202  ASN202      0.1688
     57  C        -21.3520    5.3290   41.9490 C.2   202  ASN202      0.2292
     58  O        -22.5090    5.1630   42.3410 O.2   202  ASN202     -0.2864
     59  CB       -21.6280    6.6170   39.8210 C.3   202  ASN202      0.1181
     60  CG       -21.1750    7.8900   40.5000 C.2   202  ASN202      0.2629
     61  OD1      -21.5330    8.1590   41.6460 O.2   202  ASN202     -0.2716
     62  ND2      -20.3910    8.6900   39.7900 N.am  202  ASN202     -0.0877
     63  N        -24.1260    7.5610   43.2870 N.3   205  LEU205     -0.1245
     64  CA       -25.4300    7.0890   42.8350 C.3   205  LEU205      0.1561
     65  C        -25.9030    5.8680   43.6240 C.2   205  LEU205      0.2260
     66  O        -27.0920    5.7320   43.9060 O.2   205  LEU205     -0.2867
     67  CB       -25.4090    6.7690   41.3340 C.3   205  LEU205      0.0270
     68  CG       -25.2610    7.9320   40.3500 C.3   205  LEU205      0.0019
     69  CD1      -25.3000    7.4190   38.9220 C.3   205  LEU205      0.0001
     70  CD2      -26.3450    8.9790   40.5680 C.3   205  LEU205      0.0001
     71  N        -30.0540   11.1060   27.3560 N.3   222  TYR222     -0.1241
     72  CA       -28.6300   11.3960   27.4770 C.3   222  TYR222      0.1605
     73  C        -28.1790   12.1710   26.2470 C.2   222  TYR222      0.2264
     74  O        -27.8180   11.5860   25.2260 O.2   222  TYR222     -0.2867
     75  CB       -27.8280   10.1030   27.6090 C.3   222  TYR222      0.0534
     76  CG       -26.3800   10.3130   27.9810 C.ar  222  TYR222     -0.0201
     77  CD1      -26.0320   11.1030   29.0700 C.ar  222  TYR222     -0.0009
     78  CD2      -25.3610    9.7020   27.2610 C.ar  222  TYR222     -0.0009
     79  CE1      -24.7080   11.2940   29.4210 C.ar  222  TYR222      0.0417
     80  CE2      -24.0340    9.8840   27.6070 C.ar  222  TYR222      0.0417
     81  CZ       -23.7140   10.6820   28.6890 C.ar  222  TYR222      0.1957
     82  OH       -22.3970   10.8650   29.0450 O.3   222  TYR222     -0.2866
     83  N        -25.6550   14.5830   24.3810 N.3   224  ARG224     -0.1245
     84  CA       -24.3300   15.1780   24.2940 C.3   224  ARG224      0.1563
     85  C        -23.9850   15.4580   22.8430 C.2   224  ARG224      0.2260
     86  O        -23.3880   14.6270   22.1650 O.2   224  ARG224     -0.2867
     87  CB       -23.2790   14.2740   24.9400 C.3   224  ARG224      0.0307
     88  CG       -23.4390   14.1500   26.4410 C.3   224  ARG224      0.0489
     89  CD       -22.1230   13.8190   27.1080 C.3   224  ARG224      0.2205
     90  NE       -21.6220   12.5110   26.7010 N.pl3 224  ARG224     -0.0865
     91  CZ       -20.4860   11.9820   27.1420 C.cat 224  ARG224      0.5346
     92  NH1      -19.7340   12.6560   28.0050 N.pl3 224  ARG224      0.1354
     93  NH2      -20.1040   10.7810   26.7240 N.pl3 224  ARG224      0.1354
     94  N        -30.0800   15.4260   29.6930 N.3   257  VAL257     -0.1231
     95  CA       -29.0090   15.6130   30.6670 C.3   257  VAL257      0.1692
     96  C        -27.6730   15.1320   30.1010 C.2   257  VAL257      0.2592
     97  O        -27.6390   14.3080   29.1860 O.2   257  VAL257     -0.2718
     98  CB       -29.3150   14.8790   31.9920 C.3   257  VAL257      0.0266
     99  CG1      -30.4990   15.5200   32.6850 C.3   257  VAL257      0.0020
    100  CG2      -29.5910   13.4050   31.7360 C.3   257  VAL257      0.0020
    101  N        -26.5790   15.6600   30.6410 N.am  258  GLY258     -0.1957
    102  CA       -25.2500   15.2380   30.2360 C.3   258  GLY258      0.1869
    103  C        -24.3770   16.3860   29.7680 C.2   258  GLY258      0.2309
    104  O        -23.2440   16.5530   30.2270 O.2   258  GLY258     -0.2863
    105  N        -25.2510   19.1710   32.6310 N.3   277  LYS277     -0.1231
    106  CA       -24.7070   18.1400   33.5030 C.3   277  LYS277      0.1693
    107  C        -25.0660   18.4120   34.9580 C.2   277  LYS277      0.2592
    108  O        -24.5590   19.3540   35.5640 O.2   277  LYS277     -0.2718
    109  CB       -23.1900   18.0300   33.3430 C.3   277  LYS277      0.0285
    110  CG       -22.5510   17.0470   34.3120 C.3   277  LYS277      0.0035
    111  CD       -21.1790   16.5970   33.8400 C.3   277  LYS277      0.0206
    112  CE       -20.6440   15.4830   34.7260 C.3   277  LYS277      0.1093
    113  NZ       -19.4340   14.8400   34.1480 N.3   277  LYS277     -0.1314
    114  N        -25.9470   17.5850   35.5110 N.am  278  LEU278     -0.1966
    115  CA       -26.3780   17.7380   36.8930 C.3   278  LEU278      0.1728
    116  C        -25.3150   17.2090   37.8470 C.2   278  LEU278      0.2617
    117  O        -24.4360   16.4470   37.4500 O.2   278  LEU278     -0.2715
    118  CB       -27.6890   16.9800   37.1260 C.3   278  LEU278      0.0311
    119  CG       -28.8860   17.3200   36.2350 C.3   278  LEU278      0.0022
    120  CD1      -30.0330   16.3360   36.4800 C.3   278  LEU278      0.0001
    121  CD2      -29.3430   18.7580   36.4490 C.3   278  LEU278      0.0001
    122  N        -25.3950   17.6230   39.1060 N.am  279  THR279     -0.1937
    123  CA       -24.5910   17.0070   40.1460 C.3   279  THR279      0.2028
    124  C        -25.0490   15.5600   40.2570 C.2   279  THR279      0.2642
    125  O        -26.1720   15.2350   39.8760 O.2   279  THR279     -0.2714
    126  CB       -24.7950   17.7110   41.4990 C.3   279  THR279      0.1808
    127  OG1      -26.1650   17.5850   41.9050 O.3   279  THR279     -0.2208
    128  CG2      -24.4380   19.1860   41.3900 C.3   279  THR279      0.0379
    129  N        -24.1910   14.6880   40.7700 N.am  280  LEU280     -0.1977
    130  CA       -24.5650   13.2900   40.9180 C.3   280  LEU280      0.1596
    131  C        -25.8060   13.1550   41.7950 C.2   280  LEU280      0.2287
    132  O        -26.5970   12.2250   41.6300 O.2   280  LEU280     -0.2864
    133  CB       -23.4020   12.4710   41.4830 C.3   280  LEU280      0.0297
    134  CG       -22.2180   12.2950   40.5280 C.3   280  LEU280      0.0022
    135  CD1      -21.1200   11.4650   41.1750 C.3   280  LEU280      0.0001
    136  CD2      -22.6700   11.6580   39.2240 C.3   280  LEU280      0.0001
    137  N        -28.8480   14.3510   39.6100 N.3   283  TYR283     -0.1241
    138  CA       -28.9580   13.2790   38.6320 C.3   283  TYR283      0.1605
    139  C        -29.6490   12.0680   39.2550 C.2   283  TYR283      0.2264
    140  O        -30.5530   11.4810   38.6570 O.2   283  TYR283     -0.2867
    141  CB       -27.5650   12.9140   38.1120 C.3   283  TYR283      0.0534
    142  CG       -27.5320   11.8220   37.0650 C.ar  283  TYR283     -0.0201
    143  CD1      -28.4520   11.7960   36.0250 C.ar  283  TYR283     -0.0009
    144  CD2      -26.5590   10.8310   37.1030 C.ar  283  TYR283     -0.0009
    145  CE1      -28.4170   10.8000   35.0680 C.ar  283  TYR283      0.0417
    146  CE2      -26.5130    9.8360   36.1510 C.ar  283  TYR283      0.0417
    147  CZ       -27.4430    9.8240   35.1360 C.ar  283  TYR283      0.1957
    148  OH       -27.3910    8.8310   34.1880 O.3   283  TYR283     -0.2866
    149  N        -21.1240    2.0380   27.7280 N.3   303  SER303     -0.1202
    150  CA       -21.3420    3.3470   28.3490 C.3   303  SER303      0.2020
    151  C        -22.1270    3.1990   29.6590 C.2   303  SER303      0.2619
    152  O        -22.7220    2.1520   29.9160 O.2   303  SER303     -0.2717
    153  CB       -22.0200    4.3320   27.3880 C.3   303  SER303      0.2103
    154  OG       -23.4060    4.0720   27.2610 O.3   303  SER303     -0.2182
    155  N        -22.1250    4.2420   30.4840 N.am  304  TYR304     -0.1962
    156  CA       -22.6540    4.1290   31.8460 C.3   304  TYR304      0.1756
    157  C        -24.1350    4.4830   32.0290 C.2   304  TYR304      0.2461
    158  O        -24.8640    3.7500   32.7030 O.2   304  TYR304     -0.2730
    159  CB       -21.7820    4.9140   32.8310 C.3   304  TYR304      0.0574
    160  CG       -20.3480    4.4350   32.8560 C.ar  304  TYR304     -0.0198
    161  CD1      -19.9730    3.3420   33.6250 C.ar  304  TYR304     -0.0009
    162  CD2      -19.3720    5.0670   32.0970 C.ar  304  TYR304     -0.0009
    163  CE1      -18.6620    2.8970   33.6430 C.ar  304  TYR304      0.0417
    164  CE2      -18.0620    4.6320   32.1080 C.ar  304  TYR304      0.0417
    165  CZ       -17.7100    3.5470   32.8810 C.ar  304  TYR304      0.1957
    166  OH       -16.3990    3.1150   32.8900 O.3   304  TYR304     -0.2866
    167  N        -24.5860    5.6020   31.4360 N.am  305  PRO305     -0.2727
    168  CA       -25.9790    6.0290   31.6160 C.3   305  PRO305      0.1402
    169  C        -27.0310    4.9370   31.3560 C.2   305  PRO305      0.2269
    170  O        -27.9550    4.8150   32.1550 O.2   305  PRO305     -0.2865
    171  CB       -26.1150    7.1920   30.6300 C.3   305  PRO305      0.0296
    172  CG       -24.7400    7.7550   30.5430 C.3   305  PRO305      0.0237
    173  CD       -23.8210    6.5660   30.6220 C.3   305  PRO305      0.0939
    174  N        -26.9410    2.8670   34.4340 N.3   308  GLU308     -0.1231
    175  CA       -27.4570    3.6440   35.5560 C.3   308  GLU308      0.1699
    176  C        -28.9810    3.7650   35.4930 C.2   308  GLU308      0.2592
    177  O        -29.6680    3.5650   36.4930 O.2   308  GLU308     -0.2718
    178  CB       -26.8040    5.0280   35.5810 C.3   308  GLU308      0.0402
    179  CG       -25.2840    4.9760   35.6560 C.3   308  GLU308      0.1161
    180  CD       -24.6310    6.3250   35.4200 C.2   308  GLU308      0.3649
    181  OE1      -23.4230    6.4580   35.7110 O.co2 308  GLU308     -0.2457
    182  OE2      -25.3210    7.2510   34.9420 O.co2 308  GLU308     -0.2457
    183  N        -29.5040    4.0830   34.3130 N.am  309  MET309     -0.1979
    184  CA       -30.9440    4.2130   34.1290 C.3   309  MET309      0.1605
    185  C        -31.6830    2.9110   34.4320 C.2   309  MET309      0.2287
    186  O        -32.7110    2.9160   35.1080 O.2   309  MET309     -0.2864
    187  CB       -31.2650    4.6770   32.7100 C.3   309  MET309      0.0413
    188  CG       -30.8150    6.0930   32.3940 C.3   309  MET309      0.0598
    189  SD       -31.0660    6.5220   30.6530 S.3   309  MET309     -0.1393
    190  CE       -30.5320    8.2270   30.6650 C.3   309  MET309      0.0692
    191  N        -12.0050   -3.5700   41.5610 N.3   371  GLU371     -0.1245
    192  CA       -12.0870   -3.7400   40.1160 C.3   371  GLU371      0.1567
    193  C        -10.7020   -3.6760   39.4870 C.2   371  GLU371      0.2260
    194  O        -10.5170   -4.0550   38.3290 O.2   371  GLU371     -0.2867
    195  CB       -13.0040   -2.6810   39.4960 C.3   371  GLU371      0.0388
    196  CG       -12.4560   -1.2650   39.5570 C.3   371  GLU371      0.1160
    197  CD       -13.5000   -0.2220   39.2030 C.2   371  GLU371      0.3649
    198  OE1      -14.4390   -0.0280   40.0030 O.co2 371  GLU371     -0.2457
    199  OE2      -13.3800    0.4060   38.1290 O.co2 371  GLU371     -0.2457
@<TRIPOS>BOND
     1    86    85    2
     2    85    84    1
     3    84    83    1
     4    84    87    1
     5    87    88    1
     6    74    73    2
     7    73    72    1
     8    88    89    1
     9    90    89    1
    10    90    91    2
    11    93    91    1
    12    91    92    1
    13   154   153    1
    14    78    80   ar
    15    78    76   ar
    16    71    72    1
    17   153   150    1
    18    72    75    1
    19    80    81   ar
    20    75    76    1
    21   149   150    1
    22    76    77   ar
    23   150   151    1
    24    81    82    1
    25    81    79   ar
    26    77    79   ar
    27    97    96    2
    28   151   152    2
    29   151   155   am
    30    94    95    1
    31   103   104    2
    32   103   102    1
    33    13    14    1
    34    13    12    2
    35    96   101   am
    36    96    95    1
    37   102   101    1
    38   155   156    1
    39   172   173    1
    40   172   171    1
    41    14    15    2
    42   173   167    1
    43   171   168    1
    44   189   190    1
    45   189   188    1
    46    95    98    1
    47    12     3    1
    48   169   168    1
    49   169   170    2
    50   167   168    1
    51   167   157   am
    52   100    98    1
    53     5     6    1
    54     5     2    1
    55     8    10   ar
    56     8     6   ar
    57   156   157    1
    58   156   159    1
    59     3     4    2
    60     3     2    1
    61    98    99    1
    62   157   158    2
    63   162   164   ar
    64   162   160   ar
    65   164   165   ar
    66    10    11   ar
    67     6     7   ar
    68   188   187    1
    69     2     1    1
    70   105   106    1
    71   187   184    1
    72   159   160    1
    73   160   161   ar
    74   165   166    1
    75   165   163   ar
    76   109   106    1
    77   109   110    1
    78    11     9   ar
    79   106   107    1
    80     7     9   ar
    81   161   163   ar
    82    27    26    1
    83   111   110    1
    84   111   112    1
    85    16    17    1
    86    26    28    1
    87    26    23    1
    88   184   183    1
    89   184   185    1
    90   113   112    1
    91   148   147    1
    92   183   176   am
    93   185   186    2
    94   174   175    1
    95    22    23    1
    96    22    18   am
    97   182   180   ar
    98   107   114   am
    99   107   108    2
   100    23    24    1
   101    24    25    2
   102    21    20    1
   103   145   147   ar
   104   145   143   ar
   105   147   146   ar
   106    17    18    1
   107    17    20    1
   108   180   179    1
   109   180   181   ar
   110   176   175    1
   111   176   177    2
   112   114   115    1
   113   175   178    1
   114   178   179    1
   115    18    19    2
   116   143   142   ar
   117   146   144   ar
   118   119   121    1
   119   119   120    1
   120   119   118    1
   121   115   118    1
   122   115   116    1
   123    38    39    1
   124   142   144   ar
   125   142   141    1
   126   117   116    2
   127   116   122   am
   128   141   138    1
   129   199   197   ar
   130    29    30    1
   131    41    40    2
   132   194   193    2
   133    39    40    1
   134    39    42    1
   135    40    47   am
   136   138   139    1
   137   138   137    1
   138   140   139    2
   139    69    68    1
   140    33    30    1
   141    33    34    1
   142   122   123    1
   143   197   196    1
   144   197   198   ar
   145    30    31    1
   146   136   134    1
   147    31    32    2
   148    47    48    1
   149    42    43    1
   150   193   192    1
   151   195   196    1
   152   195   192    1
   153    48    49    1
   154    48    51    1
   155    62    60   am
   156    55    49   am
   157    55    56    1
   158    59    56    1
   159    59    60    1
   160   125   124    2
   161   192   191    1
   162    34    35    1
   163   123   124    1
   164   123   126    1
   165    49    50    2
   166   124   129   am
   167    52    51    1
   168    52    54    1
   169    51    53    1
   170    68    70    1
   171    68    67    1
   172    43    44    1
   173    56    57    1
   174    60    61    2
   175   134   135    1
   176   134   133    1
   177   129   130    1
   178   130   133    1
   179   130   131    1
   180    67    64    1
   181   128   126    1
   182    35    36    1
   183    44    45    1
   184   126   127    1
   185   132   131    2
   186    57    58    2
   187    45    46    1
   188    36    37    1
   189    64    63    1
   190    64    65    1
   191    65    66    2
