@<TRIPOS>MOLECULE
tmp/2x0hB00.pdb
 181 175 0 0 0
SMALL
GASTEIGER

@<TRIPOS>ATOM
      1  N         -4.6650   71.9110   70.6630 N.3   132  GLY132     -0.1210
      2  CA        -5.2350   73.2050   70.4230 C.3   132  GLY132      0.1956
      3  C         -4.8880   73.8670   69.1070 C.2   132  GLY132      0.2612
      4  O         -5.0400   75.0300   68.9780 O.2   132  GLY132     -0.2717
      5  N         -4.4220   73.0750   68.1620 N.am  133  PHE133     -0.1962
      6  CA        -4.0000   73.4990   66.8600 C.3   133  PHE133      0.1771
      7  C         -5.1070   73.4950   65.7990 C.2   133  PHE133      0.2619
      8  O         -6.1340   72.9400   65.9960 O.2   133  PHE133     -0.2715
      9  CB        -2.8490   72.6060   66.4040 C.3   133  PHE133      0.0574
     10  CG        -3.1890   71.1640   66.3470 C.ar  133  PHE133     -0.0200
     11  CD1       -3.8990   70.6450   65.2970 C.ar  133  PHE133     -0.0042
     12  CD2       -2.8230   70.3130   67.3470 C.ar  133  PHE133     -0.0042
     13  CE1       -4.2150   69.3080   65.2650 C.ar  133  PHE133     -0.0003
     14  CE2       -3.1460   68.9800   67.2980 C.ar  133  PHE133     -0.0003
     15  CZ        -3.8330   68.4940   66.2670 C.ar  133  PHE133     -0.0000
     16  N         -4.8430   74.1120   64.6660 N.am  134  TYR134     -0.1974
     17  CA        -5.7110   74.0560   63.4950 C.3   134  TYR134      0.1639
     18  C         -5.3130   72.8580   62.6230 C.2   134  TYR134      0.2290
     19  O         -4.1210   72.5980   62.4160 O.2   134  TYR134     -0.2864
     20  CB        -5.5640   75.3260   62.6470 C.3   134  TYR134      0.0560
     21  CG        -6.1040   76.5480   63.3050 C.ar  134  TYR134     -0.0198
     22  CD1       -7.4140   76.9880   63.0540 C.ar  134  TYR134     -0.0009
     23  CD2       -5.3260   77.2630   64.2090 C.ar  134  TYR134     -0.0009
     24  CE1       -7.9150   78.1280   63.6880 C.ar  134  TYR134      0.0417
     25  CE2       -5.8340   78.3840   64.8680 C.ar  134  TYR134      0.0417
     26  CZ        -7.1090   78.8120   64.5970 C.ar  134  TYR134      0.1957
     27  OH        -7.5660   79.9140   65.2500 O.3   134  TYR134     -0.2866
     28  N         -9.0410   73.1750   67.2940 N.3   163  LYS163     -0.1245
     29  CA        -9.7570   74.3140   66.7090 C.3   163  LYS163      0.1561
     30  C        -10.8430   73.9420   65.7130 C.2   163  LYS163      0.2260
     31  O        -11.8430   74.6800   65.5930 O.2   163  LYS163     -0.2867
     32  CB        -8.7600   75.2760   66.0250 C.3   163  LYS163      0.0271
     33  CG        -7.9000   76.0240   67.0510 C.3   163  LYS163      0.0035
     34  CD        -8.6570   77.3210   67.4990 C.3   163  LYS163      0.0206
     35  CE        -7.7720   78.2730   68.3120 C.3   163  LYS163      0.1093
     36  NZ        -7.3010   77.6490   69.5750 N.3   163  LYS163     -0.1314
     37  N         -9.1510   83.0920   72.1600 N.3   239  ASP239     -0.1225
     38  CA        -8.0800   83.3830   71.2140 C.3   239  ASP239      0.1805
     39  C         -8.5460   83.3910   69.7430 C.2   239  ASP239      0.2597
     40  O         -9.3190   82.4900   69.3100 O.2   239  ASP239     -0.2718
     41  CB        -6.9380   82.3440   71.3550 C.3   239  ASP239      0.1424
     42  CG        -7.4160   80.9170   71.1180 C.2   239  ASP239      0.3668
     43  OD1       -8.5170   80.5920   71.6020 O.co2 239  ASP239     -0.2456
     44  OD2       -6.6750   80.0830   70.5160 O.co2 239  ASP239     -0.2456
     45  N         -8.0330   84.3710   68.9800 N.am  240  ASP240     -0.1974
     46  CA        -8.1770   84.4250   67.5150 C.3   240  ASP240      0.1709
     47  C         -9.5950   84.6890   67.0750 C.2   240  ASP240      0.2293
     48  O        -10.0500   84.0540   66.1290 O.2   240  ASP240     -0.2864
     49  CB        -7.7470   83.0960   66.8500 C.3   240  ASP240      0.1436
     50  CG        -6.2620   82.7490   67.0790 C.2   240  ASP240      0.3671
     51  OD1       -5.4480   83.6950   67.2840 O.co2 240  ASP240     -0.2456
     52  OD2       -5.9360   81.5160   67.0280 O.co2 240  ASP240     -0.2456
     53  N         -8.1120   81.0540   78.2120 N.3   275  CYS275     -0.1235
     54  CA        -7.1190   81.6060   77.2960 C.3   275  CYS275      0.1677
     55  C         -7.5830   82.9830   76.8520 C.2   275  CYS275      0.2270
     56  O         -8.6680   83.1090   76.2720 O.2   275  CYS275     -0.2867
     57  CB        -6.9090   80.7280   76.0850 C.3   275  CYS275      0.0956
     58  SG        -5.5750   81.3080   75.0170 S.3   275  CYS275     -0.0801
     59  N         -3.1320   87.0660   74.0930 N.3   279  TYR279     -0.1241
     60  CA        -2.4400   85.9330   74.6550 C.3   279  TYR279      0.1605
     61  C         -0.9410   85.8890   74.4270 C.2   279  TYR279      0.2264
     62  O         -0.2970   84.8860   74.7380 O.2   279  TYR279     -0.2867
     63  CB        -3.0350   84.6270   74.1210 C.3   279  TYR279      0.0534
     64  CG        -3.0000   84.4660   72.6290 C.ar  279  TYR279     -0.0201
     65  CD1       -1.8370   84.0620   71.9800 C.ar  279  TYR279     -0.0009
     66  CD2       -4.1420   84.6770   71.8600 C.ar  279  TYR279     -0.0009
     67  CE1       -1.8030   83.8680   70.5790 C.ar  279  TYR279      0.0417
     68  CE2       -4.1200   84.5000   70.4600 C.ar  279  TYR279      0.0417
     69  CZ        -2.9410   84.1040   69.8350 C.ar  279  TYR279      0.1957
     70  OH        -2.8870   83.9410   68.4590 O.3   279  TYR279     -0.2866
     71  N          0.8160   90.9240   70.6780 N.3   283  TRP283     -0.1241
     72  CA        -0.5890   91.0950   70.3460 C.3   283  TRP283      0.1605
     73  C         -1.3500   91.9800   71.3230 C.2   283  TRP283      0.2264
     74  O         -2.4760   92.3800   71.0430 O.2   283  TRP283     -0.2867
     75  CB        -1.2940   89.7380   70.2290 C.3   283  TRP283      0.0550
     76  CG        -1.0760   89.0580   68.8870 C.ar  283  TRP283      0.0003
     77  CD1        0.0800   89.0480   68.1310 C.ar  283  TRP283      0.0946
     78  CD2       -2.0390   88.2840   68.1500 C.ar  283  TRP283      0.0152
     79  NE1       -0.1170   88.3340   66.9710 N.ar  283  TRP283     -0.2442
     80  CE2       -1.3980   87.8420   66.9590 C.ar  283  TRP283      0.0810
     81  CE3       -3.3850   87.9370   68.3710 C.ar  283  TRP283      0.0012
     82  CZ2       -2.0550   87.0580   65.9920 C.ar  283  TRP283      0.0191
     83  CZ3       -4.0400   87.1400   67.4060 C.ar  283  TRP283      0.0001
     84  CH2       -3.3640   86.7120   66.2320 C.ar  283  TRP283      0.0015
     85  N         -3.9690   81.7060   80.4620 N.3   305  MET305     -0.1245
     86  CA        -2.9330   81.2060   79.5360 C.3   305  MET305      0.1570
     87  C         -2.1650   82.3020   78.8000 C.2   305  MET305      0.2261
     88  O         -2.6450   83.4630   78.6820 O.2   305  MET305     -0.2867
     89  CB        -3.5240   80.1950   78.5400 C.3   305  MET305      0.0387
     90  CG        -4.1100   79.0070   79.2580 C.3   305  MET305      0.0595
     91  SD        -4.9520   77.9250   78.1840 S.3   305  MET305     -0.1393
     92  CE        -3.7150   76.5930   78.1500 C.3   305  MET305      0.0692
     93  N          1.2290   82.6920   75.6370 N.3   307  THR307     -0.1218
     94  CA         2.1270   81.9700   74.7260 C.3   307  THR307      0.1862
     95  C          3.5230   82.5670   74.6880 C.2   307  THR307      0.2287
     96  O          4.4120   82.0000   74.0460 O.2   307  THR307     -0.2866
     97  CB         1.5890   81.9410   73.2640 C.3   307  THR307      0.1770
     98  OG1        1.6740   83.2650   72.7030 O.3   307  THR307     -0.2211
     99  CG2        0.1680   81.4960   73.2480 C.3   307  THR307      0.0375
    100  N          3.3250   84.9330   69.1640 N.3   311  VAL311     -0.1231
    101  CA         2.4620   83.7790   69.0270 C.3   311  VAL311      0.1692
    102  C          3.3350   82.5590   69.2110 C.2   311  VAL311      0.2591
    103  O          2.9360   81.6060   69.8950 O.2   311  VAL311     -0.2718
    104  CB         1.7390   83.6940   67.6540 C.3   311  VAL311      0.0266
    105  CG1        0.8810   82.4070   67.5850 C.3   311  VAL311      0.0020
    106  CG2        0.8760   84.9180   67.4400 C.3   311  VAL311      0.0020
    107  N          4.5200   82.5930   68.6080 N.am  312  ILE312     -0.1980
    108  CA         5.4610   81.5160   68.7300 C.3   312  ILE312      0.1595
    109  C          6.6960   82.0780   69.3720 C.2   312  ILE312      0.2287
    110  O          7.4200   82.8460   68.7460 O.2   312  ILE312     -0.2864
    111  CB         5.8490   80.9000   67.3300 C.3   312  ILE312      0.0276
    112  CG1        4.6640   80.9150   66.3450 C.3   312  ILE312      0.0022
    113  CG2        6.4150   79.4610   67.5240 C.3   312  ILE312      0.0022
    114  CD1        3.5330   79.8830   66.7150 C.3   312  ILE312      0.0001
    115  N          1.1590   78.3900   77.4240 N.3   334  TRP334     -0.1241
    116  CA         0.7890   77.6620   76.2230 C.3   334  TRP334      0.1605
    117  C          1.9650   77.9080   75.2920 C.2   334  TRP334      0.2264
    118  O          2.1300   78.9630   74.7400 O.2   334  TRP334     -0.2867
    119  CB        -0.5630   78.1690   75.6850 C.3   334  TRP334      0.0550
    120  CG        -1.0870   77.7380   74.3670 C.ar  334  TRP334      0.0003
    121  CD1       -0.3880   77.4590   73.2530 C.ar  334  TRP334      0.0946
    122  CD2       -2.4450   77.5370   74.0300 C.ar  334  TRP334      0.0152
    123  NE1       -1.2100   77.1090   72.2510 N.ar  334  TRP334     -0.2442
    124  CE2       -2.4870   77.1450   72.7010 C.ar  334  TRP334      0.0810
    125  CE3       -3.6350   77.6700   74.7170 C.ar  334  TRP334      0.0012
    126  CZ2       -3.6610   76.8820   72.0520 C.ar  334  TRP334      0.0191
    127  CZ3       -4.7740   77.3910   74.0880 C.ar  334  TRP334      0.0001
    128  CH2       -4.7930   76.9950   72.7670 C.ar  334  TRP334      0.0015
    129  N          3.6970   77.2500   71.9810 N.3   336  ASN336     -0.1240
    130  CA         3.4470   76.8940   70.6110 C.3   336  ASN336      0.1653
    131  C          4.5790   76.2040   69.8710 C.2   336  ASN336      0.2266
    132  O          5.0650   76.7010   68.9210 O.2   336  ASN336     -0.2867
    133  CB         2.9240   78.0690   69.8220 C.3   336  ASN336      0.1155
    134  CG         1.4650   78.2790   69.9970 C.2   336  ASN336      0.2627
    135  OD1        0.6960   77.3780   69.9680 O.2   336  ASN336     -0.2716
    136  ND2        1.0910   79.4890   70.1800 N.am  336  ASN336     -0.0877
    137  N          3.8090   72.6990   67.4160 N.3   339  VAL339     -0.1245
    138  CA         2.6830   72.9960   66.5190 C.3   339  VAL339      0.1561
    139  C          3.1790   73.4650   65.1550 C.2   339  VAL339      0.2260
    140  O          4.0320   74.3690   65.0560 O.2   339  VAL339     -0.2867
    141  CB         1.6510   73.9930   67.1060 C.3   339  VAL339      0.0252
    142  CG1        2.3030   75.3120   67.4780 C.3   339  VAL339      0.0019
    143  CG2        0.5720   74.2640   66.0630 C.3   339  VAL339      0.0019
    144  N          0.8220   73.8780   62.3990 N.3   341  ASP341     -0.1225
    145  CA        -0.3780   74.2240   61.5840 C.3   341  ASP341      0.1805
    146  C         -0.2090   75.3830   60.6220 C.2   341  ASP341      0.2597
    147  O         -1.0700   75.5920   59.7670 O.2   341  ASP341     -0.2718
    148  CB        -1.6600   74.3870   62.4340 C.3   341  ASP341      0.1424
    149  CG        -1.5500   75.4340   63.5120 C.2   341  ASP341      0.3668
    150  OD1       -0.6750   76.3380   63.4190 O.co2 341  ASP341     -0.2456
    151  OD2       -2.3740   75.3500   64.4630 O.co2 341  ASP341     -0.2456
    152  N          0.9120   76.1020   60.7320 N.am  342  TYR342     -0.1976
    153  CA         1.2320   77.1890   59.8160 C.3   342  TYR342      0.1639
    154  C          2.4490   76.8310   58.9480 C.2   342  TYR342      0.2290
    155  O          2.8640   77.5930   58.1180 O.2   342  TYR342     -0.2864
    156  CB         1.4690   78.5220   60.5860 C.3   342  TYR342      0.0560
    157  CG         2.5860   78.4370   61.6050 C.ar  342  TYR342     -0.0198
    158  CD1        2.4000   77.7620   62.8380 C.ar  342  TYR342     -0.0009
    159  CD2        3.8530   78.9810   61.3310 C.ar  342  TYR342     -0.0009
    160  CE1        3.4310   77.6610   63.7790 C.ar  342  TYR342      0.0417
    161  CE2        4.8800   78.8990   62.2600 C.ar  342  TYR342      0.0417
    162  CZ         4.6670   78.2430   63.4760 C.ar  342  TYR342      0.1957
    163  OH         5.7050   78.1580   64.3760 O.3   342  TYR342     -0.2866
    164  N          1.5410   72.8720   72.5840 N.3   369  ASN369     -0.1240
    165  CA         0.6500   72.7150   71.4460 C.3   369  ASN369      0.1653
    166  C          1.4380   72.0270   70.3420 C.2   369  ASN369      0.2266
    167  O          2.3980   72.5840   69.8110 O.2   369  ASN369     -0.2867
    168  CB         0.1360   74.0730   70.9680 C.3   369  ASN369      0.1155
    169  CG        -1.0070   73.9480   69.9790 C.2   369  ASN369      0.2627
    170  OD1       -1.7410   72.9600   69.9830 O.2   369  ASN369     -0.2716
    171  ND2       -1.1620   74.9530   69.1250 N.am  369  ASN369     -0.0877
    172  N          5.5560   83.9210   61.1100 N.3   430  HIS430     -0.1241
    173  CA         5.9790   84.2130   62.4870 C.3   430  HIS430      0.1621
    174  C          7.4820   84.4720   62.6400 C.2   430  HIS430      0.2264
    175  O          7.9230   84.8460   63.7200 O.2   430  HIS430     -0.2867
    176  CB         5.5840   83.0710   63.4490 C.3   430  HIS430      0.0745
    177  CG         4.1150   82.8130   63.5090 C.ar  430  HIS430      0.0817
    178  ND1        3.2010   83.7920   63.8320 N.ar  430  HIS430     -0.2268
    179  CD2        3.3930   81.6930   63.2690 C.ar  430  HIS430      0.1154
    180  CE1        1.9800   83.2790   63.8130 C.ar  430  HIS430      0.1986
    181  NE2        2.0690   82.0060   63.4700 N.ar  430  HIS430     -0.2212
@<TRIPOS>BOND
     1   155   154    2
     2   154   153    1
     3   147   146    2
     4   153   156    1
     5   153   152    1
     6   156   157    1
     7   146   152   am
     8   146   145    1
     9   172   173    1
    10   159   157   ar
    11   159   161   ar
    12   145   144    1
    13   145   148    1
    14   157   158   ar
    15   161   162   ar
    16    19    18    2
    17   148   149    1
    18   173   174    1
    19   173   176    1
    20    18    17    1
    21   174   175    2
    22    20    21    1
    23    20    17    1
    24   158   160   ar
    25    22    21   ar
    26    22    24   ar
    27   179   181   ar
    28   179   177   ar
    29    21    23   ar
    30   150   149   ar
    31   176   177    1
    32   181   180   ar
    33   162   160   ar
    34   162   163    1
    35    17    16    1
    36   177   178   ar
    37   149   151   ar
    38    24    26   ar
    39   180   178   ar
    40    23    25   ar
    41    26    25   ar
    42    26    27    1
    43    16     7   am
    44   140   139    2
    45   139   138    1
    46    13    11   ar
    47    13    15   ar
    48    11    10   ar
    49    31    30    2
    50    30    29    1
    51     7     8    2
    52     7     6    1
    53    82    84   ar
    54    82    80   ar
    55    32    29    1
    56    32    33    1
    57   143   141    1
    58    48    47    2
    59    84    83   ar
    60    15    14   ar
    61   112   114    1
    62   112   111    1
    63    10     9    1
    64    10    12   ar
    65     9     6    1
    66   138   141    1
    67   138   137    1
    68    29    28    1
    69    49    50    1
    70    49    46    1
    71     6     5    1
    72    80    79   ar
    73    80    78   ar
    74    79    77   ar
    75    52    50   ar
    76    33    34    1
    77    47    46    1
    78    50    51   ar
    79   141   142    1
    80    14    12   ar
    81   111   113    1
    82   111   108    1
    83    83    81   ar
    84   106   104    1
    85    34    35    1
    86    46    45    1
    87   105   104    1
    88   104   101    1
    89    77    76   ar
    90    78    81   ar
    91    78    76   ar
    92     5     3   am
    93    35    36    1
    94    70    69    1
    95   107   108    1
    96   107   102   am
    97   108   109    1
    98   110   109    2
    99    76    75    1
   100   132   131    2
   101     4     3    2
   102    45    39   am
   103   101   100    1
   104   101   102    1
   105     3     2    1
   106   171   169   am
   107   102   103    2
   108    40    39    2
   109    39    38    1
   110   167   166    2
   111   133   134    1
   112   133   130    1
   113    69    68   ar
   114    69    67   ar
   115   131   130    1
   116   135   134    2
   117   169   170    2
   118   169   168    1
   119   134   136   am
   120    75    72    1
   121   166   165    1
   122    72    71    1
   123    72    73    1
   124     2     1    1
   125    68    66   ar
   126    44    42   ar
   127    67    65   ar
   128   130   129    1
   129   168   165    1
   130    74    73    2
   131    42    41    1
   132    42    43   ar
   133    38    41    1
   134    38    37    1
   135   165   164    1
   136    66    64   ar
   137    65    64   ar
   138   126   124   ar
   139   126   128   ar
   140   123   124   ar
   141   123   121   ar
   142    64    63    1
   143   124   122   ar
   144    98    97    1
   145   128   127   ar
   146    99    97    1
   147   121   120   ar
   148    97    94    1
   149   122   120   ar
   150   122   125   ar
   151    96    95    2
   152   127   125   ar
   153    59    60    1
   154    63    60    1
   155   120   119    1
   156    61    60    1
   157    61    62    2
   158    95    94    1
   159    94    93    1
   160   118   117    2
   161    58    57    1
   162   117   116    1
   163   119   116    1
   164    57    54    1
   165   116   115    1
   166    56    55    2
   167    55    54    1
   168    54    53    1
   169    92    91    1
   170    91    90    1
   171    89    90    1
   172    89    86    1
   173    88    87    2
   174    87    86    1
   175    86    85    1
