@<TRIPOS>MOLECULE
tmp/2x0pA00.pdb
 163 156 0 0 0
SMALL
GASTEIGER

@<TRIPOS>ATOM
      1  N         24.1950    6.9400  -10.3950 N.3   155  GLY155     -0.1210
      2  CA        25.2790    7.5030  -11.1880 C.3   155  GLY155      0.1956
      3  C         24.7070    8.0690  -12.4860 C.2   155  GLY155      0.2612
      4  O         23.4970    8.3290  -12.5750 O.2   155  GLY155     -0.2717
      5  N         25.5710    8.2890  -13.4810 N.am  156  HIS156     -0.1962
      6  CA        25.1160    8.7730  -14.7890 C.3   156  HIS156      0.1772
      7  C         24.0530    7.8110  -15.3650 C.2   156  HIS156      0.2462
      8  O         24.3080    6.6070  -15.5190 O.2   156  HIS156     -0.2730
      9  CB        26.2930    8.9340  -15.7660 C.3   156  HIS156      0.0785
     10  CG        25.9540    9.7240  -16.9910 C.ar  156  HIS156      0.0821
     11  ND1       25.0200    9.3000  -17.9180 N.ar  156  HIS156     -0.2267
     12  CD2       26.4270   10.9120  -17.4470 C.ar  156  HIS156      0.1154
     13  CE1       24.9240   10.1960  -18.8850 C.ar  156  HIS156      0.1986
     14  NE2       25.7730   11.1790  -18.6300 N.ar  156  HIS156     -0.2212
     15  N         22.8590    8.3350  -15.6700 N.am  157  PRO157     -0.2727
     16  CA        21.6890    7.5000  -16.0270 C.3   157  PRO157      0.1402
     17  C         21.6730    6.8790  -17.4450 C.2   157  PRO157      0.2269
     18  O         20.8060    6.0410  -17.7380 O.2   157  PRO157     -0.2865
     19  CB        20.5230    8.4640  -15.8490 C.3   157  PRO157      0.0296
     20  CG        21.1010    9.8080  -16.1600 C.3   157  PRO157      0.0237
     21  CD        22.5370    9.7770  -15.6950 C.3   157  PRO157      0.0939
     22  N         28.9940    2.9580  -15.7480 N.3   162  ASN162     -0.1225
     23  CA        29.1040    4.3380  -15.2720 C.3   162  ASN162      0.1785
     24  C         29.8670    4.5090  -13.9520 C.2   162  ASN162      0.2597
     25  O         30.2370    5.6320  -13.5780 O.2   162  ASN162     -0.2718
     26  CB        27.7170    4.9910  -15.1930 C.3   162  ASN162      0.1169
     27  CG        26.8240    4.3820  -14.1080 C.2   162  ASN162      0.2627
     28  OD1       27.0940    3.2950  -13.5820 O.2   162  ASN162     -0.2716
     29  ND2       25.7400    5.0900  -13.7710 N.am  162  ASN162     -0.0877
     30  N         30.1250    3.4010  -13.2630 N.am  163  ASN163     -0.1974
     31  CA        30.6710    3.4790  -11.9030 C.3   163  ASN163      0.1688
     32  C         31.9270    2.6370  -11.7030 C.2   163  ASN163      0.2292
     33  O         32.0580    1.9880  -10.6920 O.2   163  ASN163     -0.2864
     34  CB        29.5970    3.0740  -10.8750 C.3   163  ASN163      0.1181
     35  CG        28.5620    4.1730  -10.6230 C.2   163  ASN163      0.2629
     36  OD1       28.9130    5.3470  -10.4880 O.2   163  ASN163     -0.2716
     37  ND2       27.2830    3.7940  -10.5360 N.am  163  ASN163     -0.0877
     38  N         35.3310    3.1790  -11.1380 N.3   165  ARG165     -0.1245
     39  CA        36.3620    3.4150  -10.1020 C.3   165  ARG165      0.1563
     40  C         37.5560    2.4320  -10.1880 C.2   165  ARG165      0.2260
     41  O         38.0360    1.9100   -9.1670 O.2   165  ARG165     -0.2867
     42  CB        35.7420    3.3930   -8.7030 C.3   165  ARG165      0.0307
     43  CG        34.8130    4.5880   -8.3830 C.3   165  ARG165      0.0489
     44  CD        33.4570    4.4740   -9.1080 C.3   165  ARG165      0.2205
     45  NE        32.4440    5.4070   -8.6130 N.pl3 165  ARG165     -0.0865
     46  CZ        31.8350    5.2990   -7.4360 C.cat 165  ARG165      0.5346
     47  NH1       32.1490    4.3090   -6.5950 N.pl3 165  ARG165      0.1354
     48  NH2       30.9190    6.2000   -7.0850 N.pl3 165  ARG165      0.1354
     49  N         29.8020   13.1190   -5.4290 N.3   277  GLN277     -0.1231
     50  CA        29.5530   12.1100   -6.4710 C.3   277  GLN277      0.1698
     51  C         30.6140   12.0690   -7.5690 C.2   277  GLN277      0.2593
     52  O         30.8280   11.0240   -8.1860 O.2   277  GLN277     -0.2718
     53  CB        28.1500   12.2710   -7.0520 C.3   277  GLN277      0.0381
     54  CG        27.0640   11.7270   -6.1300 C.3   277  GLN277      0.0905
     55  CD        27.2240   10.2180   -5.8900 C.2   277  GLN277      0.2608
     56  OE1       27.5430    9.4520   -6.8320 O.2   277  GLN277     -0.2717
     57  NE2       27.0430    9.7870   -4.6300 N.am  277  GLN277     -0.0878
     58  N         31.3040   13.1930   -7.7880 N.am  278  SER278     -0.1938
     59  CA        32.4240   13.2330   -8.7410 C.3   278  SER278      0.2055
     60  C         33.6840   12.5040   -8.2490 C.2   278  SER278      0.2643
     61  O         34.6440   12.3430   -9.0060 O.2   278  SER278     -0.2714
     62  CB        32.7530   14.6830   -9.1370 C.3   278  SER278      0.2130
     63  OG        33.3550   15.3810   -8.0670 O.3   278  SER278     -0.2179
     64  N         33.6800   12.0740   -6.9840 N.am  279  ILE279     -0.1963
     65  CA        34.7640   11.2840   -6.3890 C.3   279  ILE279      0.1727
     66  C         35.9920   12.1130   -6.0240 C.2   279  ILE279      0.2616
     67  O         36.5510   11.9290   -4.9340 O.2   279  ILE279     -0.2715
     68  CB        35.2070   10.0490   -7.2480 C.3   279  ILE279      0.0290
     69  CG1       34.0060    9.3170   -7.8880 C.3   279  ILE279      0.0022
     70  CG2       36.0910    9.0820   -6.4200 C.3   279  ILE279      0.0023
     71  CD1       34.4130    8.4370   -9.0960 C.3   279  ILE279      0.0001
     72  N         36.3950   13.0210   -6.9210 N.am  280  ARG280     -0.1977
     73  CA        37.6330   13.8270   -6.7570 C.3   280  ARG280      0.1597
     74  C         37.3670   15.2110   -6.1480 C.2   280  ARG280      0.2287
     75  O         38.3100   15.9920   -5.9030 O.2   280  ARG280     -0.2864
     76  CB        38.3520   14.0040   -8.1160 C.3   280  ARG280      0.0334
     77  CG        37.5940   14.8860   -9.1170 C.3   280  ARG280      0.0492
     78  CD        38.2730   14.9610  -10.4850 C.3   280  ARG280      0.2205
     79  NE        37.3410   15.3710  -11.5380 N.pl3 280  ARG280     -0.0865
     80  CZ        37.6970   15.9730  -12.6770 C.cat 280  ARG280      0.5346
     81  NH1       36.7750   16.3070  -13.5850 N.pl3 280  ARG280      0.1354
     82  NH2       38.9660   16.2790  -12.8990 N.pl3 280  ARG280      0.1354
     83  N         37.0290    5.9780  -14.9360 N.3   301  ASN301     -0.1225
     84  CA        35.5960    6.0830  -14.6960 C.3   301  ASN301      0.1785
     85  C         34.9490    6.8030  -15.8780 C.2   301  ASN301      0.2597
     86  O         34.8940    8.0450  -15.9060 O.2   301  ASN301     -0.2718
     87  CB        35.3170    6.8430  -13.3920 C.3   301  ASN301      0.1169
     88  CG        34.0290    6.4170  -12.7450 C.2   301  ASN301      0.2627
     89  OD1       33.8990    5.2760  -12.3110 O.2   301  ASN301     -0.2716
     90  ND2       33.0660    7.3330  -12.6620 N.am  301  ASN301     -0.0877
     91  N         34.4880    6.0140  -16.8550 N.am  302  MET302     -0.1979
     92  CA        33.9450    6.5120  -18.1390 C.3   302  MET302      0.1605
     93  C         34.9700    7.1310  -19.1060 C.2   302  MET302      0.2287
     94  O         34.8090    7.0200  -20.3250 O.2   302  MET302     -0.2864
     95  CB        32.7360    7.4450  -17.9380 C.3   302  MET302      0.0413
     96  CG        31.4490    6.7070  -17.5900 C.3   302  MET302      0.0598
     97  SD        30.1650    7.7580  -16.8910 S.3   302  MET302     -0.1393
     98  CE        30.9710    8.3320  -15.4270 C.3   302  MET302      0.0692
     99  N         20.6020   15.1000   -9.6410 N.3   387  ALA387     -0.1245
    100  CA        20.5390   13.6430   -9.7870 C.3   387  ALA387      0.1562
    101  C         19.4770   12.9870   -8.8720 C.2   387  ALA387      0.2260
    102  O         18.9390   11.9210   -9.2050 O.2   387  ALA387     -0.2867
    103  CB        21.9100   13.0320   -9.5730 C.3   387  ALA387      0.0290
    104  N         16.0300   11.6490  -10.0650 N.3   390  LEU390     -0.1245
    105  CA        15.9970   10.3390  -10.7180 C.3   390  LEU390      0.1561
    106  C         16.1520    9.1800   -9.7230 C.2   390  LEU390      0.2260
    107  O         16.1020    8.0070  -10.1040 O.2   390  LEU390     -0.2867
    108  CB        17.1020   10.2410  -11.7770 C.3   390  LEU390      0.0270
    109  CG        17.0960   11.2910  -12.9000 C.3   390  LEU390      0.0019
    110  CD1       18.1620   10.9680  -13.9660 C.3   390  LEU390      0.0001
    111  CD2       15.7010   11.4560  -13.5200 C.3   390  LEU390      0.0001
    112  N         24.0250   18.3970  -16.6870 N.3   440  HIS440     -0.1226
    113  CA        23.4710   17.1180  -16.2560 C.3   440  HIS440      0.1752
    114  C         23.1710   17.0720  -14.7410 C.2   440  HIS440      0.2597
    115  O         23.4100   18.0510  -14.0300 O.2   440  HIS440     -0.2718
    116  CB        24.3030   15.9210  -16.7770 C.3   440  HIS440      0.0759
    117  CG        25.7420   15.8990  -16.3420 C.ar  440  HIS440      0.0818
    118  ND1       26.1650   16.2670  -15.0770 N.ar  440  HIS440     -0.2268
    119  CD2       26.8530   15.5010  -17.0040 C.ar  440  HIS440      0.1154
    120  CE1       27.4740   16.1220  -14.9920 C.ar  440  HIS440      0.1986
    121  NE2       27.9150   15.6580  -16.1480 N.ar  440  HIS440     -0.2212
    122  N         22.6020   15.9520  -14.2890 N.am  441  GLY441     -0.1942
    123  CA        22.1940   15.7600  -12.9050 C.3   441  GLY441      0.2014
    124  C         23.2660   16.0550  -11.8740 C.2   441  GLY441      0.2638
    125  O         22.9780   16.6090  -10.8310 O.2   441  GLY441     -0.2714
    126  N         24.5110   15.6950  -12.1660 N.am  442  GLU442     -0.1977
    127  CA        25.6020   15.8950  -11.2130 C.3   442  GLU442      0.1602
    128  C         26.1680   17.3180  -11.1980 C.2   442  GLU442      0.2287
    129  O         26.6900   17.7580  -10.1730 O.2   442  GLU442     -0.2864
    130  CB        26.7060   14.8490  -11.4370 C.3   442  GLU442      0.0415
    131  CG        27.4900   14.5230  -10.1730 C.3   442  GLU442      0.1163
    132  CD        28.8300   15.2380  -10.0920 C.2   442  GLU442      0.3649
    133  OE1       29.5210   15.2830  -11.1390 O.co2 442  GLU442     -0.2457
    134  OE2       29.1990   15.7260   -8.9840 O.co2 442  GLU442     -0.2457
    135  N         31.0640   22.9390  -12.3450 N.3   460  ASP460     -0.1239
    136  CA        31.9320   22.3680  -13.3680 C.3   460  ASP460      0.1674
    137  C         32.0010   23.2930  -14.5910 C.2   460  ASP460      0.2266
    138  O         31.5240   22.9800  -15.6810 O.2   460  ASP460     -0.2867
    139  CB        31.5030   20.9360  -13.7160 C.3   460  ASP460      0.1410
    140  CG        32.5480   20.1850  -14.4920 C.2   460  ASP460      0.3668
    141  OD1       33.6580   20.7130  -14.7210 O.co2 460  ASP460     -0.2456
    142  OD2       32.2420   19.0520  -14.9130 O.co2 460  ASP460     -0.2456
    143  N         33.8570   22.7630  -18.8020 N.3   464  GLU464     -0.1245
    144  CA        32.6480   22.3580  -19.5250 C.3   464  GLU464      0.1567
    145  C         31.9600   23.4730  -20.3150 C.2   464  GLU464      0.2260
    146  O         31.1440   23.1880  -21.1760 O.2   464  GLU464     -0.2867
    147  CB        31.6380   21.6810  -18.5910 C.3   464  GLU464      0.0388
    148  CG        32.1630   20.4690  -17.8190 C.3   464  GLU464      0.1160
    149  CD        32.1310   19.1380  -18.5990 C.2   464  GLU464      0.3649
    150  OE1       31.9740   18.0750  -17.9330 O.co2 464  GLU464     -0.2457
    151  OE2       32.2620   19.1500  -19.8520 O.co2 464  GLU464     -0.2457
    152  N         18.9250   13.6840  -19.8690 N.3   502  TYR502     -0.1241
    153  CA        18.3760   13.8040  -18.5400 C.3   502  TYR502      0.1605
    154  C         16.8380   13.7140  -18.5120 C.2   502  TYR502      0.2264
    155  O         16.2910   12.8810  -17.8000 O.2   502  TYR502     -0.2867
    156  CB        18.8700   15.0880  -17.8560 C.3   502  TYR502      0.0534
    157  CG        18.4270   15.0890  -16.4120 C.ar  502  TYR502     -0.0201
    158  CD1       19.1970   14.4420  -15.4310 C.ar  502  TYR502     -0.0009
    159  CD2       17.2230   15.6710  -16.0290 C.ar  502  TYR502     -0.0009
    160  CE1       18.7950   14.4070  -14.1000 C.ar  502  TYR502      0.0417
    161  CE2       16.7900   15.6290  -14.6590 C.ar  502  TYR502      0.0417
    162  CZ        17.5860   14.9940  -13.7210 C.ar  502  TYR502      0.1957
    163  OH        17.2030   14.9270  -12.4050 O.3   502  TYR502     -0.2866
@<TRIPOS>BOND
     1   146   145    2
     2    94    93    2
     3   145   144    1
     4   152   153    1
     5   151   149   ar
     6   144   143    1
     7   144   147    1
     8    93    92    1
     9    13    14   ar
    10    13    11   ar
    11    14    12   ar
    12   149   150   ar
    13   149   148    1
    14   147   148    1
    15   153   154    1
    16   153   156    1
    17   154   155    2
    18    92    95    1
    19    92    91    1
    20    95    96    1
    21    11    10   ar
    22   156   157    1
    23    18    17    2
    24    96    97    1
    25    12    10   ar
    26    17    16    1
    27   119   117   ar
    28   119   121   ar
    29    10     9    1
    30    97    98    1
    31    91    85   am
    32   116   117    1
    33   116   113    1
    34   112   113    1
    35   157   159   ar
    36   157   158   ar
    37   117   118   ar
    38   113   114    1
    39    20    19    1
    40    20    21    1
    41   121   120   ar
    42   159   161   ar
    43    16    19    1
    44    16    15    1
    45    86    85    2
    46    85    84    1
    47     9     6    1
    48    22    23    1
    49    21    15    1
    50   138   137    2
    51    15     7   am
    52     8     7    2
    53   158   160   ar
    54     7     6    1
    55    23    26    1
    56    23    24    1
    57    26    27    1
    58   118   120   ar
    59    83    84    1
    60   142   140   ar
    61     6     5    1
    62   114   122   am
    63   114   115    2
    64   141   140   ar
    65    84    87    1
    66   161   162   ar
    67   137   136    1
    68   140   139    1
    69   122   123    1
    70    27    29   am
    71    27    28    2
    72   160   162   ar
    73   110   109    1
    74    24    25    2
    75    24    30   am
    76   162   163    1
    77   139   136    1
    78    81    80    1
    79   111   109    1
    80     5     3   am
    81    87    88    1
    82   136   135    1
    83    30    31    1
    84   123   124    1
    85   109   108    1
    86    82    80    1
    87    88    90   am
    88    88    89    2
    89    80    79    2
    90     4     3    2
    91     3     2    1
    92   126   124   am
    93   126   127    1
    94    31    32    1
    95    31    34    1
    96   124   125    2
    97   108   105    1
    98    32    33    2
    99    79    78    1
   100   130   127    1
   101   130   131    1
   102   127   128    1
   103   128   129    2
   104     2     1    1
   105   133   132   ar
   106    38    39    1
   107    34    35    1
   108   105   104    1
   109   105   106    1
   110    35    37   am
   111    35    36    2
   112    78    77    1
   113    40    39    1
   114    40    41    2
   115   131   132    1
   116   107   106    2
   117    39    42    1
   118   132   134   ar
   119   100    99    1
   120   100   103    1
   121   100   101    1
   122   102   101    2
   123    62    59    1
   124    62    63    1
   125    77    76    1
   126    44    45    1
   127    44    43    1
   128    71    69    1
   129    61    60    2
   130    59    60    1
   131    59    58    1
   132    42    43    1
   133    45    46    2
   134    60    64   am
   135    52    51    2
   136    76    73    1
   137    69    68    1
   138    58    51   am
   139    51    50    1
   140    46    48    1
   141    46    47    1
   142    68    70    1
   143    68    65    1
   144    53    50    1
   145    53    54    1
   146    64    65    1
   147    72    73    1
   148    72    66   am
   149    56    55    2
   150    73    74    1
   151    50    49    1
   152    65    66    1
   153    74    75    2
   154    54    55    1
   155    66    67    2
   156    55    57   am
