@<TRIPOS>MOLECULE
tmp/2x0qA00.pdb
 240 228 0 0 0
SMALL
GASTEIGER

@<TRIPOS>ATOM
      1  N         23.4010    8.0450   20.6110 N.3   151  MET151     -0.1245
      2  CA        23.1000    7.7030   19.2180 C.3   151  MET151      0.1570
      3  C         23.6210    6.3080   18.8610 C.2   151  MET151      0.2261
      4  O         24.6640    5.8700   19.3610 O.2   151  MET151     -0.2867
      5  CB        23.6330    8.7750   18.2550 C.3   151  MET151      0.0387
      6  CG        22.9710   10.1510   18.4370 C.3   151  MET151      0.0595
      7  SD        21.1840   10.1610   18.1090 S.3   151  MET151     -0.1393
      8  CE        20.4800    9.7720   19.7110 C.3   151  MET151      0.0692
      9  N         24.4570    5.9450   13.4210 N.3   154  GLY154     -0.1210
     10  CA        25.5240    6.5430   12.6180 C.3   154  GLY154      0.1956
     11  C         24.9020    7.0830   11.3460 C.2   154  GLY154      0.2612
     12  O         23.6640    7.2060   11.2430 O.2   154  GLY154     -0.2717
     13  N         25.7400    7.3970   10.3650 N.am  155  HIS155     -0.1962
     14  CA        25.2350    7.8690    9.0930 C.3   155  HIS155      0.1772
     15  C         24.1830    6.8850    8.5420 C.2   155  HIS155      0.2462
     16  O         24.4730    5.6910    8.4020 O.2   155  HIS155     -0.2730
     17  CB        26.3630    8.0570    8.0850 C.3   155  HIS155      0.0785
     18  CG        25.9390    8.8280    6.8780 C.ar  155  HIS155      0.0821
     19  ND1       24.9520    8.3820    6.0230 N.ar  155  HIS155     -0.2267
     20  CD2       26.3290   10.0350    6.4070 C.ar  155  HIS155      0.1154
     21  CE1       24.7530    9.2820    5.0790 C.ar  155  HIS155      0.1986
     22  NE2       25.5850   10.2880    5.2820 N.ar  155  HIS155     -0.2212
     23  N         22.9640    7.3870    8.2320 N.am  156  PRO156     -0.2727
     24  CA        21.8430    6.5130    7.8560 C.3   156  PRO156      0.1402
     25  C         21.9460    5.8370    6.4860 C.2   156  PRO156      0.2269
     26  O         21.1920    4.8930    6.2340 O.2   156  PRO156     -0.2865
     27  CB        20.6330    7.4550    7.8980 C.3   156  PRO156      0.0296
     28  CG        21.2170    8.8230    7.6400 C.3   156  PRO156      0.0237
     29  CD        22.5390    8.7980    8.3510 C.3   156  PRO156      0.0939
     30  N         29.5840    2.1350    8.2290 N.3   161  ASN161     -0.1225
     31  CA        29.6660    3.5360    8.6480 C.3   161  ASN161      0.1785
     32  C         30.4430    3.7970    9.9470 C.2   161  ASN161      0.2597
     33  O         30.8000    4.9450   10.2270 O.2   161  ASN161     -0.2718
     34  CB        28.2590    4.1680    8.7440 C.3   161  ASN161      0.1169
     35  CG        27.3920    3.5420    9.8300 C.2   161  ASN161      0.2627
     36  OD1       27.7270    2.4930   10.3880 O.2   161  ASN161     -0.2716
     37  ND2       26.2600    4.1920   10.1360 N.am  161  ASN161     -0.0877
     38  N         30.6810    2.7420   10.7280 N.am  162  ASN162     -0.1974
     39  CA        31.2710    2.8770   12.0700 C.3   162  ASN162      0.1688
     40  C         32.4760    1.9500   12.2940 C.2   162  ASN162      0.2292
     41  O         32.5690    1.2980   13.3260 O.2   162  ASN162     -0.2864
     42  CB        30.2090    2.6210   13.1620 C.3   162  ASN162      0.1181
     43  CG        28.9850    3.5330   13.0410 C.2   162  ASN162      0.2629
     44  OD1       29.0900    4.6900   12.6190 O.2   162  ASN162     -0.2716
     45  ND2       27.8140    3.0060   13.4050 N.am  162  ASN162     -0.0877
     46  N         35.9440    2.6920   12.5090 N.3   164  ARG164     -0.1245
     47  CA        37.0030    3.1650   13.4340 C.3   164  ARG164      0.1563
     48  C         38.2430    2.2640   13.4110 C.2   164  ARG164      0.2260
     49  O         38.7990    1.9340   14.4560 O.2   164  ARG164     -0.2867
     50  CB        36.4770    3.3320   14.8690 C.3   164  ARG164      0.0307
     51  CG        35.3900    4.4110   15.0360 C.3   164  ARG164      0.0489
     52  CD        33.9980    3.8440   14.7510 C.3   164  ARG164      0.2205
     53  NE        32.9040    4.6640   15.2840 N.pl3 164  ARG164     -0.0865
     54  CZ        32.3320    4.4790   16.4720 C.cat 164  ARG164      0.5346
     55  NH1       31.3410    5.2760   16.8530 N.pl3 164  ARG164      0.1354
     56  NH2       32.7470    3.5050   17.2840 N.pl3 164  ARG164      0.1354
     57  N         32.6230   13.3100   20.6640 N.3   275  GLN275     -0.1231
     58  CA        31.3680   13.5050   19.9640 C.3   275  GLN275      0.1698
     59  C         31.1910   12.4080   18.9240 C.2   275  GLN275      0.2592
     60  O         32.0640   11.5440   18.7650 O.2   275  GLN275     -0.2718
     61  CB        31.3240   14.8940   19.3200 C.3   275  GLN275      0.0381
     62  CG        31.5620   16.0620   20.3120 C.3   275  GLN275      0.0905
     63  CD        30.5330   16.1140   21.4490 C.2   275  GLN275      0.2608
     64  OE1       29.5020   16.7820   21.3390 O.2   275  GLN275     -0.2717
     65  NE2       30.8060   15.3980   22.5370 N.am  275  GLN275     -0.0878
     66  N         30.0640   12.4380   18.2190 N.am  276  GLN276     -0.1966
     67  CA        29.7690   11.4070   17.2240 C.3   276  GLN276      0.1733
     68  C         30.7980   11.3090   16.0900 C.2   276  GLN276      0.2617
     69  O         30.9330   10.2470   15.4770 O.2   276  GLN276     -0.2715
     70  CB        28.3450   11.5540   16.6790 C.3   276  GLN276      0.0408
     71  CG        27.2800   10.9650   17.6420 C.3   276  GLN276      0.0908
     72  CD        27.5280    9.4870   18.0160 C.2   276  GLN276      0.2608
     73  OE1       27.7040    8.6240   17.1390 O.2   276  GLN276     -0.2717
     74  NE2       27.5290    9.1940   19.3210 N.am  276  GLN276     -0.0878
     75  N         31.5200   12.4040   15.8250 N.am  277  SER277     -0.1936
     76  CA        32.6130   12.3890   14.8370 C.3   277  SER277      0.2055
     77  C         33.9100   11.7780   15.3760 C.2   277  SER277      0.2643
     78  O         34.8960   11.6940   14.6440 O.2   277  SER277     -0.2714
     79  CB        32.9060   13.7970   14.3190 C.3   277  SER277      0.2130
     80  OG        33.2420   14.6460   15.4030 O.3   277  SER277     -0.2179
     81  N         33.9040   11.3820   16.6490 N.am  278  ILE278     -0.1963
     82  CA        34.9990   10.6180   17.3010 C.3   278  ILE278      0.1727
     83  C         36.2090   11.4850   17.6900 C.2   278  ILE278      0.2616
     84  O         36.6860   11.4160   18.8370 O.2   278  ILE278     -0.2715
     85  CB        35.4640    9.4000   16.4560 C.3   278  ILE278      0.0290
     86  CG1       34.2650    8.5550   16.0040 C.3   278  ILE278      0.0022
     87  CG2       36.4640    8.5260   17.2430 C.3   278  ILE278      0.0023
     88  CD1       34.4360    8.0050   14.5890 C.3   278  ILE278      0.0001
     89  N         36.6630   12.3130   16.7490 N.am  279  ARG279     -0.1963
     90  CA        37.8730   13.1210   16.8940 C.3   279  ARG279      0.1729
     91  C         37.5900   14.5380   17.3980 C.2   279  ARG279      0.2616
     92  O         38.5090   15.3540   17.5150 O.2   279  ARG279     -0.2715
     93  CB        38.5810   13.2140   15.5370 C.3   279  ARG279      0.0348
     94  CG        37.7290   13.9390   14.4860 C.3   279  ARG279      0.0492
     95  CD        38.5080   14.3430   13.3020 C.3   279  ARG279      0.2205
     96  NE        37.6570   14.6110   12.1640 N.pl3 279  ARG279     -0.0865
     97  CZ        38.1280   14.8770   10.9570 C.cat 279  ARG279      0.5346
     98  NH1       37.3060   15.1080    9.9570 N.pl3 279  ARG279      0.1354
     99  NH2       39.4320   14.9260   10.7580 N.pl3 279  ARG279      0.1354
    100  N         36.3230   14.8450   17.6630 N.am  280  THR280     -0.1951
    101  CA        35.9510   16.1600   18.1840 C.3   280  THR280      0.1897
    102  C         35.4140   15.9790   19.6000 C.2   280  THR280      0.2313
    103  O         34.7140   14.9980   19.8820 O.2   280  THR280     -0.2863
    104  CB        34.9120   16.8470   17.2780 C.3   280  THR280      0.1794
    105  OG1       35.5170   17.1280   16.0020 O.3   280  THR280     -0.2208
    106  CG2       34.3970   18.1460   17.9090 C.3   280  THR280      0.0378
    107  N         38.6590   19.9190   18.1380 N.3   293  LYS293     -0.1245
    108  CA        38.6830   18.9280   17.0670 C.3   293  LYS293      0.1561
    109  C         40.1300   18.5490   16.8110 C.2   293  LYS293      0.2260
    110  O         40.9880   19.4270   16.7210 O.2   293  LYS293     -0.2867
    111  CB        38.0800   19.5170   15.7910 C.3   293  LYS293      0.0271
    112  CG        38.0830   18.5920   14.5900 C.3   293  LYS293      0.0035
    113  CD        37.1720   19.1020   13.4710 C.3   293  LYS293      0.0206
    114  CE        37.1630   18.1320   12.2920 C.3   293  LYS293      0.1093
    115  NZ        36.2630   18.6170   11.1810 N.3   293  LYS293     -0.1314
    116  N         37.4170    5.8380    9.1330 N.3   300  ASN300     -0.1225
    117  CA        36.0000    5.7680    9.3920 C.3   300  ASN300      0.1785
    118  C         35.2090    6.2750    8.2090 C.2   300  ASN300      0.2597
    119  O         35.4660    7.3610    7.6980 O.2   300  ASN300     -0.2718
    120  CB        35.6190    6.5290   10.6690 C.3   300  ASN300      0.1169
    121  CG        34.2750    6.0760   11.2250 C.2   300  ASN300      0.2627
    122  OD1       34.0950    4.9040   11.5690 O.2   300  ASN300     -0.2716
    123  ND2       33.3210    6.9920   11.2850 N.am  300  ASN300     -0.0877
    124  N         34.2630    5.4610    7.7530 N.am  301  MET301     -0.1979
    125  CA        33.2810    5.8960    6.7460 C.3   301  MET301      0.1605
    126  C         33.8660    6.6050    5.5100 C.2   301  MET301      0.2287
    127  O         33.5040    7.7500    5.1990 O.2   301  MET301     -0.2864
    128  CB        32.2180    6.7720    7.4110 C.3   301  MET301      0.0413
    129  CG        30.8730    6.6920    6.7360 C.3   301  MET301      0.0598
    130  SD        29.7820    7.9270    7.4080 S.3   301  MET301     -0.1393
    131  CE        30.4500    9.4130    6.6650 C.3   301  MET301      0.0692
    132  N         40.7660   10.0300    9.4000 N.3   305  ARG305     -0.1245
    133  CA        40.1750   11.1870   10.1000 C.3   305  ARG305      0.1563
    134  C         41.1960   12.2020   10.6320 C.2   305  ARG305      0.2260
    135  O         41.0350   12.7770   11.7140 O.2   305  ARG305     -0.2867
    136  CB        39.1810   10.7190   11.1770 C.3   305  ARG305      0.0307
    137  CG        38.0050    9.9320   10.5810 C.3   305  ARG305      0.0489
    138  CD        37.1750   10.8420    9.6750 C.3   305  ARG305      0.2205
    139  NE        36.2140   10.1280    8.8320 N.pl3 305  ARG305     -0.0865
    140  CZ        35.1750   10.7100    8.2270 C.cat 305  ARG305      0.5346
    141  NH1       34.3490    9.9920    7.4760 N.pl3 305  ARG305      0.1354
    142  NH2       34.9480   12.0100    8.3810 N.pl3 305  ARG305      0.1354
    143  N         36.1100   25.1690   18.2550 N.3   372  ARG372     -0.1245
    144  CA        34.7930   25.4700   17.7050 C.3   372  ARG372      0.1563
    145  C         33.8690   26.0440   18.7780 C.2   372  ARG372      0.2260
    146  O         33.7620   25.5090   19.8760 O.2   372  ARG372     -0.2867
    147  CB        34.1710   24.2020   17.0900 C.3   372  ARG372      0.0307
    148  CG        32.7310   24.3560   16.5410 C.3   372  ARG372      0.0489
    149  CD        32.2340   23.0180   15.9720 C.3   372  ARG372      0.2205
    150  NE        32.8790   22.7180   14.6970 N.pl3 372  ARG372     -0.0865
    151  CZ        33.2070   21.5020   14.2660 C.cat 372  ARG372      0.5346
    152  NH1       32.9740   20.4300   15.0170 N.pl3 372  ARG372      0.1354
    153  NH2       33.7900   21.3580   13.0790 N.pl3 372  ARG372      0.1354
    154  N         20.6660   14.0980   14.0570 N.3   389  ALA389     -0.1245
    155  CA        20.6730   12.6230   13.9820 C.3   389  ALA389      0.1562
    156  C         19.6280   11.9770   14.9180 C.2   389  ALA389      0.2260
    157  O         19.1700   10.8450   14.6810 O.2   389  ALA389     -0.2867
    158  CB        22.0810   12.0810   14.2830 C.3   389  ALA389      0.0290
    159  N         16.2180   10.5160   13.7710 N.3   392  LEU392     -0.1245
    160  CA        16.2340    9.1720   13.1980 C.3   392  LEU392      0.1561
    161  C         16.4700    8.0690   14.2300 C.2   392  LEU392      0.2260
    162  O         16.5180    6.8890   13.8700 O.2   392  LEU392     -0.2867
    163  CB        17.3000    9.0700   12.0960 C.3   392  LEU392      0.0270
    164  CG        17.1590    9.9960   10.8700 C.3   392  LEU392      0.0019
    165  CD1       18.2460    9.6970    9.8580 C.3   392  LEU392      0.0001
    166  CD2       15.7610    9.9370   10.2180 C.3   392  LEU392      0.0001
    167  N         27.3730   21.0720    4.2950 N.3   440  MET440     -0.1245
    168  CA        27.1140   19.6220    4.2770 C.3   440  MET440      0.1570
    169  C         26.0820   19.3020    5.3830 C.2   440  MET440      0.2261
    170  O         26.4450   18.9760    6.5160 O.2   440  MET440     -0.2867
    171  CB        28.4260   18.8300    4.4340 C.3   440  MET440      0.0387
    172  CG        28.2640   17.3390    4.7020 C.3   440  MET440      0.0595
    173  SD        27.3280   16.4680    3.4410 S.3   440  MET440     -0.1393
    174  CE        28.5390   16.3870    2.1180 C.3   440  MET440      0.0692
    175  N         24.0510   17.1320    6.8660 N.3   442  HIS442     -0.1226
    176  CA        23.5870   15.8460    7.3800 C.3   442  HIS442      0.1752
    177  C         23.3110   15.8920    8.8910 C.2   442  HIS442      0.2597
    178  O         23.5060   16.9340    9.5300 O.2   442  HIS442     -0.2718
    179  CB        24.5390   14.6980    6.9840 C.3   442  HIS442      0.0759
    180  CG        25.9300   14.8220    7.5300 C.ar  442  HIS442      0.0818
    181  ND1       26.1960   15.2160    8.8230 N.ar  442  HIS442     -0.2268
    182  CD2       27.1310   14.5540    6.9640 C.ar  442  HIS442      0.1154
    183  CE1       27.5030   15.2010    9.0260 C.ar  442  HIS442      0.1986
    184  NE2       28.0930   14.8080    7.9120 N.ar  442  HIS442     -0.2212
    185  N         22.8350   14.7740    9.4450 N.am  443  GLY443     -0.1942
    186  CA        22.4540   14.6830   10.8540 C.3   443  GLY443      0.2014
    187  C         23.5370   15.0400   11.8720 C.2   443  GLY443      0.2639
    188  O         23.2290   15.5800   12.9270 O.2   443  GLY443     -0.2714
    189  N         24.8040   14.7610   11.5640 N.am  444  GLU444     -0.1963
    190  CA        25.8860   15.0510   12.5250 C.3   444  GLU444      0.1733
    191  C         26.3600   16.5100   12.4460 C.2   444  GLU444      0.2616
    192  O         26.9280   17.0330   13.4090 O.2   444  GLU444     -0.2715
    193  CB        27.0400   14.0320   12.3830 C.3   444  GLU444      0.0429
    194  CG        28.2240   14.1980   13.3410 C.3   444  GLU444      0.1163
    195  CD        29.3160   15.1440   12.8250 C.2   444  GLU444      0.3649
    196  OE1       29.4380   15.3750   11.5960 O.co2 444  GLU444     -0.2457
    197  OE2       30.0770   15.6660   13.6700 O.co2 444  GLU444     -0.2457
    198  N         26.1100   17.1790   11.3210 N.am  445  ASN445     -0.1972
    199  CA        26.4980   18.5960   11.1920 C.3   445  ASN445      0.1688
    200  C         25.4520   19.6040   11.6510 C.2   445  ASN445      0.2292
    201  O         25.7470   20.7920   11.7530 O.2   445  ASN445     -0.2864
    202  CB        26.8990   18.9330    9.7620 C.3   445  ASN445      0.1181
    203  CG        28.2910   18.4580    9.4270 C.2   445  ASN445      0.2629
    204  OD1       29.0650   18.1000   10.3180 O.2   445  ASN445     -0.2716
    205  ND2       28.6200   18.4390    8.1370 N.am  445  ASN445     -0.0877
    206  N         27.4650   23.1270   11.9040 N.3   461  LYS461     -0.1231
    207  CA        28.9040   23.0720   12.1510 C.3   461  LYS461      0.1693
    208  C         29.6360   22.3490   11.0270 C.2   461  LYS461      0.2592
    209  O         28.9950   21.8690   10.0840 O.2   461  LYS461     -0.2718
    210  CB        29.2140   22.4670   13.5190 C.3   461  LYS461      0.0285
    211  CG        28.7060   21.0590   13.7500 C.3   461  LYS461      0.0035
    212  CD        28.6610   20.7950   15.2480 C.3   461  LYS461      0.0206
    213  CE        27.9920   19.4630   15.5920 C.3   461  LYS461      0.1093
    214  NZ        28.8550   18.3070   15.2630 N.3   461  LYS461     -0.1314
    215  N         30.9680   22.2870   11.1330 N.am  462  ASP462     -0.1974
    216  CA        31.8480   21.6780   10.1220 C.3   462  ASP462      0.1709
    217  C         31.8530   22.5490    8.8620 C.2   462  ASP462      0.2293
    218  O         31.3790   22.1480    7.7950 O.2   462  ASP462     -0.2864
    219  CB        31.4320   20.2290    9.8210 C.3   462  ASP462      0.1436
    220  CG        32.5690   19.3820    9.2530 C.2   462  ASP462      0.3671
    221  OD1       33.7000   19.8810    9.0840 O.co2 462  ASP462     -0.2456
    222  OD2       32.3280   18.1880    8.9690 O.co2 462  ASP462     -0.2456
    223  N         35.7530   23.0120    6.0310 N.3   465  GLU465     -0.1231
    224  CA        36.0540   21.8290    5.2360 C.3   465  GLU465      0.1699
    225  C         34.9880   21.5940    4.1850 C.2   465  GLU465      0.2592
    226  O         35.2880   21.1880    3.0760 O.2   465  GLU465     -0.2718
    227  CB        36.1790   20.5820    6.1240 C.3   465  GLU465      0.0402
    228  CG        37.0220   19.4750    5.4830 C.3   465  GLU465      0.1161
    229  CD        37.0800   18.1900    6.3020 C.2   465  GLU465      0.3649
    230  OE1       36.7390   18.2080    7.5080 O.co2 465  GLU465     -0.2457
    231  OE2       37.4700   17.1520    5.7190 O.co2 465  GLU465     -0.2457
    232  N         33.7390   21.8640    4.5440 N.am  466  GLU466     -0.1979
    233  CA        32.5990   21.4040    3.7590 C.3   466  GLU466      0.1602
    234  C         31.8850   22.4820    2.9460 C.2   466  GLU466      0.2287
    235  O         31.1620   22.1670    2.0000 O.2   466  GLU466     -0.2864
    236  CB        31.5830   20.7360    4.6860 C.3   466  GLU466      0.0415
    237  CG        32.1790   19.7560    5.6930 C.3   466  GLU466      0.1163
    238  CD        32.7850   18.5190    5.0490 C.2   466  GLU466      0.3649
    239  OE1       32.5180   18.2500    3.8530 O.co2 466  GLU466     -0.2457
    240  OE2       33.5250   17.8010    5.7570 O.co2 466  GLU466     -0.2457
@<TRIPOS>BOND
     1   235   234    2
     2   174   173    1
     3   234   233    1
     4   226   225    2
     5   173   172    1
     6   233   232    1
     7   233   236    1
     8   239   238   ar
     9   225   232   am
    10   225   224    1
    11   168   167    1
    12   168   171    1
    13   168   169    1
    14   171   172    1
    15   236   237    1
    16   238   237    1
    17   238   240   ar
    18    21    22   ar
    19    21    19   ar
    20   127   126    2
    21   224   223    1
    22   224   227    1
    23    22    20   ar
    24   169   170    2
    25   228   227    1
    26   228   229    1
    27   126   125    1
    28   231   229   ar
    29    19    18   ar
    30    26    25    2
    31   229   230   ar
    32    20    18   ar
    33    25    24    1
    34   131   130    1
    35   129   130    1
    36   129   128    1
    37   125   128    1
    38   125   124    1
    39   175   176    1
    40    18    17    1
    41   182   180   ar
    42   182   184   ar
    43   179   176    1
    44   179   180    1
    45   176   177    1
    46   141   140    1
    47   180   181   ar
    48    28    27    1
    49    28    29    1
    50   119   118    2
    51   124   118   am
    52   218   217    2
    53    24    27    1
    54    24    23    1
    55   184   183   ar
    56    17    14    1
    57   205   203   am
    58   118   117    1
    59   140   142    1
    60   140   139    2
    61    30    31    1
    62    23    29    1
    63    23    15   am
    64    16    15    2
    65    15    14    1
    66    31    34    1
    67    31    32    1
    68    34    35    1
    69   181   183   ar
    70   139   138    1
    71   217   216    1
    72   177   185   am
    73   177   178    2
    74   222   220   ar
    75   221   220   ar
    76    14    13    1
    77   116   117    1
    78   220   219    1
    79   117   120    1
    80   132   133    1
    81   203   202    1
    82   203   204    2
    83   185   186    1
    84   138   137    1
    85   202   199    1
    86   219   216    1
    87    35    37   am
    88    35    36    2
    89   165   164    1
    90    32    33    2
    91    32    38   am
    92    98    97    1
    93   209   208    2
    94   133   134    1
    95   133   136    1
    96   216   215    1
    97   166   164    1
    98    13    11   am
    99   137   136    1
   100   134   135    2
   101   120   121    1
   102    38    39    1
   103    99    97    1
   104   186   187    1
   105   164   163    1
   106    97    96    2
   107   208   215   am
   108   208   207    1
   109   115   114    1
   110   199   198    1
   111   199   200    1
   112   121   123   am
   113   121   122    2
   114    12    11    2
   115   198   191   am
   116    11    10    1
   117   189   187   am
   118   189   190    1
   119   196   195   ar
   120   200   201    2
   121   187   188    2
   122   206   207    1
   123    39    40    1
   124    39    42    1
   125   163   160    1
   126   207   210    1
   127    96    95    1
   128   114   113    1
   129    40    41    2
   130   193   190    1
   131   193   194    1
   132   191   190    1
   133   191   192    2
   134    46    47    1
   135    10     9    1
   136    44    43    2
   137   195   194    1
   138   195   197   ar
   139    43    42    1
   140    43    45   am
   141   153   151    1
   142   160   159    1
   143   160   161    1
   144    95    94    1
   145    48    47    1
   146    48    49    2
   147    47    50    1
   148   113   112    1
   149   210   211    1
   150   211   212    1
   151   162   161    2
   152   155   154    1
   153   155   158    1
   154   155   156    1
   155   151   150    2
   156   151   152    1
   157    79    76    1
   158    79    80    1
   159    94    93    1
   160    88    86    1
   161   112   111    1
   162    78    77    2
   163   157   156    2
   164   150   149    1
   165    52    51    1
   166    52    53    1
   167    76    77    1
   168    76    75    1
   169    50    51    1
   170   212   213    1
   171   214   213    1
   172    53    54    2
   173    77    81   am
   174    69    68    2
   175    93    90    1
   176   111   108    1
   177    75    68   am
   178   149   148    1
   179   105   104    1
   180    86    85    1
   181    68    67    1
   182    85    87    1
   183    85    82    1
   184    54    55    1
   185    54    56    1
   186   148   147    1
   187    81    82    1
   188    70    67    1
   189    70    71    1
   190   110   109    2
   191    89    90    1
   192    89    83   am
   193   109   108    1
   194    90    91    1
   195   108   107    1
   196   147   144    1
   197    73    72    2
   198    67    66    1
   199   104   106    1
   200   104   101    1
   201    82    83    1
   202    91    92    2
   203    91   100   am
   204    71    72    1
   205   100   101    1
   206    83    84    2
   207   144   143    1
   208   144   145    1
   209    72    74   am
   210     7     6    1
   211     7     8    1
   212   101   102    1
   213    66    59   am
   214     5     6    1
   215     5     2    1
   216    60    59    2
   217   145   146    2
   218     3     2    1
   219     3     4    2
   220    59    58    1
   221     2     1    1
   222    61    58    1
   223    61    62    1
   224   102   103    2
   225    58    57    1
   226    62    63    1
   227    64    63    2
   228    63    65   am
