@<TRIPOS>MOLECULE
tmp/2x0uB00.pdb
 137 139 0 0 0
SMALL
GASTEIGER

@<TRIPOS>ATOM
      1  N        133.9690  104.9660  -41.1300 N.3    13  PHE13      -0.1241
      2  CA       133.2200  104.0150  -40.3140 C.3    13  PHE13       0.1605
      3  C        133.6150  104.0520  -38.8450 C.2    13  PHE13       0.2264
      4  O        134.8040  104.0400  -38.5110 O.2    13  PHE13      -0.2867
      5  CB       133.4700  102.5970  -40.8410 C.3    13  PHE13       0.0534
      6  CG       132.8490  101.5090  -39.9930 C.ar   13  PHE13      -0.0203
      7  CD1      131.4760  101.3220  -39.9840 C.ar   13  PHE13      -0.0042
      8  CD2      133.6470  100.6640  -39.2240 C.ar   13  PHE13      -0.0042
      9  CE1      130.8960  100.3120  -39.2040 C.ar   13  PHE13      -0.0003
     10  CE2      133.0700   99.6460  -38.4370 C.ar   13  PHE13      -0.0003
     11  CZ       131.7020   99.4730  -38.4360 C.ar   13  PHE13      -0.0000
     12  N        126.0780  101.7490  -36.2630 N.3    49  LEU49      -0.1231
     13  CA       127.1030  101.8690  -37.2950 C.3    49  LEU49       0.1693
     14  C        126.9740  103.2530  -37.9110 C.2    49  LEU49       0.2592
     15  O        125.9400  103.5730  -38.4960 O.2    49  LEU49      -0.2718
     16  CB       126.8970  100.8140  -38.3920 C.3    49  LEU49       0.0284
     17  CG       126.6990   99.3720  -37.9340 C.3    49  LEU49       0.0019
     18  CD1      126.5820   98.4730  -39.1690 C.3    49  LEU49       0.0001
     19  CD2      127.8740   98.9260  -37.0500 C.3    49  LEU49       0.0001
     20  N        128.0090  104.0690  -37.7430 N.am   50  TRP50      -0.1962
     21  CA       128.0470  105.4220  -38.2940 C.3    50  TRP50       0.1771
     22  C        129.0360  105.5100  -39.4470 C.2    50  TRP50       0.2619
     23  O        130.1250  104.9440  -39.3650 O.2    50  TRP50      -0.2715
     24  CB       128.4790  106.3970  -37.1820 C.3    50  TRP50       0.0590
     25  CG       127.4510  106.5470  -36.0960 C.ar   50  TRP50       0.0006
     26  CD1      127.3300  105.7910  -34.9530 C.ar   50  TRP50       0.0946
     27  CD2      126.3850  107.5000  -36.0610 C.ar   50  TRP50       0.0152
     28  NE1      126.2510  106.2280  -34.2150 N.ar   50  TRP50      -0.2442
     29  CE2      125.6630  107.2800  -34.8730 C.ar   50  TRP50       0.0810
     30  CE3      125.9810  108.5330  -36.9200 C.ar   50  TRP50       0.0012
     31  CZ2      124.5480  108.0450  -34.5240 C.ar   50  TRP50       0.0191
     32  CZ3      124.8750  109.2880  -36.5760 C.ar   50  TRP50       0.0001
     33  CH2      124.1750  109.0460  -35.3850 C.ar   50  TRP50       0.0015
     34  N        128.6670  106.2420  -40.5060 N.am   51  VAL51      -0.1977
     35  CA       129.5830  106.4990  -41.6170 C.3    51  VAL51       0.1596
     36  C        129.4450  107.9450  -42.0700 C.2    51  VAL51       0.2287
     37  O        128.3910  108.5410  -41.8980 O.2    51  VAL51      -0.2864
     38  CB       129.2970  105.5800  -42.8280 C.3    51  VAL51       0.0276
     39  CG1      129.6570  104.1270  -42.4940 C.3    51  VAL51       0.0022
     40  CG2      127.8380  105.6970  -43.2590 C.3    51  VAL51       0.0022
     41  N        127.8360  106.8580  -47.5880 N.3    54  THR54      -0.1204
     42  CA       127.1640  105.5760  -47.7290 C.3    54  THR54       0.1979
     43  C        127.9880  104.5680  -48.5260 C.2    54  THR54       0.2460
     44  O        128.3800  104.8360  -49.6670 O.2    54  THR54      -0.2732
     45  CB       125.7900  105.7510  -48.3920 C.3    54  THR54       0.1783
     46  OG1      125.0270  106.7080  -47.6390 O.3    54  THR54      -0.2211
     47  CG2      125.0360  104.4390  -48.4270 C.3    54  THR54       0.0376
     48  N        128.2570  103.4000  -47.9260 N.am   55  PRO55      -0.2718
     49  CA       128.9740  102.3700  -48.6840 C.3    55  PRO55       0.1520
     50  C        128.0590  101.6850  -49.6910 C.2    55  PRO55       0.2440
     51  O        126.8390  101.8570  -49.6590 O.2    55  PRO55      -0.2731
     52  CB       129.4360  101.3870  -47.6020 C.3    55  PRO55       0.0310
     53  CG       128.4940  101.5720  -46.4930 C.3    55  PRO55       0.0237
     54  CD       127.9790  102.9920  -46.5340 C.3    55  PRO55       0.0939
     55  N        128.6550  100.9120  -50.6100 N.am   56  PRO56      -0.2717
     56  CA       127.9180  100.3040  -51.7210 C.3    56  PRO56       0.1521
     57  C        126.9180   99.2290  -51.2960 C.2    56  PRO56       0.2440
     58  O        127.0670   98.5910  -50.2460 O.2    56  PRO56      -0.2731
     59  CB       129.0290   99.6660  -52.5690 C.3    56  PRO56       0.0310
     60  CG       130.2600  100.3690  -52.2050 C.3    56  PRO56       0.0237
     61  CD       130.1120  100.7590  -50.7570 C.3    56  PRO56       0.0939
     62  N        125.9000   98.9970  -52.1270 N.am   57  PRO57      -0.2716
     63  CA       125.0120   97.8660  -51.8450 C.3    57  PRO57       0.1536
     64  C        125.8300   96.5800  -51.7980 C.2    57  PRO57       0.2599
     65  O        126.7380   96.3950  -52.6140 O.2    57  PRO57      -0.2715
     66  CB       124.0720   97.8450  -53.0600 C.3    57  PRO57       0.0310
     67  CG       124.1030   99.2550  -53.5810 C.3    57  PRO57       0.0237
     68  CD       125.5050   99.7360  -53.3410 C.3    57  PRO57       0.0939
     69  N        125.5290   95.7110  -50.8400 N.am   58  GLY58      -0.1941
     70  CA       126.2950   94.4810  -50.6890 C.3    58  GLY58       0.2014
     71  C        127.3140   94.5530  -49.5580 C.2    58  GLY58       0.2639
     72  O        127.9140   93.5480  -49.1910 O.2    58  GLY58      -0.2714
     73  N        127.5220   95.7430  -49.0110 N.am   59  THR59      -0.1950
     74  CA       128.4030   95.9010  -47.8580 C.3    59  THR59       0.1897
     75  C        127.8190   95.1050  -46.6940 C.2    59  THR59       0.2313
     76  O        126.5950   95.0250  -46.5430 O.2    59  THR59      -0.2863
     77  CB       128.5080   97.3940  -47.4860 C.3    59  THR59       0.1794
     78  OG1      129.1010   98.1220  -48.5780 O.3    59  THR59      -0.2208
     79  CG2      129.3520   97.6050  -46.1970 C.3    59  THR59       0.0378
     80  N        124.4900   95.0350  -44.4560 N.3   124  CYS124     -0.1221
     81  CA       124.0870   96.3450  -43.9710 C.3   124  CYS124      0.1808
     82  C        122.8950   96.8720  -44.7390 C.2   124  CYS124      0.2601
     83  O        122.8180   96.7470  -45.9610 O.2   124  CYS124     -0.2717
     84  CB       125.2130   97.3510  -44.1110 C.3   124  CYS124      0.0970
     85  SG       126.6680   96.8850  -43.1930 S.3   124  CYS124     -0.0800
     86  N        121.9680   97.4690  -44.0080 N.am  125  GLU125     -0.1966
     87  CA       120.9010   98.2180  -44.6370 C.3   125  GLU125      0.1718
     88  C        121.0960   99.6910  -44.2960 C.2   125  GLU125      0.2458
     89  O        121.7500  100.0280  -43.3060 O.2   125  GLU125     -0.2730
     90  CB       119.5360   97.6970  -44.1760 C.3   125  GLU125      0.0428
     91  CG       119.1990   96.3190  -44.7420 C.3   125  GLU125      0.1163
     92  CD       119.1580   96.3060  -46.2660 C.2   125  GLU125      0.3649
     93  OE1      119.4980   95.2650  -46.8720 O.co2 125  GLU125     -0.2457
     94  OE2      118.7980   97.3410  -46.8670 O.co2 125  GLU125     -0.2457
     95  N        120.5700  100.5770  -45.1450 N.am  126  PRO126     -0.2716
     96  CA       120.6360  102.0120  -44.8650 C.3   126  PRO126      0.1521
     97  C        119.8010  102.3530  -43.6370 C.2   126  PRO126      0.2440
     98  O        118.9020  101.5880  -43.2780 O.2   126  PRO126     -0.2731
     99  CB       120.0060  102.6430  -46.1150 C.3   126  PRO126      0.0310
    100  CG       120.0450  101.5730  -47.1670 C.3   126  PRO126      0.0237
    101  CD       119.9170  100.2830  -46.4310 C.3   126  PRO126      0.0939
    102  N        120.1010  103.4900  -42.9870 N.am  127  PRO127     -0.2727
    103  CA       119.2840  103.9170  -41.8480 C.3   127  PRO127      0.1402
    104  C        117.8270  104.0420  -42.2660 C.2   127  PRO127      0.2269
    105  O        117.5620  104.4490  -43.3930 O.2   127  PRO127     -0.2865
    106  CB       119.8490  105.2990  -41.5120 C.3   127  PRO127      0.0296
    107  CG       121.2630  105.2570  -41.9760 C.3   127  PRO127      0.0237
    108  CD       121.2620  104.3690  -43.2060 C.3   127  PRO127      0.0939
    109  N        119.7490  108.4480  -38.1410 N.3   132  ASP132     -0.1225
    110  CA       121.0040  108.9380  -38.6880 C.3   132  ASP132      0.1805
    111  C        122.0500  107.8260  -38.7890 C.2   132  ASP132      0.2598
    112  O        123.1330  108.0320  -39.3230 O.2   132  ASP132     -0.2718
    113  CB       121.5310  110.0860  -37.8150 C.3   132  ASP132      0.1424
    114  CG       120.6700  111.3410  -37.9140 C.2   132  ASP132      0.3668
    115  OD1      120.2470  111.6690  -39.0420 O.co2 132  ASP132     -0.2456
    116  OD2      120.4240  111.9970  -36.8710 O.co2 132  ASP132     -0.2456
    117  N        121.7190  106.6430  -38.2770 N.am  133  CYS133     -0.1956
    118  CA       122.6510  105.5270  -38.3130 C.3   133  CYS133      0.1843
    119  C        121.8900  104.2280  -38.4900 C.2   133  CYS133      0.2626
    120  O        120.6640  104.2020  -38.4160 O.2   133  CYS133     -0.2714
    121  CB       123.4890  105.4650  -37.0280 C.3   133  CYS133      0.0997
    122  SG       122.5240  105.1610  -35.5210 S.3   133  CYS133     -0.0797
    123  N        122.6370  103.1520  -38.7070 N.am  134  THR134     -0.1950
    124  CA       122.0730  101.8060  -38.7450 C.3   134  THR134      0.1897
    125  C        122.4060  101.1140  -37.4290 C.2   134  THR134      0.2313
    126  O        123.4820  101.3250  -36.8790 O.2   134  THR134     -0.2863
    127  CB       122.6650  101.0120  -39.9180 C.3   134  THR134      0.1794
    128  OG1      122.3930  101.7220  -41.1370 O.3   134  THR134     -0.2208
    129  CG2      122.0240   99.6310  -40.0090 C.3   134  THR134      0.0378
    130  N        133.5420   96.3640  -41.0460 N.3   161  LEU161     -0.1245
    131  CA       132.7160   96.6790  -42.2070 C.3   161  LEU161      0.1561
    132  C        133.4430   96.0760  -43.4160 C.2   161  LEU161      0.2260
    133  O        134.6530   96.2610  -43.5610 O.2   161  LEU161     -0.2867
    134  CB       132.5720   98.2000  -42.3410 C.3   161  LEU161      0.0270
    135  CG       131.5440   98.6910  -43.3710 C.3   161  LEU161      0.0019
    136  CD1      130.1310   98.4890  -42.8270 C.3   161  LEU161      0.0001
    137  CD2      131.8070  100.1600  -43.7160 C.3   161  LEU161      0.0001
@<TRIPOS>BOND
     1    67    68    1
     2    67    66    1
     3    68    62    1
     4    66    63    1
     5    65    64    2
     6    59    60    1
     7    59    56    1
     8    60    61    1
     9    62    63    1
    10    62    57   am
    11    63    64    1
    12    64    69   am
    13    56    57    1
    14    56    55    1
    15    57    58    2
    16    69    70    1
    17    61    55    1
    18    70    71    1
    19    55    50   am
    20    50    51    2
    21    50    49    1
    22    44    43    2
    23    71    72    2
    24    71    73   am
    25    73    74    1
    26    49    48    1
    27    49    52    1
    28    78    77    1
    29    43    48   am
    30    43    42    1
    31    47    45    1
    32    45    42    1
    33    45    46    1
    34    48    54    1
    35    74    77    1
    36    74    75    1
    37    42    41    1
    38    52    53    1
    39    77    79    1
    40   100   101    1
    41   100    99    1
    42    93    92   ar
    43    94    92   ar
    44    75    76    2
    45    54    53    1
    46   101    95    1
    47    92    91    1
    48    99    96    1
    49    83    82    2
    50    95    96    1
    51    95    88   am
    52    96    97    1
    53    91    90    1
    54    82    86   am
    55    82    81    1
    56    87    88    1
    57    87    90    1
    58    87    86    1
    59    80    81    1
    60    88    89    2
    61    84    81    1
    62    84    85    1
    63   137   135    1
    64    97    98    2
    65    97   102   am
    66   133   132    2
    67   132   131    1
    68   105   104    2
    69   135   136    1
    70   135   134    1
    71    40    38    1
    72   108   102    1
    73   108   107    1
    74   102   103    1
    75    38    39    1
    76    38    35    1
    77   134   131    1
    78   104   103    1
    79   131   130    1
    80    36    37    2
    81    36    35    1
    82   107   106    1
    83   103   106    1
    84    35    34    1
    85   128   127    1
    86     1     2    1
    87     5     2    1
    88     5     6    1
    89    34    22   am
    90     2     3    1
    91   129   127    1
    92     6     7   ar
    93     6     8   ar
    94     7     9   ar
    95   127   124    1
    96    22    23    2
    97    22    21    1
    98   112   111    2
    99     8    10   ar
   100     9    11   ar
   101    18    17    1
   102   115   114   ar
   103     3     4    2
   104   111   110    1
   105   111   117   am
   106   124   123    1
   107   124   125    1
   108   123   119   am
   109   110   109    1
   110   110   113    1
   111    15    14    2
   112   119   120    2
   113   119   118    1
   114    10    11   ar
   115    16    17    1
   116    16    13    1
   117   118   117    1
   118   118   121    1
   119    21    20    1
   120    21    24    1
   121    17    19    1
   122   114   113    1
   123   114   116   ar
   124    14    20   am
   125    14    13    1
   126   125   126    2
   127    13    12    1
   128    24    25    1
   129   121   122    1
   130    30    32   ar
   131    30    27   ar
   132    32    33   ar
   133    25    27   ar
   134    25    26   ar
   135    27    29   ar
   136    33    31   ar
   137    26    28   ar
   138    29    31   ar
   139    29    28   ar
