@<TRIPOS>MOLECULE
tmp/2x0vB01.pdb
 119 118 0 0 0
SMALL
GASTEIGER

@<TRIPOS>ATOM
      1  N        134.4190  104.7480  -41.0850 N.3    15  PHE15      -0.1241
      2  CA       133.6510  103.7920  -40.2900 C.3    15  PHE15       0.1605
      3  C        134.0320  103.8080  -38.8140 C.2    15  PHE15       0.2264
      4  O        135.2140  103.7660  -38.4700 O.2    15  PHE15      -0.2867
      5  CB       133.8520  102.3760  -40.8490 C.3    15  PHE15       0.0534
      6  CG       133.2490  101.2910  -39.9990 C.ar   15  PHE15      -0.0203
      7  CD1      131.8870  101.0600  -40.0180 C.ar   15  PHE15      -0.0042
      8  CD2      134.0520  100.4830  -39.2020 C.ar   15  PHE15      -0.0042
      9  CE1      131.3240  100.0480  -39.2400 C.ar   15  PHE15      -0.0003
     10  CE2      133.5010   99.4690  -38.4210 C.ar   15  PHE15      -0.0003
     11  CZ       132.1330   99.2530  -38.4410 C.ar   15  PHE15      -0.0000
     12  N        126.3990  101.5800  -36.2270 N.3    51  LEU51      -0.1231
     13  CA       127.4280  101.7200  -37.2450 C.3    51  LEU51       0.1693
     14  C        127.3270  103.1170  -37.8470 C.2    51  LEU51       0.2592
     15  O        126.2890  103.4920  -38.3870 O.2    51  LEU51      -0.2718
     16  CB       127.2460  100.6640  -38.3360 C.3    51  LEU51       0.0284
     17  CG       127.0500   99.2200  -37.8610 C.3    51  LEU51       0.0019
     18  CD1      126.7640   98.3180  -39.0580 C.3    51  LEU51       0.0001
     19  CD2      128.2640   98.7180  -37.0830 C.3    51  LEU51       0.0001
     20  N        128.4030  103.8870  -37.7350 N.am   52  TRP52      -0.1962
     21  CA       128.4510  105.2360  -38.2940 C.3    52  TRP52       0.1771
     22  C        129.4500  105.3110  -39.4420 C.2    52  TRP52       0.2619
     23  O        130.5440  104.7660  -39.3420 O.2    52  TRP52      -0.2715
     24  CB       128.8680  106.2290  -37.2030 C.3    52  TRP52       0.0590
     25  CG       127.8490  106.3730  -36.1220 C.ar   52  TRP52       0.0006
     26  CD1      127.7670  105.6540  -34.9620 C.ar   52  TRP52       0.0946
     27  CD2      126.7600  107.3000  -36.0990 C.ar   52  TRP52       0.0152
     28  NE1      126.6880  106.0780  -34.2190 N.ar   52  TRP52      -0.2442
     29  CE2      126.0530  107.0870  -34.9000 C.ar   52  TRP52       0.0810
     30  CE3      126.3110  108.2910  -36.9830 C.ar   52  TRP52       0.0012
     31  CZ2      124.9220  107.8290  -34.5580 C.ar   52  TRP52       0.0191
     32  CZ3      125.1860  109.0210  -36.6440 C.ar   52  TRP52       0.0001
     33  CH2      124.5080  108.7890  -35.4420 C.ar   52  TRP52       0.0015
     34  N        129.0790  105.9980  -40.5230 N.am   53  VAL53      -0.1977
     35  CA       130.0040  106.2530  -41.6210 C.3    53  VAL53       0.1596
     36  C        129.8990  107.7070  -42.0880 C.2    53  VAL53       0.2287
     37  O        128.8650  108.3420  -41.9110 O.2    53  VAL53      -0.2864
     38  CB       129.7350  105.3160  -42.8160 C.3    53  VAL53       0.0276
     39  CG1      130.0530  103.8690  -42.4350 C.3    53  VAL53       0.0022
     40  CG2      128.2970  105.4470  -43.2810 C.3    53  VAL53       0.0022
     41  N        128.2290  106.5840  -47.5310 N.3    56  THR56      -0.1204
     42  CA       127.5780  105.2900  -47.6600 C.3    56  THR56       0.1979
     43  C        128.4020  104.3270  -48.5050 C.2    56  THR56       0.2459
     44  O        128.7580  104.6390  -49.6410 O.2    56  THR56      -0.2732
     45  CB       126.1800  105.4530  -48.2710 C.3    56  THR56       0.1783
     46  OG1      125.4540  106.4360  -47.5200 O.3    56  THR56      -0.2211
     47  CG2      125.4170  104.1300  -48.2460 C.3    56  THR56       0.0376
     48  N        128.7140  103.1510  -47.9440 N.am   57  PRO57      -0.2728
     49  CA       129.4390  102.1180  -48.6880 C.3    57  PRO57       0.1401
     50  C        128.5280  101.4780  -49.7280 C.2    57  PRO57       0.2269
     51  O        127.3180  101.6950  -49.7040 O.2    57  PRO57      -0.2865
     52  CB       129.8020  101.0810  -47.6140 C.3    57  PRO57       0.0296
     53  CG       129.3240  101.6320  -46.3090 C.3    57  PRO57       0.0237
     54  CD       128.3310  102.7030  -46.5950 C.3    57  PRO57       0.0939
     55  N        128.1010   95.5110  -49.0850 N.3    61  THR61      -0.1218
     56  CA       128.9790   95.6810  -47.9290 C.3    61  THR61       0.1862
     57  C        128.3880   94.9100  -46.7510 C.2    61  THR61       0.2287
     58  O        127.1680   94.8550  -46.5920 O.2    61  THR61      -0.2866
     59  CB       129.1190   97.1720  -47.5650 C.3    61  THR61       0.1770
     60  OG1      129.7350   97.8730  -48.6550 O.3    61  THR61      -0.2211
     61  CG2      129.9630   97.3560  -46.3010 C.3    61  THR61       0.0375
     62  N        125.0360   94.9250  -44.5830 N.3   126  CYS126     -0.1221
     63  CA       124.7080   96.2740  -44.1620 C.3   126  CYS126      0.1808
     64  C        123.4790   96.7670  -44.9080 C.2   126  CYS126      0.2601
     65  O        123.2750   96.4540  -46.0870 O.2   126  CYS126     -0.2717
     66  CB       125.8690   97.2250  -44.4350 C.3   126  CYS126      0.0970
     67  SG       127.3730   96.7830  -43.5730 S.3   126  CYS126     -0.0800
     68  N        122.6590   97.5350  -44.2060 N.am  127  GLU127     -0.1966
     69  CA       121.5580   98.2540  -44.8240 C.3   127  GLU127      0.1718
     70  C        121.6640   99.6940  -44.3520 C.2   127  GLU127      0.2458
     71  O        122.1380   99.9480  -43.2460 O.2   127  GLU127     -0.2730
     72  CB       120.2130   97.6410  -44.4200 C.3   127  GLU127      0.0428
     73  CG       119.9700   96.2500  -44.9890 C.3   127  GLU127      0.1163
     74  CD       120.0260   96.2180  -46.5110 C.2   127  GLU127      0.3649
     75  OE1      120.5990   95.2560  -47.0710 O.co2 127  GLU127     -0.2457
     76  OE2      119.5010   97.1560  -47.1510 O.co2 127  GLU127     -0.2457
     77  N        121.2590  100.6470  -45.2020 N.am  128  PRO128     -0.2716
     78  CA       121.2950  102.0600  -44.8160 C.3   128  PRO128      0.1521
     79  C        120.3350  102.3490  -43.6670 C.2   128  PRO128      0.2440
     80  O        119.3990  101.5840  -43.4380 O.2   128  PRO128     -0.2731
     81  CB       120.8280  102.7860  -46.0860 C.3   128  PRO128      0.0310
     82  CG       121.0530  101.8060  -47.2010 C.3   128  PRO128      0.0237
     83  CD       120.8050  100.4620  -46.5910 C.3   128  PRO128      0.0939
     84  N        120.5680  103.4510  -42.9390 N.am  129  PRO129     -0.2727
     85  CA       119.6860  103.8140  -41.8280 C.3   129  PRO129      0.1402
     86  C        118.2360  103.9000  -42.2920 C.2   129  PRO129      0.2269
     87  O        117.9830  104.3090  -43.4240 O.2   129  PRO129     -0.2865
     88  CB       120.1890  105.2030  -41.4270 C.3   129  PRO129      0.0296
     89  CG       121.6150  105.2270  -41.8480 C.3   129  PRO129      0.0237
     90  CD       121.6830  104.3970  -43.1040 C.3   129  PRO129      0.0939
     91  N        119.9850  108.2840  -38.2370 N.3   134  ASP134     -0.1225
     92  CA       121.2580  108.7410  -38.7880 C.3   134  ASP134      0.1805
     93  C        122.2900  107.6200  -38.8870 C.2   134  ASP134      0.2598
     94  O        123.3370  107.7790  -39.5110 O.2   134  ASP134     -0.2718
     95  CB       121.8190  109.8860  -37.9430 C.3   134  ASP134      0.1424
     96  CG       121.0390  111.1750  -38.1190 C.2   134  ASP134      0.3668
     97  OD1      120.6020  111.4470  -39.2550 O.co2 134  ASP134     -0.2456
     98  OD2      120.8680  111.9140  -37.1240 O.co2 134  ASP134     -0.2456
     99  N        121.9970  106.4890  -38.2600 N.am  135  CYS135     -0.1956
    100  CA       122.9240  105.3710  -38.2790 C.3   135  CYS135      0.1843
    101  C        122.1590  104.0640  -38.4070 C.2   135  CYS135      0.2626
    102  O        120.9390  104.0330  -38.2550 O.2   135  CYS135     -0.2714
    103  CB       123.7740  105.3610  -37.0080 C.3   135  CYS135      0.0997
    104  SG       122.8400  105.0270  -35.4960 S.3   135  CYS135     -0.0797
    105  N        122.8830  102.9910  -38.6990 N.am  136  THR136     -0.1950
    106  CA       122.2980  101.6630  -38.7210 C.3   136  THR136      0.1897
    107  C        122.6920  100.9700  -37.4260 C.2   136  THR136      0.2313
    108  O        123.7800  101.2030  -36.9050 O.2   136  THR136     -0.2863
    109  CB       122.8070  100.8460  -39.9200 C.3   136  THR136      0.1794
    110  OG1      122.4880  101.5400  -41.1320 O.3   136  THR136     -0.2208
    111  CG2      122.1550   99.4690  -39.9450 C.3   136  THR136      0.0378
    112  N        134.0260   96.1730  -41.0520 N.3   163  LEU163     -0.1245
    113  CA       133.2520   96.4750  -42.2410 C.3   163  LEU163      0.1561
    114  C        133.9890   95.8350  -43.4210 C.2   163  LEU163      0.2260
    115  O        135.2000   96.0150  -43.5640 O.2   163  LEU163     -0.2867
    116  CB       133.1500   97.9930  -42.4110 C.3   163  LEU163      0.0270
    117  CG       132.1460   98.4830  -43.4560 C.3   163  LEU163      0.0019
    118  CD1      130.7220   98.2160  -42.9790 C.3   163  LEU163      0.0001
    119  CD2      132.3600   99.9720  -43.7480 C.3   163  LEU163      0.0001
@<TRIPOS>BOND
     1    50    51    2
     2    50    49    1
     3    44    43    2
     4    55    56    1
     5    49    48    1
     6    49    52    1
     7    60    59    1
     8    43    48   am
     9    43    42    1
    10    45    47    1
    11    45    42    1
    12    45    46    1
    13    48    54    1
    14    56    59    1
    15    56    57    1
    16    42    41    1
    17    52    53    1
    18    59    61    1
    19    82    83    1
    20    82    81    1
    21    76    74   ar
    22    75    74   ar
    23    57    58    2
    24    54    53    1
    25    83    77    1
    26    74    73    1
    27    65    64    2
    28    81    78    1
    29    77    78    1
    30    77    70   am
    31    73    72    1
    32    64    68   am
    33    64    63    1
    34    69    72    1
    35    69    70    1
    36    69    68    1
    37    78    79    1
    38    62    63    1
    39    66    63    1
    40    66    67    1
    41    70    71    2
    42   119   117    1
    43    79    80    2
    44    79    84   am
    45   115   114    2
    46   117   118    1
    47   117   116    1
    48    87    86    2
    49   114   113    1
    50    40    38    1
    51    90    84    1
    52    90    89    1
    53    84    85    1
    54    38    39    1
    55    38    35    1
    56   116   113    1
    57    86    85    1
    58   113   112    1
    59    36    37    2
    60    36    35    1
    61    89    88    1
    62    85    88    1
    63    35    34    1
    64   110   109    1
    65     1     2    1
    66     5     2    1
    67     5     6    1
    68    34    22   am
    69     2     3    1
    70     7     6   ar
    71     7     9   ar
    72     6     8   ar
    73   111   109    1
    74   109   106    1
    75    94    93    2
    76    22    23    2
    77    22    21    1
    78    97    96   ar
    79     9    11   ar
    80     8    10   ar
    81    18    17    1
    82    93    92    1
    83    93    99   am
    84     3     4    2
    85    92    91    1
    86    92    95    1
    87   106   105    1
    88   106   107    1
    89   105   101   am
    90    11    10   ar
    91   101   100    1
    92   101   102    2
    93    15    14    2
    94    16    17    1
    95    16    13    1
    96    21    20    1
    97    21    24    1
    98   100    99    1
    99   100   103    1
   100    96    95    1
   101    96    98   ar
   102    17    19    1
   103    14    20   am
   104    14    13    1
   105   107   108    2
   106    13    12    1
   107    24    25    1
   108   103   104    1
   109    30    32   ar
   110    30    27   ar
   111    32    33   ar
   112    25    27   ar
   113    25    26   ar
   114    27    29   ar
   115    33    31   ar
   116    26    28   ar
   117    29    31   ar
   118    29    28   ar
