@<TRIPOS>MOLECULE
tmp/2x0wB00.pdb
 114 112 0 0 0
SMALL
GASTEIGER

@<TRIPOS>ATOM
      1  N        126.4340  100.8220  -36.3250 N.3    49  LEU49      -0.1245
      2  CA       127.4480  100.9160  -37.3580 C.3    49  LEU49       0.1561
      3  C        127.3610  102.3100  -37.9780 C.2    49  LEU49       0.2260
      4  O        126.3640  102.6760  -38.5850 O.2    49  LEU49      -0.2867
      5  CB       127.2480   99.8190  -38.4040 C.3    49  LEU49       0.0270
      6  CG       127.0450   98.4150  -37.8160 C.3    49  LEU49       0.0019
      7  CD1      126.7200   97.4080  -38.9220 C.3    49  LEU49       0.0001
      8  CD2      128.2580   97.9680  -37.0060 C.3    49  LEU49       0.0001
      9  N        129.0380  105.1940  -40.5270 N.3    51  VAL51      -0.1245
     10  CA       129.9080  105.4130  -41.6640 C.3    51  VAL51       0.1561
     11  C        129.7820  106.8610  -42.1130 C.2    51  VAL51       0.2260
     12  O        128.7330  107.4780  -41.9380 O.2    51  VAL51      -0.2867
     13  CB       129.5660  104.4690  -42.8310 C.3    51  VAL51       0.0252
     14  CG1      129.9190  103.0280  -42.4620 C.3    51  VAL51       0.0019
     15  CG2      128.0940  104.5910  -43.2230 C.3    51  VAL51       0.0019
     16  N        130.3850  107.5840  -45.4050 N.3    53  SER53      -0.1202
     17  CA       129.7640  107.4120  -46.7140 C.3    53  SER53       0.2020
     18  C        129.2270  105.9930  -46.8930 C.2    53  SER53       0.2619
     19  O        129.6750  105.0540  -46.2250 O.2    53  SER53      -0.2717
     20  CB       130.7190  107.8040  -47.8570 C.3    53  SER53       0.2103
     21  OG       132.0500  107.3860  -47.6130 O.3    53  SER53      -0.2182
     22  N        128.2580  105.8550  -47.7970 N.am   54  THR54      -0.1939
     23  CA       127.5570  104.6000  -48.0020 C.3    54  THR54       0.2013
     24  C        128.4070  103.5520  -48.7080 C.2    54  THR54       0.2484
     25  O        128.8330  103.7590  -49.8380 O.2    54  THR54      -0.2729
     26  CB       126.2920  104.8320  -48.8280 C.3    54  THR54       0.1807
     27  OG1      125.4760  105.8040  -48.1640 O.3    54  THR54      -0.2208
     28  CG2      125.5130  103.5280  -48.9980 C.3    54  THR54       0.0379
     29  N        128.6440  102.4100  -48.0450 N.am   55  PRO55      -0.2715
     30  CA       129.3350  101.2860  -48.6840 C.3    55  PRO55       0.1521
     31  C        128.4040  100.6600  -49.7110 C.2    55  PRO55       0.2440
     32  O        127.1940  100.8560  -49.6200 O.2    55  PRO55      -0.2731
     33  CB       129.5500  100.2880  -47.5380 C.3    55  PRO55       0.0310
     34  CG       128.9260  100.8840  -46.3280 C.3    55  PRO55       0.0237
     35  CD       128.0810  102.0440  -46.7390 C.3    55  PRO55       0.0939
     36  N        128.9650   99.9180  -50.6760 N.am   56  PRO56      -0.2717
     37  CA       128.2170   99.2940  -51.7750 C.3    56  PRO56       0.1521
     38  C        127.2680   98.1800  -51.3360 C.2    56  PRO56       0.2440
     39  O        127.4610   97.5850  -50.2730 O.2    56  PRO56      -0.2731
     40  CB       129.3250   98.7050  -52.6570 C.3    56  PRO56       0.0310
     41  CG       130.5500   99.4800  -52.3060 C.3    56  PRO56       0.0237
     42  CD       130.4220   99.7730  -50.8510 C.3    56  PRO56       0.0939
     43  N        126.2430   97.8950  -52.1560 N.am   57  PRO57      -0.2727
     44  CA       125.3880   96.7280  -51.9060 C.3    57  PRO57       0.1402
     45  C        126.2660   95.4880  -51.9000 C.2    57  PRO57       0.2269
     46  O        127.1900   95.3880  -52.7150 O.2    57  PRO57      -0.2865
     47  CB       124.4510   96.7040  -53.1230 C.3    57  PRO57       0.0296
     48  CG       124.4430   98.1400  -53.6270 C.3    57  PRO57       0.0237
     49  CD       125.8180   98.6700  -53.3370 C.3    57  PRO57       0.0939
     50  N        128.0170   94.7630  -49.2000 N.3    59  THR59      -0.1218
     51  CA       128.8620   94.9850  -48.0210 C.3    59  THR59       0.1862
     52  C        128.3110   94.2170  -46.8190 C.2    59  THR59       0.2287
     53  O        127.1030   94.1650  -46.6110 O.2    59  THR59      -0.2866
     54  CB       128.9800   96.4870  -47.6740 C.3    59  THR59       0.1770
     55  OG1      129.6110   97.1840  -48.7580 O.3    59  THR59      -0.2211
     56  CG2      129.7980   96.6910  -46.4030 C.3    59  THR59       0.0375
     57  N        125.0720   94.2520  -44.5840 N.3   124  CYS124     -0.1221
     58  CA       124.7340   95.5860  -44.1140 C.3   124  CYS124      0.1808
     59  C        123.5370   96.1270  -44.8690 C.2   124  CYS124      0.2601
     60  O        123.4100   95.9450  -46.0860 O.2   124  CYS124     -0.2717
     61  CB       125.8960   96.5400  -44.3160 C.3   124  CYS124      0.0970
     62  SG       127.3160   96.0710  -43.3780 S.3   124  CYS124     -0.0800
     63  N        122.6640   96.8000  -44.1390 N.am  125  GLU125     -0.1966
     64  CA       121.5470   97.4840  -44.7490 C.3   125  GLU125      0.1718
     65  C        121.6440   98.9540  -44.3960 C.2   125  GLU125      0.2458
     66  O        122.2610   99.3110  -43.3990 O.2   125  GLU125     -0.2730
     67  CB       120.2290   96.9090  -44.2410 C.3   125  GLU125      0.0428
     68  CG       119.9170   95.5240  -44.7620 C.3   125  GLU125      0.1163
     69  CD       118.6320   94.9830  -44.1690 C.2   125  GLU125      0.3649
     70  OE1      117.5940   95.6760  -44.2730 O.co2 125  GLU125     -0.2457
     71  OE2      118.6600   93.8740  -43.5910 O.co2 125  GLU125     -0.2457
     72  N        121.0440   99.8150  -45.2220 N.am  126  PRO126     -0.2716
     73  CA       121.0090  101.2440  -44.9020 C.3   126  PRO126      0.1521
     74  C        120.2260  101.4880  -43.6170 C.2   126  PRO126      0.2440
     75  O        119.3980  100.6610  -43.2280 O.2   126  PRO126     -0.2731
     76  CB       120.2610  101.8510  -46.0930 C.3   126  PRO126      0.0310
     77  CG       120.3710  100.8360  -47.1860 C.3   126  PRO126      0.0237
     78  CD       120.3710   99.5130  -46.4950 C.3   126  PRO126      0.0939
     79  N        120.4960  102.6170  -42.9500 N.am  127  PRO127     -0.2727
     80  CA       119.7200  103.0090  -41.7730 C.3   127  PRO127      0.1402
     81  C        118.2400  103.0570  -42.1340 C.2   127  PRO127      0.2269
     82  O        117.9270  103.4860  -43.2430 O.2   127  PRO127     -0.2865
     83  CB       120.2190  104.4250  -41.4900 C.3   127  PRO127      0.0296
     84  CG       121.5820  104.4720  -42.0740 C.3   127  PRO127      0.0237
     85  CD       121.5300  103.6080  -43.2930 C.3   127  PRO127      0.0939
     86  N        120.0160  107.5590  -38.3050 N.3   132  ASP132     -0.1225
     87  CA       121.3010  108.0000  -38.8420 C.3   132  ASP132      0.1805
     88  C        122.3330  106.8880  -38.9540 C.2   132  ASP132      0.2598
     89  O        123.4040  107.0770  -39.5350 O.2   132  ASP132     -0.2718
     90  CB       121.8650  109.1340  -37.9870 C.3   132  ASP132      0.1424
     91  CG       121.0920  110.4300  -38.1570 C.2   132  ASP132      0.3668
     92  OD1      120.6200  110.7030  -39.2800 O.co2 132  ASP132     -0.2456
     93  OD2      120.9600  111.1740  -37.1640 O.co2 132  ASP132     -0.2456
     94  N        122.0180  105.7270  -38.3970 N.am  133  CYS133     -0.1956
     95  CA       122.9510  104.6200  -38.4430 C.3   133  CYS133      0.1843
     96  C        122.2030  103.3060  -38.5330 C.2   133  CYS133      0.2626
     97  O        120.9950  103.2470  -38.2910 O.2   133  CYS133     -0.2714
     98  CB       123.8650  104.6240  -37.2120 C.3   133  CYS133      0.0997
     99  SG       123.0050  104.2970  -35.6550 S.3   133  CYS133     -0.0797
    100  N        122.9300  102.2600  -38.9060 N.am  134  THR134     -0.1950
    101  CA       122.3920  100.9150  -38.8910 C.3   134  THR134      0.1897
    102  C        122.7600  100.3230  -37.5500 C.2   134  THR134      0.2313
    103  O        123.8380  100.5960  -37.0270 O.2   134  THR134     -0.2863
    104  CB       123.0290  100.0460  -39.9880 C.3   134  THR134      0.1794
    105  OG1      123.2170  100.8320  -41.1690 O.3   134  THR134     -0.2208
    106  CG2      122.1450   98.8550  -40.3060 C.3   134  THR134      0.0378
    107  N        134.0350   95.4840  -41.0820 N.3   161  LEU161     -0.1245
    108  CA       133.2040   95.7870  -42.2280 C.3   161  LEU161      0.1561
    109  C        133.9560   95.1860  -43.4120 C.2   161  LEU161      0.2260
    110  O        135.1690   95.3830  -43.5460 O.2   161  LEU161     -0.2867
    111  CB       133.0250   97.2990  -42.3840 C.3   161  LEU161      0.0270
    112  CG       132.0200   97.7650  -43.4480 C.3   161  LEU161      0.0019
    113  CD1      130.5830   97.4970  -43.0130 C.3   161  LEU161      0.0001
    114  CD2      132.2210   99.2400  -43.7440 C.3   161  LEU161      0.0001
@<TRIPOS>BOND
     1    48    49    1
     2    48    47    1
     3    49    43    1
     4    47    44    1
     5    46    45    2
     6    40    41    1
     7    40    37    1
     8    41    42    1
     9    43    44    1
    10    43    38   am
    11    44    45    1
    12    37    38    1
    13    37    36    1
    14    38    39    2
    15    42    36    1
    16    36    31   am
    17    25    24    2
    18    31    32    2
    19    31    30    1
    20    50    51    1
    21    28    26    1
    22    26    27    1
    23    26    23    1
    24    55    54    1
    25    24    29   am
    26    24    23    1
    27    30    29    1
    28    30    33    1
    29    29    35    1
    30    51    54    1
    31    51    52    1
    32    23    22    1
    33    20    21    1
    34    20    17    1
    35    22    18   am
    36    54    56    1
    37    33    34    1
    38    77    78    1
    39    77    76    1
    40    18    17    1
    41    18    19    2
    42    52    53    2
    43    35    34    1
    44    17    16    1
    45    78    72    1
    46    76    73    1
    47    60    59    2
    48    72    73    1
    49    72    65   am
    50    73    74    1
    51    59    63   am
    52    59    58    1
    53    68    67    1
    54    68    69    1
    55    64    65    1
    56    64    67    1
    57    64    63    1
    58    57    58    1
    59    65    66    2
    60    61    58    1
    61    61    62    1
    62    70    69   ar
    63    69    71   ar
    64   114   112    1
    65    74    75    2
    66    74    79   am
    67   110   109    2
    68   112   113    1
    69   112   111    1
    70   109   108    1
    71    85    79    1
    72    85    84    1
    73    82    81    2
    74    15    13    1
    75    79    80    1
    76    13    14    1
    77    13    10    1
    78   111   108    1
    79   108   107    1
    80    81    80    1
    81    11    12    2
    82    11    10    1
    83    84    83    1
    84    80    83    1
    85    10     9    1
    86   105   104    1
    87   106   104    1
    88   104   101    1
    89    89    88    2
    90    92    91   ar
    91    88    87    1
    92    88    94   am
    93     7     6    1
    94   100   101    1
    95   100    96   am
    96   101   102    1
    97    87    86    1
    98    87    90    1
    99     4     3    2
   100    96    95    1
   101    96    97    2
   102    95    94    1
   103    95    98    1
   104     5     6    1
   105     5     2    1
   106    91    90    1
   107    91    93   ar
   108     3     2    1
   109     6     8    1
   110   102   103    2
   111     2     1    1
   112    98    99    1
