@<TRIPOS>MOLECULE
tmp/2x0yB00.pdb
 194 188 0 0 0
SMALL
GASTEIGER

@<TRIPOS>ATOM
      1  N         -0.9390    1.0420    8.7390 N.3   148  GLY148     -0.1225
      2  CA        -1.0160    1.0380   10.1970 C.3   148  GLY148      0.1811
      3  C         -1.0740    2.3930   10.8890 C.2   148  GLY148      0.2280
      4  O         -0.9040    2.4750   12.1080 O.2   148  GLY148     -0.2866
      5  N         -2.7010    5.9450   12.3760 N.3   150  TYR150     -0.1241
      6  CA        -3.9110    6.5640   12.8930 C.3   150  TYR150      0.1605
      7  C         -4.3440    7.6900   11.9360 C.2   150  TYR150      0.2264
      8  O         -3.5260    8.2020   11.1620 O.2   150  TYR150     -0.2867
      9  CB        -3.6700    7.1310   14.2960 C.3   150  TYR150      0.0534
     10  CG        -3.4310    6.0800   15.3700 C.ar  150  TYR150     -0.0201
     11  CD1       -2.1340    5.7380   15.7540 C.ar  150  TYR150     -0.0009
     12  CD2       -4.4960    5.4470   16.0150 C.ar  150  TYR150     -0.0009
     13  CE1       -1.8950    4.8040   16.7410 C.ar  150  TYR150      0.0417
     14  CE2       -4.2690    4.4980   17.0110 C.ar  150  TYR150      0.0417
     15  CZ        -2.9550    4.1810   17.3590 C.ar  150  TYR150      0.1957
     16  OH        -2.6890    3.2570   18.3350 O.3   150  TYR150     -0.2866
     17  N         -7.3270    0.9250   10.9280 N.3   179  LYS179     -0.1245
     18  CA        -7.9600    1.1400   12.2330 C.3   179  LYS179      0.1561
     19  C         -9.4740    1.2390   12.1160 C.2   179  LYS179      0.2260
     20  O        -10.1900    0.8710   13.0550 O.2   179  LYS179     -0.2867
     21  CB        -7.4530    2.4220   12.9180 C.3   179  LYS179      0.0271
     22  CG        -5.9440    2.6620   12.8660 C.3   179  LYS179      0.0035
     23  CD        -5.2000    1.8020   13.8580 C.3   179  LYS179      0.0206
     24  CE        -3.7570    2.2330   13.9510 C.3   179  LYS179      0.1093
     25  NZ        -2.9630    1.2640   14.7520 N.3   179  LYS179     -0.1314
     26  N        -11.2810   -5.8820   11.6040 N.3   184  HIS184     -0.1241
     27  CA        -9.8680   -6.0190   11.9020 C.3   184  HIS184      0.1621
     28  C         -9.5710   -6.0110   13.4180 C.2   184  HIS184      0.2264
     29  O         -8.5980   -6.6180   13.8610 O.2   184  HIS184     -0.2867
     30  CB        -9.0810   -4.9440   11.1440 C.3   184  HIS184      0.0745
     31  CG        -8.0500   -4.2510   11.9660 C.ar  184  HIS184      0.0817
     32  ND1       -6.7600   -4.7210   12.0880 N.ar  184  HIS184     -0.2268
     33  CD2       -8.1180   -3.1250   12.7160 C.ar  184  HIS184      0.1154
     34  CE1       -6.0750   -3.9120   12.8770 C.ar  184  HIS184      0.1986
     35  NE2       -6.8750   -2.9350   13.2710 N.ar  184  HIS184     -0.2212
     36  N         -6.1740   -7.6580   15.1090 N.3   219  SER219     -0.1217
     37  CA        -5.7750   -7.1770   16.4300 C.3   219  SER219      0.1889
     38  C         -6.7850   -7.5930   17.5070 C.2   219  SER219      0.2288
     39  O         -7.7330   -6.8510   17.8010 O.2   219  SER219     -0.2866
     40  CB        -5.5750   -5.6600   16.4240 C.3   219  SER219      0.2089
     41  OG        -4.5280   -5.3000   15.5370 O.3   219  SER219     -0.2183
     42  N         -1.5010   -9.1580   15.8700 N.3   256  TYR256     -0.1241
     43  CA        -0.8820   -8.0880   16.6470 C.3   256  TYR256      0.1605
     44  C         -1.1420   -8.1630   18.1500 C.2   256  TYR256      0.2264
     45  O         -2.2750   -8.3600   18.5920 O.2   256  TYR256     -0.2867
     46  CB        -1.3970   -6.7220   16.1550 C.3   256  TYR256      0.0534
     47  CG        -1.0380   -6.3750   14.7260 C.ar  256  TYR256     -0.0201
     48  CD1       -1.8180   -5.4950   13.9950 C.ar  256  TYR256     -0.0009
     49  CD2        0.0800   -6.9290   14.1050 C.ar  256  TYR256     -0.0009
     50  CE1       -1.4940   -5.1630   12.6850 C.ar  256  TYR256      0.0417
     51  CE2        0.4150   -6.6040   12.7880 C.ar  256  TYR256      0.0417
     52  CZ        -0.3820   -5.7260   12.0930 C.ar  256  TYR256      0.1957
     53  OH        -0.0600   -5.3950   10.8060 O.3   256  TYR256     -0.2866
     54  N          0.4800   -5.4850   19.9650 N.3   258  ASP258     -0.1239
     55  CA         0.9870   -4.1260   20.2910 C.3   258  ASP258      0.1674
     56  C          0.1320   -3.3260   21.2920 C.2   258  ASP258      0.2266
     57  O          0.6720   -2.5560   22.0860 O.2   258  ASP258     -0.2867
     58  CB         1.1560   -3.2930   19.0080 C.3   258  ASP258      0.1410
     59  CG        -0.1690   -2.9180   18.3830 C.2   258  ASP258      0.3668
     60  OD1       -0.5990   -1.7620   18.5310 O.co2 258  ASP258     -0.2456
     61  OD2       -0.8170   -3.7820   17.7720 O.co2 258  ASP258     -0.2456
     62  N          3.3240   -8.8460   15.7300 N.3   292  VAL292     -0.1245
     63  CA         3.9780   -7.7400   16.4490 C.3   292  VAL292      0.1561
     64  C          3.8190   -7.9840   17.9420 C.2   292  VAL292      0.2260
     65  O          2.7020   -7.9710   18.4430 O.2   292  VAL292     -0.2867
     66  CB         3.3910   -6.3280   16.1210 C.3   292  VAL292      0.0252
     67  CG1        4.1870   -5.2270   16.8570 C.3   292  VAL292      0.0019
     68  CG2        3.4020   -6.0550   14.6150 C.3   292  VAL292      0.0019
     69  N          7.8200   -3.8710   21.0430 N.3   296  TYR296     -0.1241
     70  CA         8.1500   -3.9510   19.6020 C.3   296  TYR296      0.1605
     71  C          9.1740   -2.9520   19.0850 C.2   296  TYR296      0.2264
     72  O          9.4070   -2.8640   17.8830 O.2   296  TYR296     -0.2867
     73  CB         6.8810   -3.8630   18.7480 C.3   296  TYR296      0.0534
     74  CG         6.0310   -2.6420   19.0230 C.ar  296  TYR296     -0.0201
     75  CD1        4.9520   -2.7000   19.9130 C.ar  296  TYR296     -0.0009
     76  CD2        6.3100   -1.4220   18.3980 C.ar  296  TYR296     -0.0009
     77  CE1        4.1710   -1.5780   20.1670 C.ar  296  TYR296      0.0417
     78  CE2        5.5350   -0.2910   18.6450 C.ar  296  TYR296      0.0417
     79  CZ         4.4740   -0.3770   19.5220 C.ar  296  TYR296      0.1957
     80  OH         3.7170    0.7440   19.7550 O.3   296  TYR296     -0.2866
     81  N          7.8660   -8.7530   14.0610 N.3   325  MET325     -0.1230
     82  CA         8.2070   -7.3730   13.6710 C.3   325  MET325      0.1702
     83  C          8.6770   -6.5250   14.8480 C.2   325  MET325      0.2592
     84  O          8.1710   -6.6550   15.9480 O.2   325  MET325     -0.2718
     85  CB         7.0240   -6.6550   13.0240 C.3   325  MET325      0.0401
     86  CG         6.2770   -7.4390   12.0000 C.3   325  MET325      0.0596
     87  SD         5.1930   -6.3310   11.0920 S.3   325  MET325     -0.1393
     88  CE         6.2610   -6.0150    9.7100 C.3   325  MET325      0.0692
     89  N          9.6330   -5.6440   14.5830 N.am  326  TRP326     -0.1962
     90  CA        10.0320   -4.6160   15.5380 C.3   326  TRP326      0.1771
     91  C         10.2790   -3.3720   14.6960 C.2   326  TRP326      0.2620
     92  O         10.4800   -3.4970   13.4920 O.2   326  TRP326     -0.2715
     93  CB        11.2470   -5.0790   16.3730 C.3   326  TRP326      0.0590
     94  CG        12.6220   -4.5150   16.0620 C.ar  326  TRP326      0.0006
     95  CD1       13.3580   -3.6720   16.8680 C.ar  326  TRP326      0.0946
     96  CD2       13.4470   -4.7870   14.9250 C.ar  326  TRP326      0.0152
     97  NE1       14.5640   -3.3900   16.2880 N.ar  326  TRP326     -0.2442
     98  CE2       14.6460   -4.0560   15.0940 C.ar  326  TRP326      0.0810
     99  CE3       13.2870   -5.5640   13.7690 C.ar  326  TRP326      0.0012
    100  CZ2       15.6880   -4.0910   14.1600 C.ar  326  TRP326      0.0191
    101  CZ3       14.3210   -5.6000   12.8380 C.ar  326  TRP326      0.0001
    102  CH2       15.5080   -4.8660   13.0370 C.ar  326  TRP326      0.0015
    103  N         10.2480   -2.1940   15.3150 N.am  327  THR327     -0.1951
    104  CA        10.2810   -0.9400   14.5570 C.3   327  THR327      0.1897
    105  C         11.6730   -0.3210   14.5030 C.2   327  THR327      0.2313
    106  O         11.8650    0.7350   13.9020 O.2   327  THR327     -0.2863
    107  CB         9.2870    0.0980   15.1240 C.3   327  THR327      0.1794
    108  OG1        9.6700    0.4480   16.4520 O.3   327  THR327     -0.2208
    109  CG2        7.8270   -0.4280   15.1210 C.3   327  THR327      0.0378
    110  N         10.0370    3.6840   18.5260 N.3   331  VAL331     -0.1231
    111  CA         8.8450    3.5460   17.6650 C.3   331  VAL331      0.1692
    112  C          9.0150    4.3940   16.3790 C.2   331  VAL331      0.2591
    113  O          8.8010    3.9010   15.2440 O.2   331  VAL331     -0.2718
    114  CB         7.5340    3.8860   18.4220 C.3   331  VAL331      0.0266
    115  CG1        6.3140    3.9620   17.4520 C.3   331  VAL331      0.0020
    116  CG2        7.2810    2.8500   19.5190 C.3   331  VAL331      0.0020
    117  N          9.4380    5.6420   16.5680 N.am  332  VAL332     -0.1980
    118  CA         9.7600    6.5370   15.4570 C.3   332  VAL332      0.1595
    119  C         11.1520    7.1140   15.7210 C.2   332  VAL332      0.2287
    120  O         11.3180    7.9540   16.6030 O.2   332  VAL332     -0.2864
    121  CB         8.7100    7.6870   15.3170 C.3   332  VAL332      0.0276
    122  CG1        9.1480    8.6690   14.2550 C.3   332  VAL332      0.0022
    123  CG2        7.3290    7.1310   14.9850 C.3   332  VAL332      0.0022
    124  N          8.9700   -3.0290   10.8080 N.3   355  TRP355     -0.1241
    125  CA         7.8560   -2.1020   10.6580 C.3   355  TRP355      0.1605
    126  C          8.4560   -0.6940   10.7750 C.2   355  TRP355      0.2264
    127  O          8.7240   -0.2240   11.8660 O.2   355  TRP355     -0.2867
    128  CB         6.7990   -2.3530   11.7530 C.3   355  TRP355      0.0550
    129  CG         5.6700   -1.3500   11.8230 C.ar  355  TRP355      0.0003
    130  CD1        5.7750    0.0220   11.8720 C.ar  355  TRP355      0.0946
    131  CD2        4.2650   -1.6380   11.8880 C.ar  355  TRP355      0.0152
    132  NE1        4.5300    0.5930   11.9380 N.ar  355  TRP355     -0.2442
    133  CE2        3.5850   -0.3970   11.9600 C.ar  355  TRP355      0.0810
    134  CE3        3.5160   -2.8190   11.8860 C.ar  355  TRP355      0.0012
    135  CZ2        2.1870   -0.3090   12.0320 C.ar  355  TRP355      0.0191
    136  CZ3        2.1330   -2.7290   11.9780 C.ar  355  TRP355      0.0001
    137  CH2        1.4850   -1.4860   12.0480 C.ar  355  TRP355      0.0015
    138  N          8.3890    3.1830   10.7070 N.3   357  ASN357     -0.1240
    139  CA         7.4670    4.3160   10.8350 C.3   357  ASN357      0.1653
    140  C          7.8860    5.6220   10.1300 C.2   357  ASN357      0.2266
    141  O          8.0370    6.6640   10.7570 O.2   357  ASN357     -0.2867
    142  CB         7.1020    4.5470   12.3010 C.3   357  ASN357      0.1155
    143  CG         6.0600    3.5590   12.7830 C.2   357  ASN357      0.2627
    144  OD1        5.0500    3.3360   12.1050 O.2   357  ASN357     -0.2716
    145  ND2        6.2800    2.9830   13.9580 N.am  357  ASN357     -0.0877
    146  N          4.8420    7.7640    7.7500 N.3   360  VAL360     -0.1245
    147  CA         3.6900    8.0330    8.6270 C.3   360  VAL360      0.1561
    148  C          3.8370    9.3670    9.3830 C.2   360  VAL360      0.2260
    149  O          4.9090    9.6640    9.9240 O.2   360  VAL360     -0.2867
    150  CB         3.4310    6.8870    9.6340 C.3   360  VAL360      0.0252
    151  CG1        4.6350    6.6400   10.5120 C.3   360  VAL360      0.0019
    152  CG2        2.2280    7.2020   10.4850 C.3   360  VAL360      0.0019
    153  N          1.1160   10.5070   11.6200 N.3   362  ASP362     -0.1225
    154  CA        -0.0220   10.5910   12.5410 C.3   362  ASP362      0.1805
    155  C          0.3140   11.2710   13.8680 C.2   362  ASP362      0.2597
    156  O         -0.5850   11.7570   14.5510 O.2   362  ASP362     -0.2718
    157  CB        -0.7090    9.2310   12.7700 C.3   362  ASP362      0.1424
    158  CG         0.2470    8.1340   13.3010 C.2   362  ASP362      0.3668
    159  OD1        1.4130    8.4360   13.6450 O.co2 362  ASP362     -0.2456
    160  OD2       -0.1950    6.9520   13.3760 O.co2 362  ASP362     -0.2456
    161  N          1.5960   11.3490   14.2070 N.am  363  TYR363     -0.1976
    162  CA         2.0280   11.9340   15.4770 C.3   363  TYR363      0.1639
    163  C          2.3820   13.4250   15.3470 C.2   363  TYR363      0.2290
    164  O          2.6720   14.0850   16.3440 O.2   363  TYR363     -0.2864
    165  CB         3.2150   11.1490   16.0610 C.3   363  TYR363      0.0560
    166  CG         4.3500   11.0860   15.0830 C.ar  363  TYR363     -0.0198
    167  CD1        5.2910   12.1100   15.0240 C.ar  363  TYR363     -0.0009
    168  CD2        4.4540   10.0290   14.1670 C.ar  363  TYR363     -0.0009
    169  CE1        6.3190   12.0940   14.0990 C.ar  363  TYR363      0.0417
    170  CE2        5.5000   10.0000   13.2410 C.ar  363  TYR363      0.0417
    171  CZ         6.4180   11.0440   13.2110 C.ar  363  TYR363      0.1957
    172  OH         7.4540   11.0320   12.3140 O.3   363  TYR363     -0.2866
    173  N          5.2800    2.1180    7.2510 N.3   390  ASN390     -0.1240
    174  CA         3.9820    2.6670    7.6010 C.3   390  ASN390      0.1653
    175  C          3.9240    4.0760    6.9860 C.2   390  ASN390      0.2266
    176  O          4.7700    4.9180    7.2930 O.2   390  ASN390     -0.2867
    177  CB         3.8340    2.6950    9.1290 C.3   390  ASN390      0.1155
    178  CG         2.4340    3.0900    9.5920 C.2   390  ASN390      0.2627
    179  OD1        1.4680    3.0260    8.8340 O.2   390  ASN390     -0.2716
    180  ND2        2.3240    3.4810   10.8510 N.am  390  ASN390     -0.0877
    181  N          9.2320   12.2720   21.7140 N.3   451  TRP451     -0.1241
    182  CA         9.6520   10.8910   21.5060 C.3   451  TRP451      0.1605
    183  C          9.8510   10.5160   20.0410 C.2   451  TRP451      0.2264
    184  O         10.4790    9.5110   19.7650 O.2   451  TRP451     -0.2867
    185  CB         8.6410    9.9250   22.1440 C.3   451  TRP451      0.0550
    186  CG         7.2470   10.0260   21.5630 C.ar  451  TRP451      0.0003
    187  CD1        6.2710   10.8660   21.9650 C.ar  451  TRP451      0.0946
    188  CD2        6.6980    9.2690   20.4620 C.ar  451  TRP451      0.0152
    189  NE1        5.1330   10.6790   21.2120 N.ar  451  TRP451     -0.2442
    190  CE2        5.3670    9.7060   20.2810 C.ar  451  TRP451      0.0810
    191  CE3        7.1980    8.2490   19.6290 C.ar  451  TRP451      0.0012
    192  CZ2        4.5150    9.1640   19.2940 C.ar  451  TRP451      0.0191
    193  CZ3        6.3570    7.7060   18.6560 C.ar  451  TRP451      0.0001
    194  CH2        5.0290    8.1710   18.4910 C.ar  451  TRP451      0.0015
@<TRIPOS>BOND
     1   175   176    2
     2   175   174    1
     3   173   174    1
     4   174   177    1
     5   146   147    1
     6   147   148    1
     7   147   150    1
     8     1     2    1
     9   179   178    2
    10   177   178    1
    11   148   149    2
    12   178   180   am
    13   150   152    1
    14   150   151    1
    15    88    87    1
    16   140   141    2
    17   140   139    1
    18     2     3    1
    19   125   126    1
    20   125   124    1
    21   125   128    1
    22   138   139    1
    23   126   127    2
    24    53    52    1
    25   139   142    1
    26     3     4    2
    27    17    18    1
    28    87    86    1
    29    30    27    1
    30    30    31    1
    31     8     7    2
    32    26    27    1
    33   153   154    1
    34   128   129    1
    35   129   130   ar
    36   129   131   ar
    37   130   132   ar
    38   134   131   ar
    39   134   136   ar
    40   131   133   ar
    41    27    28    1
    42     7     6    1
    43   132   133   ar
    44   133   135   ar
    45    31    32   ar
    46    31    33   ar
    47   136   137   ar
    48    86    85    1
    49   135   137   ar
    50    32    34   ar
    51    52    50   ar
    52    52    51   ar
    53   144   143    2
    54    19    18    1
    55    19    20    2
    56    18    21    1
    57   142   143    1
    58   172   171    1
    59     5     6    1
    60   154   157    1
    61   154   155    1
    62    50    48   ar
    63    33    35   ar
    64   157   158    1
    65   143   145   am
    66    51    49   ar
    67   101   102   ar
    68   101    99   ar
    69    22    21    1
    70    22    23    1
    71    34    35   ar
    72     6     9    1
    73    85    82    1
    74   102   100   ar
    75   171   170   ar
    76   171   169   ar
    77   170   168   ar
    78   158   160   ar
    79   158   159   ar
    80    28    29    2
    81    92    91    2
    82    82    81    1
    83    82    83    1
    84    99    96   ar
    85    23    24    1
    86   155   161   am
    87   155   156    2
    88   106   105    2
    89    24    25    1
    90    48    47   ar
    91   169   167   ar
    92    49    47   ar
    93   100    98   ar
    94   168   166   ar
    95   161   162    1
    96   122   121    1
    97     9    10    1
    98   105   104    1
    99   104   107    1
   100   104   103    1
   101    89    83   am
   102    89    90    1
   103    68    66    1
   104    91   103   am
   105    91    90    1
   106    47    46    1
   107    83    84    2
   108    96    98   ar
   109    96    94   ar
   110   123   121    1
   111   167   166   ar
   112   166   165    1
   113    98    97   ar
   114    36    37    1
   115   109   107    1
   116   107   108    1
   117   113   112    2
   118   121   118    1
   119   163   162    1
   120   163   164    2
   121    10    11   ar
   122    10    12   ar
   123   118   119    1
   124   118   117    1
   125   162   165    1
   126    41    40    1
   127    90    93    1
   128   119   120    2
   129    62    63    1
   130    11    13   ar
   131    42    43    1
   132    12    14   ar
   133    94    93    1
   134    94    95   ar
   135    66    63    1
   136    66    67    1
   137    46    43    1
   138    97    95   ar
   139   112   117   am
   140   112   111    1
   141    40    37    1
   142    37    38    1
   143    63    64    1
   144    43    44    1
   145    13    15   ar
   146    14    15   ar
   147    15    16    1
   148   115   114    1
   149    38    39    2
   150   111   114    1
   151   111   110    1
   152    61    59   ar
   153    72    71    2
   154    64    65    2
   155    44    45    2
   156    59    60   ar
   157    59    58    1
   158    76    78   ar
   159    76    74   ar
   160   114   116    1
   161   194   193   ar
   162   194   192   ar
   163    78    79   ar
   164   193   191   ar
   165    73    74    1
   166    73    70    1
   167    58    55    1
   168    74    75   ar
   169    71    70    1
   170   192   190   ar
   171    79    80    1
   172    79    77   ar
   173    70    69    1
   174   191   188   ar
   175   184   183    2
   176    75    77   ar
   177    54    55    1
   178   183   182    1
   179   190   188   ar
   180   190   189   ar
   181    55    56    1
   182   188   186   ar
   183   189   187   ar
   184    56    57    2
   185   182   181    1
   186   182   185    1
   187   186   187   ar
   188   186   185    1
