@<TRIPOS>MOLECULE
tmp/2x15A01.pdb
 147 137 0 0 0
SMALL
GASTEIGER

@<TRIPOS>ATOM
      1  N         -1.2250   -2.8350  -11.5920 N.3    22  ASP22      -0.1239
      2  CA        -0.3960   -3.8630  -12.1610 C.3    22  ASP22       0.1674
      3  C          1.0640   -3.5250  -11.8350 C.2    22  ASP22       0.2266
      4  O          1.7150   -2.7180  -12.5240 O.2    22  ASP22      -0.2867
      5  CB        -0.6310   -3.9720  -13.6670 C.3    22  ASP22       0.1410
      6  CG         0.1460   -5.1030  -14.2930 C.2    22  ASP22       0.3668
      7  OD1        1.2230   -5.4360  -13.7400 O.co2  22  ASP22      -0.2456
      8  OD2       -0.2880   -5.6370  -15.3510 O.co2  22  ASP22      -0.2456
      9  N          3.2310   -6.0120  -11.7620 N.3    24  ASN24      -0.1240
     10  CA         3.8680   -7.2180  -12.2720 C.3    24  ASN24       0.1653
     11  C          5.1050   -6.8800  -13.1090 C.2    24  ASN24       0.2266
     12  O          5.1210   -7.0670  -14.3360 O.2    24  ASN24      -0.2867
     13  CB         2.8560   -7.9870  -13.1120 C.3    24  ASN24       0.1155
     14  CG         3.3940   -9.2940  -13.6320 C.2    24  ASN24       0.2627
     15  OD1        4.2670   -9.8850  -13.0290 O.2    24  ASN24      -0.2716
     16  ND2        2.8690   -9.7420  -14.7690 N.am   24  ASN24      -0.0877
     17  N          5.9580    0.1980  -14.8080 N.3    37  ARG37      -0.1245
     18  CA         4.6100   -0.1080  -14.3160 C.3    37  ARG37       0.1563
     19  C          4.3390    0.5120  -12.9500 C.2    37  ARG37       0.2260
     20  O          3.2050    0.9210  -12.6630 O.2    37  ARG37      -0.2867
     21  CB         4.3850   -1.6080  -14.2910 C.3    37  ARG37       0.0307
     22  CG         3.9670   -2.1430  -15.6370 C.3    37  ARG37       0.0489
     23  CD         3.7910   -3.6520  -15.6720 C.3    37  ARG37       0.2205
     24  NE         3.0790   -4.0540  -16.8880 N.pl3  37  ARG37      -0.0865
     25  CZ         2.8010   -5.3070  -17.2460 C.cat  37  ARG37       0.5346
     26  NH1        3.1760   -6.3440  -16.4890 N.pl3  37  ARG37       0.1354
     27  NH2        2.1410   -5.5170  -18.3830 N.pl3  37  ARG37       0.1354
     28  N         -0.6600   -8.6660   -8.5730 N.3    61  HIS61      -0.1241
     29  CA         0.0110   -9.9470   -8.6520 C.3    61  HIS61       0.1621
     30  C          1.4340   -9.6660   -9.1520 C.2    61  HIS61       0.2264
     31  O          1.7740   -8.5140   -9.5380 O.2    61  HIS61      -0.2867
     32  CB        -0.7180  -10.8730   -9.6110 C.3    61  HIS61       0.0745
     33  CG        -0.5710  -10.4740  -11.0460 C.ar   61  HIS61       0.0817
     34  ND1       -1.2990   -9.4450  -11.6090 N.ar   61  HIS61      -0.2268
     35  CD2        0.2440  -10.9380  -12.0170 C.ar   61  HIS61       0.1154
     36  CE1       -0.9560   -9.3180  -12.8780 C.ar   61  HIS61       0.1986
     37  NE2       -0.0250  -10.2150  -13.1510 N.ar   61  HIS61      -0.2212
     38  N          4.1820  -12.2060  -11.4670 N.3    63  GLY63      -0.1210
     39  CA         4.5110  -13.5300  -12.0190 C.3    63  GLY63       0.1956
     40  C          3.3080  -14.4550  -12.0330 C.2    63  GLY63       0.2611
     41  O          2.1530  -14.0020  -11.9260 O.2    63  GLY63      -0.2717
     42  N          3.5680  -15.7520  -12.1810 N.am   64  ARG64      -0.1979
     43  CA         2.4930  -16.7450  -12.1520 C.3    64  ARG64       0.1597
     44  C          2.8010  -17.8270  -11.1160 C.2    64  ARG64       0.2287
     45  O          3.2060  -18.9330  -11.4600 O.2    64  ARG64      -0.2864
     46  CB         2.2670  -17.3440  -13.5400 C.3    64  ARG64       0.0334
     47  CG         1.7680  -16.3190  -14.5340 C.3    64  ARG64       0.0492
     48  CD         1.5300  -16.9180  -15.9020 C.3    64  ARG64       0.2205
     49  NE         0.8310  -15.9790  -16.7780 N.pl3  64  ARG64      -0.0865
     50  CZ         0.3830  -16.2730  -17.9970 C.cat  64  ARG64       0.5346
     51  NH1        0.5540  -17.4900  -18.5060 N.pl3  64  ARG64       0.1354
     52  NH2       -0.2460  -15.3480  -18.7190 N.pl3  64  ARG64       0.1354
     53  N         -1.6970  -13.6100   -6.2390 N.3   121  ARG121     -0.1245
     54  CA        -1.7430  -14.9500   -6.7950 C.3   121  ARG121      0.1563
     55  C         -1.1150  -16.0380   -5.9110 C.2   121  ARG121      0.2260
     56  O         -1.0980  -17.2220   -6.3070 O.2   121  ARG121     -0.2867
     57  CB        -1.1100  -14.9620   -8.1880 C.3   121  ARG121      0.0307
     58  CG        -1.9760  -14.3390   -9.2310 C.3   121  ARG121      0.0489
     59  CD        -1.2950  -14.2800  -10.6000 C.3   121  ARG121      0.2205
     60  NE        -2.1020  -13.5090  -11.5390 N.pl3 121  ARG121     -0.0865
     61  CZ        -1.8250  -13.3550  -12.8290 C.cat 121  ARG121      0.5346
     62  NH1       -0.7320  -13.8860  -13.3600 N.pl3 121  ARG121      0.1354
     63  NH2       -2.6440  -12.6410  -13.5870 N.pl3 121  ARG121      0.1354
     64  N         -2.5360   -3.0820  -17.2780 N.3   158  GLY158     -0.1210
     65  CA        -1.7830   -4.2380  -17.7590 C.3   158  GLY158      0.1956
     66  C         -2.4260   -5.5720  -17.4640 C.2   158  GLY158      0.2612
     67  O         -2.0660   -6.5750  -18.0620 O.2   158  GLY158     -0.2717
     68  N         -3.3720   -5.5740  -16.5220 N.am  159  THR159     -0.1952
     69  CA        -4.0880   -6.7610  -16.0800 C.3   159  THR159      0.1897
     70  C         -5.5710   -6.7100  -16.4290 C.2   159  THR159      0.2313
     71  O         -6.3120   -7.6440  -16.0970 O.2   159  THR159     -0.2863
     72  CB        -3.9150   -6.9120  -14.5560 C.3   159  THR159      0.1794
     73  OG1       -2.5160   -6.8030  -14.2440 O.3   159  THR159     -0.2208
     74  CG2       -4.5020   -8.2360  -14.0210 C.3   159  THR159      0.0378
     75  N         -7.4150   -7.2640  -18.9260 N.3   161  HIS161     -0.1226
     76  CA        -7.9700   -8.4140  -19.6360 C.3   161  HIS161      0.1752
     77  C         -8.3110   -9.5950  -18.7310 C.2   161  HIS161      0.2595
     78  O         -8.9580  -10.5270  -19.1790 O.2   161  HIS161     -0.2718
     79  CB        -7.0810   -8.8610  -20.8100 C.3   161  HIS161      0.0759
     80  CG        -5.6640   -9.1940  -20.4470 C.ar  161  HIS161      0.0818
     81  ND1       -4.9100   -8.4410  -19.5720 N.ar  161  HIS161     -0.2268
     82  CD2       -4.8400  -10.1700  -20.9070 C.ar  161  HIS161      0.1154
     83  CE1       -3.6960   -8.9550  -19.4830 C.ar  161  HIS161      0.1986
     84  NE2       -3.6260  -10.0020  -20.2840 N.ar  161  HIS161     -0.2212
     85  N         -7.9430   -9.5490  -17.4580 N.am  162  ARG162     -0.1980
     86  CA        -8.1310  -10.7050  -16.5740 C.3   162  ARG162      0.1597
     87  C         -9.3110  -10.4720  -15.6390 C.2   162  ARG162      0.2287
     88  O         -9.2680   -9.5700  -14.7940 O.2   162  ARG162     -0.2864
     89  CB        -6.8690  -10.9820  -15.7280 C.3   162  ARG162      0.0334
     90  CG        -5.5920  -11.1760  -16.5390 C.3   162  ARG162      0.0492
     91  CD        -5.6770  -12.3640  -17.4650 C.3   162  ARG162      0.2205
     92  NE        -4.3750  -12.7380  -17.9990 N.pl3 162  ARG162     -0.0865
     93  CZ        -4.1870  -13.3490  -19.1680 C.cat 162  ARG162      0.5346
     94  NH1       -5.2140  -13.7110  -19.9330 N.pl3 162  ARG162      0.1354
     95  NH2       -2.9570  -13.6080  -19.5860 N.pl3 162  ARG162      0.1354
     96  N        -10.1300  -11.5660  -12.8840 N.3   164  HIS164     -0.1241
     97  CA        -9.7280  -12.1970  -11.6290 C.3   164  HIS164      0.1621
     98  C        -10.3970  -11.4390  -10.4570 C.2   164  HIS164      0.2264
     99  O        -10.9290  -10.3280  -10.6370 O.2   164  HIS164     -0.2867
    100  CB        -8.1980  -12.1800  -11.5050 C.3   164  HIS164      0.0745
    101  CG        -7.5040  -12.9640  -12.5640 C.ar  164  HIS164      0.0817
    102  ND1       -6.1510  -12.8510  -12.8070 N.ar  164  HIS164     -0.2268
    103  CD2       -7.9660  -13.9060  -13.4250 C.ar  164  HIS164      0.1154
    104  CE1       -5.8090  -13.6890  -13.7740 C.ar  164  HIS164      0.1986
    105  NE2       -6.8910  -14.3330  -14.1690 N.ar  164  HIS164     -0.2212
    106  N          4.1700  -16.1330  -23.8740 N.3   207  LYS207     -0.1245
    107  CA         2.8130  -16.5360  -23.4510 C.3   207  LYS207      0.1561
    108  C          2.0170  -17.1020  -24.6320 C.2   207  LYS207      0.2260
    109  O          0.9960  -16.5440  -25.0660 O.2   207  LYS207     -0.2867
    110  CB         2.0950  -15.3650  -22.7630 C.3   207  LYS207      0.0271
    111  CG         2.7710  -14.9820  -21.4360 C.3   207  LYS207      0.0035
    112  CD         2.0940  -13.8790  -20.6930 C.3   207  LYS207      0.0206
    113  CE         2.7120  -13.7590  -19.2960 C.3   207  LYS207      0.1093
    114  NZ         2.3800  -12.4350  -18.6390 N.3   207  LYS207     -0.1314
    115  N         -1.6850  -16.1350  -26.0550 N.3   211  LYS211     -0.1245
    116  CA        -1.7160  -15.1010  -27.0740 C.3   211  LYS211      0.1561
    117  C         -1.9880  -15.6460  -28.4890 C.2   211  LYS211      0.2260
    118  O         -2.5280  -14.9400  -29.3520 O.2   211  LYS211     -0.2867
    119  CB        -0.4870  -14.2010  -26.9650 C.3   211  LYS211      0.0271
    120  CG        -0.5750  -13.3320  -25.6730 C.3   211  LYS211      0.0035
    121  CD         0.6790  -12.5690  -25.3820 C.3   211  LYS211      0.0206
    122  CE         0.5390  -11.7290  -24.0780 C.3   211  LYS211      0.1093
    123  NZ         1.8150  -10.9800  -23.7730 N.3   211  LYS211     -0.1314
    124  N          3.6830   -4.0350  -23.1680 N.3   364  GLY364     -0.1210
    125  CA         3.8650   -5.2510  -22.3840 C.3   364  GLY364      0.1956
    126  C          4.8820   -5.0710  -21.2690 C.2   364  GLY364      0.2612
    127  O          5.7070   -4.1750  -21.3200 O.2   364  GLY364     -0.2717
    128  N          4.8140   -5.9060  -20.2460 N.am  365  GLY365     -0.1942
    129  CA         5.7570   -5.8310  -19.1330 C.3   365  GLY365      0.2014
    130  C          7.1950   -6.0110  -19.5810 C.2   365  GLY365      0.2638
    131  O          8.0660   -5.1940  -19.2680 O.2   365  GLY365     -0.2714
    132  N          7.4250   -7.0860  -20.3300 N.am  366  ASP366     -0.1971
    133  CA         8.7270   -7.3900  -20.8840 C.3   366  ASP366      0.1709
    134  C          9.0690   -6.5770  -22.1510 C.2   366  ASP366      0.2293
    135  O         10.2090   -6.1600  -22.3250 O.2   366  ASP366     -0.2864
    136  CB         8.8500   -8.8990  -21.1280 C.3   366  ASP366      0.1436
    137  CG         8.6650   -9.6940  -19.8640 C.2   366  ASP366      0.3671
    138  OD1        9.3900   -9.3960  -18.8980 O.co2 366  ASP366     -0.2456
    139  OD2        7.7820  -10.5970  -19.8150 O.co2 366  ASP366     -0.2456
    140  N          0.3530   -5.4360  -22.4250 N.3   387  GLY387     -0.1210
    141  CA         0.7800   -6.3260  -23.4960 C.3   387  GLY387      0.1956
    142  C         -0.4010   -7.1170  -23.9910 C.2   387  GLY387      0.2612
    143  O         -1.0590   -6.7120  -24.9300 O.2   387  GLY387     -0.2717
    144  N         -0.6810   -8.2450  -23.3430 N.am  388  GLY388     -0.1956
    145  CA        -1.9480   -8.9580  -23.5360 C.3   388  GLY388      0.1869
    146  C         -3.1570   -8.0290  -23.5460 C.2   388  GLY388      0.2309
    147  O         -4.0260   -8.1450  -24.4130 O.2   388  GLY388     -0.2863
@<TRIPOS>BOND
     1   118   117    2
     2   117   116    1
     3   116   119    1
     4   116   115    1
     5   119   120    1
     6   120   121    1
     7   121   122    1
     8   109   108    2
     9   143   142    2
    10   108   107    1
    11   147   146    2
    12   122   123    1
    13   142   141    1
    14   142   144   am
    15   106   107    1
    16   146   145    1
    17   145   144    1
    18   141   140    1
    19   107   110    1
    20   124   125    1
    21   110   111    1
    22   125   126    1
    23   135   134    2
    24   134   133    1
    25   111   112    1
    26   127   126    2
    27   126   128   am
    28   136   133    1
    29   136   137    1
    30    82    80   ar
    31    82    84   ar
    32   133   132    1
    33    79    80    1
    34    79    76    1
    35   112   113    1
    36    80    81   ar
    37   132   130   am
    38    84    83   ar
    39   128   129    1
    40    94    93    1
    41   137   139   ar
    42   137   138   ar
    43    76    75    1
    44    76    77    1
    45    95    93    1
    46   130   131    2
    47   130   129    1
    48    81    83   ar
    49   113   114    1
    50    78    77    2
    51    93    92    2
    52    77    85   am
    53    52    50    1
    54    51    50    1
    55    27    25    1
    56    67    66    2
    57    92    91    1
    58    50    49    2
    59    65    66    1
    60    65    64    1
    61    91    90    1
    62    66    68   am
    63    85    86    1
    64    25    24    2
    65    25    26    1
    66    24    23    1
    67    49    48    1
    68    86    89    1
    69    86    87    1
    70    90    89    1
    71    68    69    1
    72    70    71    2
    73    70    69    1
    74    69    72    1
    75    48    47    1
    76    23    22    1
    77    87    88    2
    78    22    21    1
    79     8     6   ar
    80    17    18    1
    81    16    14   am
    82    72    73    1
    83    72    74    1
    84    47    46    1
    85    12    11    2
    86    18    21    1
    87    18    19    1
    88     6     7   ar
    89     6     5    1
    90   105   104   ar
    91   105   103   ar
    92   104   102   ar
    93     5     2    1
    94    14    13    1
    95    14    15    2
    96    63    61    1
    97    46    43    1
    98   103   101   ar
    99    62    61    1
   100    37    36   ar
   101    37    35   ar
   102    13    10    1
   103    11    10    1
   104    19    20    2
   105    96    97    1
   106    36    34   ar
   107    61    60    2
   108   102   101   ar
   109   101   100    1
   110     4     3    2
   111    10     9    1
   112    42    43    1
   113    42    40   am
   114     2     3    1
   115     2     1    1
   116    43    44    1
   117    40    39    1
   118    40    41    2
   119    39    38    1
   120    35    33   ar
   121    97   100    1
   122    97    98    1
   123    34    33   ar
   124    60    59    1
   125    45    44    2
   126    33    32    1
   127    99    98    2
   128    59    58    1
   129    32    29    1
   130    31    30    2
   131    58    57    1
   132    30    29    1
   133    29    28    1
   134    57    54    1
   135    54    53    1
   136    54    55    1
   137    56    55    2
