@<TRIPOS>MOLECULE
tmp/2x1aA00.pdb
 82 80 0 0 0
SMALL
GASTEIGER

@<TRIPOS>ATOM
      1  N          0.5370   -8.5830   13.6240 N.3     7  TYR7       -0.1241
      2  CA        -0.1220   -7.5380   12.8720 C.3     7  TYR7        0.1605
      3  C         -1.1520   -8.2400   11.9910 C.2     7  TYR7        0.2264
      4  O         -0.8560   -9.2820   11.4210 O.2     7  TYR7       -0.2867
      5  CB         0.9220   -6.7820   12.0340 C.3     7  TYR7        0.0534
      6  CG         0.3510   -5.9570   10.9120 C.ar    7  TYR7       -0.0201
      7  CD1        0.2260   -6.4800    9.6300 C.ar    7  TYR7       -0.0009
      8  CD2       -0.0630   -4.6420   11.1330 C.ar    7  TYR7       -0.0009
      9  CE1       -0.3070   -5.7140    8.5930 C.ar    7  TYR7        0.0417
     10  CE2       -0.5890   -3.8700   10.1060 C.ar    7  TYR7        0.0417
     11  CZ        -0.7120   -4.4070    8.8410 C.ar    7  TYR7        0.1957
     12  OH        -1.2410   -3.6330    7.8330 O.3     7  TYR7       -0.2866
     13  N         -3.6160   -7.0370    8.8400 N.3     9  GLY9       -0.1210
     14  CA        -3.9450   -5.9130    7.9840 C.3     9  GLY9        0.1956
     15  C         -4.7520   -6.3030    6.7680 C.2     9  GLY9        0.2613
     16  O         -5.0320   -7.4810    6.5320 O.2     9  GLY9       -0.2717
     17  N         -5.1090   -5.2870    5.9940 N.am   10  SER10      -0.1938
     18  CA        -5.9370   -5.4460    4.8110 C.3    10  SER10       0.2055
     19  C         -7.3120   -6.0180    5.1730 C.2    10  SER10       0.2643
     20  O         -7.9490   -6.6890    4.3620 O.2    10  SER10      -0.2714
     21  CB        -5.2240   -6.3180    3.7830 C.3    10  SER10       0.2130
     22  OG        -5.8130   -6.1810    2.5030 O.3    10  SER10      -0.2179
     23  N         -7.7660   -5.7320    6.3930 N.am   11  ILE11      -0.1963
     24  CA        -9.0750   -6.1780    6.8710 C.3    11  ILE11       0.1712
     25  C        -10.1520   -5.2940    6.2390 C.2    11  ILE11       0.2458
     26  O        -10.0360   -4.0660    6.2850 O.2    11  ILE11      -0.2730
     27  CB        -9.2090   -6.0390    8.4150 C.3    11  ILE11       0.0289
     28  CG1       -8.1460   -6.8610    9.1590 C.3    11  ILE11       0.0022
     29  CG2      -10.6170   -6.4400    8.8640 C.3    11  ILE11       0.0023
     30  CD1       -8.0270   -6.4880   10.6430 C.3    11  ILE11       0.0001
     31  N        -11.2090   -5.9040    5.6540 N.am   12  PRO12      -0.2716
     32  CA       -12.3280   -5.0850    5.1700 C.3    12  PRO12       0.1536
     33  C        -12.8190   -4.0790    6.2270 C.2    12  PRO12       0.2598
     34  O        -12.9970   -4.4350    7.3920 O.2    12  PRO12      -0.2715
     35  CB       -13.3990   -6.1260    4.8430 C.3    12  PRO12       0.0310
     36  CG       -12.6340   -7.3350    4.4720 C.3    12  PRO12       0.0237
     37  CD       -11.4030   -7.3320    5.3340 C.3    12  PRO12       0.0939
     38  N        -13.0090   -2.8250    5.8240 N.am   13  TYR13      -0.1974
     39  CA       -13.4170   -1.7680    6.7560 C.3    13  TYR13       0.1639
     40  C        -14.7240   -2.0460    7.4800 C.2    13  TYR13       0.2290
     41  O        -14.9320   -1.5320    8.5700 O.2    13  TYR13      -0.2864
     42  CB       -13.5680   -0.4260    6.0450 C.3    13  TYR13       0.0560
     43  CG       -12.2950    0.1780    5.5150 C.ar   13  TYR13      -0.0198
     44  CD1      -11.1600    0.2760    6.3060 C.ar   13  TYR13      -0.0009
     45  CD2      -12.2390    0.6880    4.2220 C.ar   13  TYR13      -0.0009
     46  CE1       -9.9880    0.8520    5.8160 C.ar   13  TYR13       0.0417
     47  CE2      -11.0750    1.2670    3.7270 C.ar   13  TYR13       0.0417
     48  CZ        -9.9580    1.3450    4.5320 C.ar   13  TYR13       0.1957
     49  OH        -8.8030    1.9070    4.0570 O.3    13  TYR13      -0.2866
     50  N         -9.6540    1.4300   10.6350 N.3    45  LYS45      -0.1231
     51  CA        -8.5600    1.6270    9.6830 C.3    45  LYS45       0.1693
     52  C         -8.2380    0.3640    8.9180 C.2    45  LYS45       0.2592
     53  O         -7.3810    0.3840    8.0420 O.2    45  LYS45      -0.2718
     54  CB        -7.2810    2.0820   10.3910 C.3    45  LYS45       0.0285
     55  CG        -7.3990    3.4070   11.1140 C.3    45  LYS45       0.0035
     56  CD        -7.6440    4.5700   10.1820 C.3    45  LYS45       0.0206
     57  CE        -6.4660    4.8210    9.2580 C.3    45  LYS45       0.1093
     58  NZ        -6.7060    6.0670    8.4810 N.3    45  LYS45      -0.1314
     59  N         -8.9160   -0.7330    9.2400 N.am   46  GLY46      -0.1957
     60  CA        -8.7090   -1.9990    8.5380 C.3    46  GLY46       0.1869
     61  C         -7.4520   -2.7390    8.9690 C.2    46  GLY46       0.2309
     62  O         -6.9020   -3.5100    8.2040 O.2    46  GLY46      -0.2863
     63  N        -11.3280   -9.4160    0.4690 N.3    73  ARG73      -0.1245
     64  CA        -9.9230   -9.0740    0.6070 C.3    73  ARG73       0.1563
     65  C         -9.0920  -10.2660    1.0460 C.2    73  ARG73       0.2260
     66  O         -9.6190  -11.2480    1.5600 O.2    73  ARG73      -0.2867
     67  CB        -9.7570   -7.9200    1.5960 C.3    73  ARG73       0.0307
     68  CG       -10.4340   -6.6440    1.1480 C.3    73  ARG73       0.0489
     69  CD       -10.0300   -5.4560    1.9980 C.3    73  ARG73       0.2205
     70  NE        -8.6240   -5.1290    1.8150 N.pl3  73  ARG73      -0.0865
     71  CZ        -8.1360   -4.3500    0.8470 C.cat  73  ARG73       0.5346
     72  NH1       -8.9320   -3.7820   -0.0500 N.pl3  73  ARG73       0.1354
     73  NH2       -6.8260   -4.1370    0.7730 N.pl3  73  ARG73       0.1354
     74  N         -3.3480   -9.7310    5.4320 N.3    76  LYS76      -0.1245
     75  CA        -1.9160   -9.7550    5.6180 C.3    76  LYS76       0.1561
     76  C         -1.6820   -9.9300    7.1210 C.2    76  LYS76       0.2260
     77  O         -2.2640   -9.2060    7.9190 O.2    76  LYS76      -0.2867
     78  CB        -1.3050   -8.4400    5.1120 C.3    76  LYS76       0.0271
     79  CG        -0.8840   -8.3980    3.6230 C.3    76  LYS76       0.0035
     80  CD        -1.8180   -9.1290    2.6290 C.3    76  LYS76       0.0206
     81  CE        -1.2820  -10.5410    2.2240 C.3    76  LYS76       0.1093
     82  NZ        -2.1770  -11.2900    1.2800 N.3    76  LYS76      -0.1314
@<TRIPOS>BOND
     1    72    71    1
     2    63    64    1
     3    64    65    1
     4    64    67    1
     5    73    71    1
     6    71    70    2
     7    65    66    2
     8    68    67    1
     9    68    69    1
    10    82    81    1
    11    70    69    1
    12    81    80    1
    13    22    21    1
    14    80    79    1
    15    79    78    1
    16    47    45   ar
    17    47    48   ar
    18    21    18    1
    19    49    48    1
    20    45    43   ar
    21    20    19    2
    22    36    35    1
    23    36    37    1
    24    48    46   ar
    25    18    19    1
    26    18    17    1
    27    35    32    1
    28    78    75    1
    29    32    31    1
    30    32    33    1
    31    19    23   am
    32    37    31    1
    33    74    75    1
    34    43    42    1
    35    43    44   ar
    36    75    76    1
    37    31    25   am
    38    46    44   ar
    39    38    33   am
    40    38    39    1
    41    17    15   am
    42    42    39    1
    43    33    34    2
    44    25    26    2
    45    25    24    1
    46    23    24    1
    47    16    15    2
    48    39    40    1
    49    15    14    1
    50    24    27    1
    51    76    77    2
    52    40    41    2
    53    12    11    1
    54    14    13    1
    55    53    52    2
    56    62    61    2
    57    27    29    1
    58    27    28    1
    59    58    57    1
    60    60    61    1
    61    60    59    1
    62     9    11   ar
    63     9     7   ar
    64    11    10   ar
    65    52    59   am
    66    52    51    1
    67    28    30    1
    68    57    56    1
    69     7     6   ar
    70    51    54    1
    71    51    50    1
    72    10     8   ar
    73    56    55    1
    74    54    55    1
    75     6     8   ar
    76     6     5    1
    77     4     3    2
    78     3     2    1
    79     5     2    1
    80     2     1    1
