@<TRIPOS>MOLECULE
tmp/2x1eA00.pdb
 108 105 0 0 0
SMALL
GASTEIGER

@<TRIPOS>ATOM
      1  N        -30.4660   26.0670   -0.1420 N.3   118  TRP118     -0.1227
      2  CA       -31.5170   27.0180   -0.4940 C.3   118  TRP118      0.1737
      3  C        -32.3020   26.3830   -1.6340 C.2   118  TRP118      0.2595
      4  O        -31.7250   26.0680   -2.6680 O.2   118  TRP118     -0.2718
      5  CB       -30.8820   28.3530   -0.9110 C.3   118  TRP118      0.0564
      6  CG       -31.8140   29.3390   -1.5260 C.ar  118  TRP118      0.0003
      7  CD1      -31.8520   29.7270   -2.8410 C.ar  118  TRP118      0.0946
      8  CD2      -32.8440   30.0700   -0.8630 C.ar  118  TRP118      0.0152
      9  NE1      -32.8470   30.6490   -3.0340 N.ar  118  TRP118     -0.2442
     10  CE2      -33.4780   30.8770   -1.8380 C.ar  118  TRP118      0.0810
     11  CE3      -33.3010   30.1190    0.4570 C.ar  118  TRP118      0.0012
     12  CZ2      -34.5490   31.7250   -1.5300 C.ar  118  TRP118      0.0191
     13  CZ3      -34.3690   30.9530    0.7590 C.ar  118  TRP118      0.0001
     14  CH2      -34.9770   31.7540   -0.2280 C.ar  118  TRP118      0.0015
     15  N        -33.6020   26.1720   -1.4200 N.am  119  ASP119     -0.1960
     16  CA       -34.4790   25.4910   -2.3780 C.3   119  ASP119      0.1840
     17  C        -35.5090   26.4640   -2.9220 C.2   119  ASP119      0.2622
     18  O        -36.2370   27.0830   -2.1520 O.2   119  ASP119     -0.2715
     19  CB       -35.2350   24.3270   -1.7100 C.3   119  ASP119      0.1450
     20  CG       -34.3150   23.3600   -0.9760 C.2   119  ASP119      0.3671
     21  OD1      -33.1800   23.1370   -1.4480 O.co2 119  ASP119     -0.2456
     22  OD2      -34.7370   22.8190    0.0760 O.co2 119  ASP119     -0.2456
     23  N        -35.5810   26.5940   -4.2420 N.am  120  PHE120     -0.1960
     24  CA       -36.5250   27.5240   -4.8520 C.3   120  PHE120      0.1771
     25  C        -36.7810   27.1780   -6.3200 C.2   120  PHE120      0.2619
     26  O        -36.3020   26.1540   -6.8220 O.2   120  PHE120     -0.2715
     27  CB       -36.0330   28.9770   -4.6820 C.3   120  PHE120      0.0574
     28  CG       -37.1380   30.0020   -4.6630 C.ar  120  PHE120     -0.0200
     29  CD1      -38.1680   29.9250   -3.7180 C.ar  120  PHE120     -0.0042
     30  CD2      -37.1380   31.0580   -5.5730 C.ar  120  PHE120     -0.0042
     31  CE1      -39.1980   30.8790   -3.6950 C.ar  120  PHE120     -0.0003
     32  CE2      -38.1590   32.0120   -5.5640 C.ar  120  PHE120     -0.0003
     33  CZ       -39.1920   31.9260   -4.6210 C.ar  120  PHE120     -0.0000
     34  N        -37.5490   28.0290   -7.0000 N.am  121  PHE121     -0.1974
     35  CA       -37.8080   27.8610   -8.4270 C.3   121  PHE121      0.1639
     36  C        -36.5030   28.0170   -9.1960 C.2   121  PHE121      0.2290
     37  O        -35.7550   28.9760   -8.9780 O.2   121  PHE121     -0.2864
     38  CB       -38.8540   28.8710   -8.9040 C.3   121  PHE121      0.0560
     39  CG       -40.1750   28.7610   -8.1840 C.ar  121  PHE121     -0.0200
     40  CD1      -41.1150   27.8020   -8.5620 C.ar  121  PHE121     -0.0042
     41  CD2      -40.4800   29.6140   -7.1260 C.ar  121  PHE121     -0.0042
     42  CE1      -42.3430   27.6990   -7.8940 C.ar  121  PHE121     -0.0003
     43  CE2      -41.7010   29.5140   -6.4490 C.ar  121  PHE121     -0.0003
     44  CZ       -42.6300   28.5560   -6.8390 C.ar  121  PHE121     -0.0000
     45  N        -37.6220   29.7010    4.3640 N.3   166  ALA166     -0.1245
     46  CA       -39.0160   30.0910    4.2330 C.3   166  ALA166      0.1562
     47  C        -39.8080   29.5150    5.4070 C.2   166  ALA166      0.2260
     48  O        -39.5380   28.4020    5.8750 O.2   166  ALA166     -0.2867
     49  CB       -39.6060   29.6360    2.8900 C.3   166  ALA166      0.0290
     50  N        -38.7890   24.0810    6.9240 N.3   244  ASN244     -0.1240
     51  CA       -39.7800   25.0970    6.5450 C.3   244  ASN244      0.1653
     52  C        -41.0650   25.0710    7.3820 C.2   244  ASN244      0.2266
     53  O        -42.1350   25.5060    6.9300 O.2   244  ASN244     -0.2867
     54  CB       -40.0920   24.9870    5.0440 C.3   244  ASN244      0.1155
     55  CG       -38.8590   25.2150    4.1760 C.2   244  ASN244      0.2627
     56  OD1      -38.3670   24.2990    3.5310 O.2   244  ASN244     -0.2716
     57  ND2      -38.3550   26.4420    4.1700 N.am  244  ASN244     -0.0877
     58  N        -45.0830   22.5130    3.5490 N.3   260  LEU260     -0.1245
     59  CA       -44.9460   21.2740    2.7860 C.3   260  LEU260      0.1561
     60  C        -44.7540   20.0660    3.7040 C.2   260  LEU260      0.2260
     61  O        -44.0340   20.1510    4.7010 O.2   260  LEU260     -0.2867
     62  CB       -43.8150   21.3770    1.7550 C.3   260  LEU260      0.0270
     63  CG       -44.0990   22.1820    0.4790 C.3   260  LEU260      0.0019
     64  CD1      -43.0850   21.8350   -0.5750 C.3   260  LEU260      0.0001
     65  CD2      -45.5000   21.9450   -0.0780 C.3   260  LEU260      0.0001
     66  N        -37.7280   16.0790    6.0110 N.3   266  ARG266     -0.1245
     67  CA       -36.3530   16.5600    5.9030 C.3   266  ARG266      0.1563
     68  C        -35.7190   16.8820    7.2520 C.2   266  ARG266      0.2260
     69  O        -34.5240   16.6650    7.4350 O.2   266  ARG266     -0.2867
     70  CB       -36.2640   17.7730    4.9650 C.3   266  ARG266      0.0307
     71  CG       -36.4100   17.4030    3.4910 C.3   266  ARG266      0.0489
     72  CD       -36.3770   18.6170    2.5890 C.3   266  ARG266      0.2205
     73  NE       -37.5680   19.4670    2.6890 N.pl3 266  ARG266     -0.0865
     74  CZ       -37.5770   20.6790    3.2470 C.cat 266  ARG266      0.5346
     75  NH1      -38.6960   21.3920    3.2750 N.pl3 266  ARG266      0.1354
     76  NH2      -36.4650   21.1940    3.7660 N.pl3 266  ARG266      0.1354
     77  N        -32.8520   18.7650   -2.9890 N.3   300  ARG300     -0.1245
     78  CA       -34.1480   18.7620   -3.6600 C.3   300  ARG300      0.1563
     79  C        -33.9990   18.7840   -5.1730 C.2   300  ARG300      0.2260
     80  O        -33.1370   19.4890   -5.6940 O.2   300  ARG300     -0.2867
     81  CB       -34.9740   19.9690   -3.2110 C.3   300  ARG300      0.0307
     82  CG       -36.4830   19.8100   -3.4310 C.3   300  ARG300      0.0489
     83  CD       -37.2330   21.0910   -3.0580 C.3   300  ARG300      0.2205
     84  NE       -38.6720   20.8590   -3.0170 N.pl3 300  ARG300     -0.0865
     85  CZ       -39.3340   20.3720   -1.9670 C.cat 300  ARG300      0.5346
     86  NH1      -38.6970   20.0600   -0.8420 N.pl3 300  ARG300      0.1354
     87  NH2      -40.6460   20.1940   -2.0470 N.pl3 300  ARG300      0.1354
     88  N        -42.3960   18.0480   -7.7480 N.3   307  SER307     -0.1202
     89  CA       -41.6880   19.1000   -7.0190 C.3   307  SER307      0.2020
     90  C        -41.4050   20.2790   -7.9410 C.2   307  SER307      0.2619
     91  O        -40.8160   20.1070   -9.0140 O.2   307  SER307     -0.2717
     92  CB       -40.3780   18.5580   -6.4410 C.3   307  SER307      0.2103
     93  OG       -39.5070   19.6100   -6.0630 O.3   307  SER307     -0.2182
     94  N        -41.8160   21.4710   -7.5140 N.am  308  ARG308     -0.1965
     95  CA       -41.7340   22.6700   -8.3450 C.3   308  ARG308      0.1729
     96  C        -40.3470   23.2960   -8.3200 C.2   308  ARG308      0.2616
     97  O        -40.0050   24.0870   -9.1940 O.2   308  ARG308     -0.2715
     98  CB       -42.7500   23.7100   -7.8770 C.3   308  ARG308      0.0348
     99  CG       -44.2020   23.3480   -8.1390 C.3   308  ARG308      0.0492
    100  CD       -45.1180   24.4990   -7.7230 C.3   308  ARG308      0.2205
    101  NE       -44.8860   24.8970   -6.3350 N.pl3 308  ARG308     -0.0865
    102  CZ       -45.4290   25.9640   -5.7530 C.cat 308  ARG308      0.5346
    103  NH1      -45.1520   26.2380   -4.4840 N.pl3 308  ARG308      0.1354
    104  NH2      -46.2450   26.7610   -6.4350 N.pl3 308  ARG308      0.1354
    105  N        -39.5660   22.9530   -7.3060 N.am  309  GLY309     -0.1955
    106  CA       -38.2620   23.5620   -7.1210 C.3   309  GLY309      0.1869
    107  C        -37.1550   22.5520   -6.9360 C.2   309  GLY309      0.2309
    108  O        -37.3910   21.3450   -6.9170 O.2   309  GLY309     -0.2863
@<TRIPOS>BOND
     1    36    37    2
     2    36    35    1
     3    97    96    2
     4    91    90    2
     5    38    35    1
     6    38    39    1
     7    40    39   ar
     8    40    42   ar
     9    35    34    1
    10    95    96    1
    11    95    98    1
    12    95    94    1
    13    96   105   am
    14    39    41   ar
    15    99    98    1
    16    99   100    1
    17    90    94   am
    18    90    89    1
    19    42    44   ar
    20    88    89    1
    21   100   101    1
    22   105   106    1
    23    41    43   ar
    24   106   107    1
    25    89    92    1
    26    34    25   am
    27   107   108    2
    28    44    43   ar
    29    26    25    2
    30    92    93    1
    31   104   102    1
    32   101   102    2
    33    25    24    1
    34   102   103    1
    35    80    79    2
    36    30    32   ar
    37    30    28   ar
    38    32    33   ar
    39    79    78    1
    40    24    27    1
    41    24    23    1
    42    27    28    1
    43    28    29   ar
    44    33    31   ar
    45    23    17   am
    46    29    31   ar
    47    78    81    1
    48    78    77    1
    49    82    81    1
    50    82    83    1
    51    83    84    1
    52     9     7   ar
    53     9    10   ar
    54    84    85    2
    55    17    16    1
    56    17    18    2
    57     7     6   ar
    58     4     3    2
    59    16    19    1
    60    16    15    1
    61    87    85    1
    62    85    86    1
    63    10    12   ar
    64    10     8   ar
    65    19    20    1
    66     3    15   am
    67     3     2    1
    68    12    14   ar
    69     6     5    1
    70     6     8   ar
    71    21    20   ar
    72    20    22   ar
    73     5     2    1
    74     8    11   ar
    75    64    63    1
    76     2     1    1
    77    14    13   ar
    78    65    63    1
    79    11    13   ar
    80    63    62    1
    81    62    59    1
    82    72    73    1
    83    72    71    1
    84    73    74    2
    85    59    58    1
    86    59    60    1
    87    49    46    1
    88    74    75    1
    89    74    76    1
    90    71    70    1
    91    56    55    2
    92    60    61    2
    93    57    55   am
    94    55    54    1
    95    46    45    1
    96    46    47    1
    97    70    67    1
    98    54    51    1
    99    47    48    2
   100    67    66    1
   101    67    68    1
   102    51    50    1
   103    51    52    1
   104    53    52    2
   105    68    69    2
