@<TRIPOS>MOLECULE
tmp/2x1fA00.pdb
 97 95 0 0 0
SMALL
GASTEIGER

@<TRIPOS>ATOM
      1  N         13.8810   13.8320   30.5630 N.3     6  TYR6       -0.1241
      2  CA        13.8790   15.2610   30.8380 C.3     6  TYR6        0.1605
      3  C         14.1170   16.0190   29.5420 C.2     6  TYR6        0.2264
      4  O         14.9970   15.6640   28.7520 O.2     6  TYR6       -0.2867
      5  CB        14.9680   15.6080   31.8500 C.3     6  TYR6        0.0534
      6  CG        15.1660   17.0870   32.0430 C.ar    6  TYR6       -0.0201
      7  CD1       14.3550   17.8010   32.9080 C.ar    6  TYR6       -0.0009
      8  CD2       16.1530   17.7830   31.3530 C.ar    6  TYR6       -0.0009
      9  CE1       14.5070   19.1580   33.0830 C.ar    6  TYR6        0.0417
     10  CE2       16.3360   19.1570   31.5590 C.ar    6  TYR6        0.0417
     11  CZ        15.4980   19.8330   32.4220 C.ar    6  TYR6        0.1957
     12  OH        15.6400   21.1990   32.6250 O.3     6  TYR6       -0.2866
     13  N          9.1090   16.8200   31.9110 N.3    48  PHE48      -0.1241
     14  CA         9.4030   15.3980   32.0290 C.3    48  PHE48       0.1605
     15  C          8.3190   14.6860   31.2410 C.2    48  PHE48       0.2264
     16  O          7.1360   14.9630   31.4140 O.2    48  PHE48      -0.2867
     17  CB         9.3980   14.9320   33.4860 C.3    48  PHE48       0.0534
     18  CG        10.5830   15.3930   34.2650 C.ar   48  PHE48      -0.0203
     19  CD1       11.7420   14.6340   34.2870 C.ar   48  PHE48      -0.0042
     20  CD2       10.5500   16.5870   34.9660 C.ar   48  PHE48      -0.0042
     21  CE1       12.8580   15.0560   34.9940 C.ar   48  PHE48      -0.0003
     22  CE2       11.6660   17.0170   35.6700 C.ar   48  PHE48      -0.0003
     23  CZ        12.8180   16.2410   35.6850 C.ar   48  PHE48      -0.0000
     24  N         17.2640   15.8260   21.8000 N.3    65  ASN65      -0.1240
     25  CA        18.4770   16.5140   22.1730 C.3    65  ASN65       0.1653
     26  C         19.0760   17.2020   20.9520 C.2    65  ASN65       0.2266
     27  O         19.3620   16.5560   19.9340 O.2    65  ASN65      -0.2867
     28  CB        19.4890   15.5570   22.7840 C.3    65  ASN65       0.1155
     29  CG        20.6330   16.2840   23.4140 C.2    65  ASN65       0.2627
     30  OD1       20.4540   17.0150   24.3930 O.2    65  ASN65      -0.2716
     31  ND2       21.8230   16.1280   22.8390 N.am   65  ASN65      -0.0877
     32  N         17.5490   20.3480   25.1170 N.3    75  LYS75      -0.1231
     33  CA        18.3980   19.3690   25.7680 C.3    75  LYS75       0.1693
     34  C         17.4980   18.2290   26.2140 C.2    75  LYS75       0.2592
     35  O         16.4380   18.4680   26.7690 O.2    75  LYS75      -0.2718
     36  CB        19.1030   19.9870   26.9760 C.3    75  LYS75       0.0285
     37  CG        20.1260   21.0140   26.6000 C.3    75  LYS75       0.0035
     38  CD        20.7700   21.6560   27.8210 C.3    75  LYS75       0.0206
     39  CE        22.0330   22.4150   27.4350 C.3    75  LYS75       0.1093
     40  NZ        21.8610   23.2270   26.1880 N.3    75  LYS75      -0.1314
     41  N         17.9160   16.9940   25.9720 N.am   76  CYS76      -0.1956
     42  CA        17.1060   15.8420   26.3570 C.3    76  CYS76       0.1843
     43  C         18.0020   14.7530   26.8940 C.2    76  CYS76       0.2626
     44  O         19.0280   14.4010   26.2880 O.2    76  CYS76      -0.2714
     45  CB        16.2580   15.3070   25.1930 C.3    76  CYS76       0.0997
     46  SG        15.0050   14.0710   25.6670 S.3    76  CYS76      -0.0797
     47  N         17.6140   14.2400   28.0460 N.am   77  GLY77      -0.1940
     48  CA        18.3290   13.1510   28.6840 C.3    77  GLY77       0.2014
     49  C         17.3850   12.2550   29.4270 C.2    77  GLY77       0.2638
     50  O         16.2330   12.5980   29.6560 O.2    77  GLY77      -0.2714
     51  N         17.8530   11.0710   29.8000 N.am   78  TYR78      -0.1973
     52  CA        17.0420   10.2100   30.6220 C.3    78  TYR78       0.1639
     53  C         16.8420   10.7930   32.0040 C.2    78  TYR78       0.2290
     54  O         17.7780   11.3530   32.6180 O.2    78  TYR78      -0.2864
     55  CB        17.6620    8.8280   30.7710 C.3    78  TYR78       0.0560
     56  CG        17.6060    7.9760   29.5380 C.ar   78  TYR78      -0.0198
     57  CD1       16.3900    7.5280   29.0300 C.ar   78  TYR78      -0.0009
     58  CD2       18.7730    7.5770   28.8930 C.ar   78  TYR78      -0.0009
     59  CE1       16.3360    6.7280   27.8990 C.ar   78  TYR78       0.0417
     60  CE2       18.7280    6.7820   27.7680 C.ar   78  TYR78       0.0417
     61  CZ        17.5110    6.3590   27.2690 C.ar   78  TYR78       0.1957
     62  OH        17.4820    5.5380   26.1600 O.3    78  TYR78      -0.2866
     63  N         16.4310   10.2690   35.9490 N.3    80  SER80      -0.1217
     64  CA        16.9570    9.3110   36.9170 C.3    80  SER80       0.1889
     65  C         15.8250    8.4790   37.5250 C.2    80  SER80       0.2288
     66  O         16.0800    7.4870   38.2010 O.2    80  SER80      -0.2866
     67  CB        17.7400   10.0240   38.0200 C.3    80  SER80       0.2089
     68  OG        16.9340   10.9640   38.7030 O.3    80  SER80      -0.2183
     69  N         14.1550   15.0810   41.5730 N.3    90  GLU90      -0.1231
     70  CA        15.2850   15.1280   40.6520 C.3    90  GLU90       0.1699
     71  C         15.5790   16.5450   40.1740 C.2    90  GLU90       0.2592
     72  O         16.7100   17.0130   40.2440 O.2    90  GLU90      -0.2718
     73  CB        14.9790   14.2100   39.4670 C.3    90  GLU90       0.0402
     74  CG        15.9120   14.3000   38.2870 C.3    90  GLU90       0.1161
     75  CD        15.4550   13.4400   37.1310 C.2    90  GLU90       0.3649
     76  OE1       14.4610   12.6960   37.2790 O.co2  90  GLU90      -0.2457
     77  OE2       16.0880   13.5170   36.0620 O.co2  90  GLU90      -0.2457
     78  N         14.5550   17.2380   39.6970 N.am   91  HIS91      -0.1976
     79  CA        14.7740   18.5400   39.0960 C.3    91  HIS91       0.1656
     80  C         15.2550   19.5950   40.0900 C.2    91  HIS91       0.2291
     81  O         16.0480   20.4680   39.7370 O.2    91  HIS91      -0.2864
     82  CB        13.5280   19.0260   38.3780 C.3    91  HIS91       0.0771
     83  CG        13.7950   20.2110   37.5140 C.ar   91  HIS91       0.0820
     84  ND1       14.6880   20.1670   36.4660 N.ar   91  HIS91      -0.2267
     85  CD2       13.3400   21.4840   37.5740 C.ar   91  HIS91       0.1154
     86  CE1       14.7520   21.3580   35.9000 C.ar   91  HIS91       0.1986
     87  NE2       13.9440   22.1750   36.5530 N.ar   91  HIS91      -0.2212
     88  N         19.0050   20.2050   40.4520 N.3    94  HIS94      -0.1241
     89  CA        19.6880   20.8320   39.3250 C.3    94  HIS94       0.1621
     90  C         19.5950   22.3490   39.4460 C.2    94  HIS94       0.2264
     91  O         18.5420   22.8920   39.7900 O.2    94  HIS94      -0.2867
     92  CB        19.0660   20.3780   38.0000 C.3    94  HIS94       0.0745
     93  CG        19.5210   19.0270   37.5440 C.ar   94  HIS94       0.0817
     94  ND1       18.9620   17.8540   38.0050 N.ar   94  HIS94      -0.2268
     95  CD2       20.4790   18.6640   36.6590 C.ar   94  HIS94       0.1154
     96  CE1       19.5570   16.8270   37.4240 C.ar   94  HIS94       0.1986
     97  NE2       20.4820   17.2910   36.6030 N.ar   94  HIS94      -0.2212
@<TRIPOS>BOND
     1    27    26    2
     2    26    25    1
     3    24    25    1
     4    25    28    1
     5    28    29    1
     6    31    29   am
     7    29    30    2
     8    32    33    1
     9    45    46    1
    10    45    42    1
    11    33    34    1
    12    33    36    1
    13    41    34   am
    14    41    42    1
    15    62    61    1
    16    40    39    1
    17    34    35    2
    18    44    43    2
    19    42    43    1
    20    37    36    1
    21    37    38    1
    22    43    47   am
    23    61    60   ar
    24    61    59   ar
    25    39    38    1
    26    60    58   ar
    27    59    57   ar
    28    47    48    1
    29    48    49    1
    30     4     3    2
    31    58    56   ar
    32    57    56   ar
    33    49    50    2
    34    49    51   am
    35    56    55    1
    36     3     2    1
    37    51    52    1
    38     1     2    1
    39    52    55    1
    40    52    53    1
    41     2     5    1
    42    15    16    2
    43    15    14    1
    44     8    10   ar
    45     8     6   ar
    46    10    11   ar
    47     5     6    1
    48    13    14    1
    49    53    54    2
    50    14    17    1
    51     6     7   ar
    52    11    12    1
    53    11     9   ar
    54     7     9   ar
    55    17    18    1
    56    18    19   ar
    57    18    20   ar
    58    19    21   ar
    59    20    22   ar
    60    21    23   ar
    61    22    23   ar
    62    86    84   ar
    63    86    87   ar
    64    63    64    1
    65    77    75   ar
    66    84    83   ar
    67    87    85   ar
    68    97    95   ar
    69    97    96   ar
    70    95    93   ar
    71    64    65    1
    72    64    67    1
    73    75    76   ar
    74    75    74    1
    75    96    94   ar
    76    83    85   ar
    77    83    82    1
    78    65    66    2
    79    93    92    1
    80    93    94   ar
    81    92    89    1
    82    67    68    1
    83    74    73    1
    84    82    79    1
    85    79    78    1
    86    79    80    1
    87    89    90    1
    88    89    88    1
    89    90    91    2
    90    73    70    1
    91    78    71   am
    92    81    80    2
    93    71    72    2
    94    71    70    1
    95    70    69    1
