@<TRIPOS>MOLECULE
tmp/2x1hA02.pdb
 95 89 0 0 0
SMALL
GASTEIGER

@<TRIPOS>ATOM
      1  N        -11.0090   -7.5290   11.1870 N.3   131  TYR131     -0.1241
      2  CA       -10.0590   -7.3740   12.2820 C.3   131  TYR131      0.1605
      3  C        -10.7110   -6.6280   13.4410 C.2   131  TYR131      0.2264
      4  O        -10.7190   -7.0870   14.5940 O.2   131  TYR131     -0.2867
      5  CB        -8.8210   -6.6090   11.8050 C.3   131  TYR131      0.0534
      6  CG        -7.6730   -6.6070   12.8020 C.ar  131  TYR131     -0.0201
      7  CD1       -6.5990   -7.4710   12.6460 C.ar  131  TYR131     -0.0009
      8  CD2       -7.6800   -5.7500   13.9050 C.ar  131  TYR131     -0.0009
      9  CE1       -5.5460   -7.4880   13.5590 C.ar  131  TYR131      0.0417
     10  CE2       -6.6260   -5.7570   14.8250 C.ar  131  TYR131      0.0417
     11  CZ        -5.5620   -6.6290   14.6350 C.ar  131  TYR131      0.1957
     12  OH        -4.5160   -6.6530   15.5390 O.3   131  TYR131     -0.2866
     13  N        -14.2120   -8.2620   14.9610 N.3   134  LEU134     -0.1231
     14  CA       -14.0150   -9.4540   15.7720 C.3   134  LEU134      0.1693
     15  C        -13.2550   -9.1570   17.0610 C.2   134  LEU134      0.2591
     16  O        -13.5530   -9.7240   18.1060 O.2   134  LEU134     -0.2718
     17  CB       -13.3320  -10.5690   14.9710 C.3   134  LEU134      0.0284
     18  CG       -14.1960  -11.2190   13.8830 C.3   134  LEU134      0.0019
     19  CD1      -13.3380  -12.1550   13.0390 C.3   134  LEU134      0.0001
     20  CD2      -15.3650  -11.9720   14.5080 C.3   134  LEU134      0.0001
     21  N        -12.2720   -8.2720   16.9930 N.am  135  LYS135     -0.1980
     22  CA       -11.5300   -7.8960   18.1900 C.3   135  LYS135      0.1596
     23  C        -12.3770   -7.0730   19.1780 C.2   135  LYS135      0.2287
     24  O        -12.3310   -7.2840   20.3870 O.2   135  LYS135     -0.2864
     25  CB       -10.2670   -7.1370   17.8120 C.3   135  LYS135      0.0298
     26  CG        -9.3780   -6.8120   18.9860 C.3   135  LYS135      0.0038
     27  CD        -8.0660   -6.2250   18.5120 C.3   135  LYS135      0.0206
     28  CE        -7.1800   -5.8740   19.7000 C.3   135  LYS135      0.1093
     29  NZ        -5.9840   -5.1000   19.2830 N.3   135  LYS135     -0.1314
     30  N        -15.4240  -11.1480   21.2880 N.3   139  GLY139     -0.1210
     31  CA       -15.1350  -11.8780   22.5120 C.3   139  GLY139      0.1956
     32  C        -14.4660  -13.2140   22.2320 C.2   139  GLY139      0.2612
     33  O        -14.7300  -14.2150   22.8940 O.2   139  GLY139     -0.2717
     34  N        -13.5940  -13.2330   21.2300 N.am  140  LEU140     -0.1965
     35  CA       -12.9360  -14.4700   20.8240 C.3   140  LEU140      0.1728
     36  C        -11.9510  -14.9910   21.8730 C.2   140  LEU140      0.2616
     37  O        -11.3180  -14.2090   22.5710 O.2   140  LEU140     -0.2715
     38  CB       -12.1860  -14.2610   19.5170 C.3   140  LEU140      0.0311
     39  CG       -13.0020  -13.8000   18.3160 C.3   140  LEU140      0.0022
     40  CD1      -12.1490  -13.8630   17.0650 C.3   140  LEU140      0.0001
     41  CD2      -14.2750  -14.6250   18.1350 C.3   140  LEU140      0.0001
     42  N        -11.8260  -16.3160   21.9560 N.am  141  SER141     -0.1950
     43  CA       -10.8630  -16.9760   22.8290 C.3   141  SER141      0.1924
     44  C        -10.8460  -18.4600   22.4720 C.2   141  SER141      0.2314
     45  O        -11.7230  -18.9320   21.7510 O.2   141  SER141     -0.2863
     46  CB       -11.2240  -16.7730   24.3050 C.3   141  SER141      0.2116
     47  OG       -12.4090  -17.4660   24.6530 O.3   141  SER141     -0.2180
     48  N         -8.5460  -14.9600   10.9550 N.3   162  LEU162     -0.1245
     49  CA        -8.3130  -14.3170   12.2410 C.3   162  LEU162      0.1561
     50  C         -8.9290  -15.1320   13.3650 C.2   162  LEU162      0.2260
     51  O         -8.3510  -15.2510   14.4320 O.2   162  LEU162     -0.2867
     52  CB        -8.8640  -12.8960   12.2410 C.3   162  LEU162      0.0270
     53  CG        -8.1150  -11.9730   11.2710 C.3   162  LEU162      0.0019
     54  CD1       -8.8510  -10.6630   11.0450 C.3   162  LEU162      0.0001
     55  CD2       -6.7150  -11.7110   11.7820 C.3   162  LEU162      0.0001
     56  N         -6.6260  -17.9530   14.0580 N.3   165  LYS165     -0.1231
     57  CA        -5.4710  -17.4980   14.8080 C.3   165  LYS165      0.1693
     58  C         -5.8250  -17.2980   16.2860 C.2   165  LYS165      0.2591
     59  O         -4.9830  -17.4590   17.1580 O.2   165  LYS165     -0.2718
     60  CB        -4.9310  -16.2020   14.2100 C.3   165  LYS165      0.0285
     61  CG        -4.4720  -16.3500   12.7680 C.3   165  LYS165      0.0035
     62  CD        -3.8670  -15.0540   12.2530 C.3   165  LYS165      0.0206
     63  CE        -3.2640  -15.2310   10.8750 C.3   165  LYS165      0.1093
     64  NZ        -2.2900  -16.3750   10.8610 N.3   165  LYS165     -0.1314
     65  N         -7.0840  -16.9510   16.5500 N.am  166  ALA166     -0.1980
     66  CA        -7.5730  -16.8490   17.9230 C.3   166  ALA166      0.1597
     67  C         -7.9190  -18.2160   18.5010 C.2   166  ALA166      0.2287
     68  O         -8.5260  -18.3090   19.5600 O.2   166  ALA166     -0.2864
     69  CB        -8.8020  -15.9190   17.9840 C.3   166  ALA166      0.0319
     70  N         -1.2630   -4.0150   11.8410 N.3   288  HIS288     -0.1241
     71  CA        -1.1330   -5.4510   12.0770 C.3   288  HIS288      0.1621
     72  C         -1.4440   -6.2760   10.8330 C.2   288  HIS288      0.2264
     73  O         -0.7820   -7.2680   10.5710 O.2   288  HIS288     -0.2867
     74  CB        -2.0200   -5.8990   13.2370 C.3   288  HIS288      0.0745
     75  CG        -1.6620   -7.2440   13.7870 C.ar  288  HIS288      0.0817
     76  ND1       -2.4470   -7.9080   14.7050 N.ar  288  HIS288     -0.2268
     77  CD2       -0.5930   -8.0440   13.5570 C.ar  288  HIS288      0.1154
     78  CE1       -1.8790   -9.0590   15.0160 C.ar  288  HIS288      0.1986
     79  NE2       -0.7570   -9.1690   14.3270 N.ar  288  HIS288     -0.2212
     80  N          1.1050   -9.1900    8.8130 N.3   292  MET292     -0.1245
     81  CA         0.7860  -10.5810    8.5480 C.3   292  MET292      0.1570
     82  C          0.7880  -10.8380    7.0500 C.2   292  MET292      0.2261
     83  O          1.2000  -11.8980    6.5920 O.2   292  MET292     -0.2867
     84  CB        -0.5630  -10.9380    9.1730 C.3   292  MET292      0.0387
     85  CG        -0.4990  -11.0080   10.6890 C.3   292  MET292      0.0595
     86  SD        -2.0770  -11.4780   11.3870 S.3   292  MET292     -0.1393
     87  CE        -2.9150   -9.9030   11.4040 C.3   292  MET292      0.0692
     88  N          1.7460  -14.6590    6.8760 N.3   297  ASP297     -0.1239
     89  CA         0.9500  -15.2660    7.9460 C.3   297  ASP297      0.1674
     90  C         -0.5540  -15.0430    7.7210 C.2   297  ASP297      0.2266
     91  O         -1.3820  -15.4590    8.5250 O.2   297  ASP297     -0.2867
     92  CB         1.3980  -14.7280    9.3080 C.3   297  ASP297      0.1410
     93  CG         2.6360  -15.4370    9.8300 C.2   297  ASP297      0.3668
     94  OD1        2.8200  -16.6250    9.4840 O.co2 297  ASP297     -0.2456
     95  OD2        3.4180  -14.8130   10.5750 O.co2 297  ASP297     -0.2456
@<TRIPOS>BOND
     1    83    82    2
     2    88    89    1
     3    82    81    1
     4    90    89    1
     5    90    91    2
     6    89    92    1
     7    81    80    1
     8    81    84    1
     9    84    85    1
    10    92    93    1
    11    94    93   ar
    12    93    95   ar
    13    73    72    2
    14    85    86    1
    15    72    71    1
    16    64    63    1
    17    63    62    1
    18    48    49    1
    19    54    53    1
    20     1     2    1
    21    53    55    1
    22    53    52    1
    23    86    87    1
    24     5     2    1
    25     5     6    1
    26    70    71    1
    27    71    74    1
    28    49    52    1
    29    49    50    1
    30    62    61    1
    31     2     3    1
    32     7     6   ar
    33     7     9   ar
    34    61    60    1
    35     6     8   ar
    36    19    18    1
    37    74    75    1
    38    50    51    2
    39     3     4    2
    40    77    75   ar
    41    77    79   ar
    42     9    11   ar
    43    75    76   ar
    44    18    20    1
    45    18    17    1
    46     8    10   ar
    47    56    57    1
    48    60    57    1
    49    79    78   ar
    50    11    10   ar
    51    11    12    1
    52    76    78   ar
    53    57    58    1
    54    13    14    1
    55    17    14    1
    56    14    15    1
    57    58    65   am
    58    58    59    2
    59    65    66    1
    60    21    15   am
    61    21    22    1
    62    15    16    2
    63    40    39    1
    64    25    22    1
    65    25    26    1
    66    66    69    1
    67    66    67    1
    68    41    39    1
    69    22    23    1
    70    39    38    1
    71    67    68    2
    72    27    26    1
    73    27    28    1
    74    23    24    2
    75    29    28    1
    76    38    35    1
    77    35    34    1
    78    35    36    1
    79    34    32   am
    80    30    31    1
    81    45    44    2
    82    36    42   am
    83    36    37    2
    84    42    43    1
    85    32    31    1
    86    32    33    2
    87    44    43    1
    88    43    46    1
    89    46    47    1
