@<TRIPOS>MOLECULE
tmp/2x1hA01.pdb
 117 114 0 0 0
SMALL
GASTEIGER

@<TRIPOS>ATOM
      1  N        -19.4280   -4.8250   -1.8780 N.3    46  ALA46      -0.1231
      2  CA       -20.8600   -5.0670   -1.9480 C.3    46  ALA46       0.1694
      3  C        -21.6350   -3.7650   -1.8050 C.2    46  ALA46       0.2592
      4  O        -22.5830   -3.5130   -2.5580 O.2    46  ALA46      -0.2718
      5  CB       -21.2920   -6.0700   -0.9020 C.3    46  ALA46       0.0304
      6  N        -21.2130   -2.9150   -0.8710 N.am   47  SER47      -0.1952
      7  CA       -21.9570   -1.6910   -0.5860 C.3    47  SER47       0.1924
      8  C        -21.8120   -0.5760   -1.6240 C.2    47  SER47       0.2314
      9  O        -22.3990    0.5020   -1.4630 O.2    47  SER47      -0.2863
     10  CB       -21.6310   -1.1600    0.8090 C.3    47  SER47       0.2116
     11  OG       -22.6730   -1.4940    1.7070 O.3    47  SER47      -0.2180
     12  N        -25.1740    0.1720   -2.5290 N.3    50  ASN50      -0.1240
     13  CA       -25.8860    0.9180   -1.5090 C.3    50  ASN50       0.1653
     14  C        -25.5280    2.3920   -1.6950 C.2    50  ASN50       0.2266
     15  O        -26.3640    3.2760   -1.5130 O.2    50  ASN50      -0.2867
     16  CB       -25.5030    0.4380   -0.1060 C.3    50  ASN50       0.1155
     17  CG       -26.1480   -0.9010    0.2680 C.2    50  ASN50       0.2627
     18  OD1      -27.2910   -1.1930   -0.1000 O.2    50  ASN50      -0.2716
     19  ND2      -25.4140   -1.7130    1.0280 N.am   50  ASN50      -0.0877
     20  N        -27.9870    5.6080   -0.3150 N.3    55  ARG55      -0.1231
     21  CA       -28.3910    5.2250    1.0400 C.3    55  ARG55       0.1694
     22  C        -27.4910    5.7620    2.1640 C.2    55  ARG55       0.2592
     23  O        -27.9160    5.8410    3.3190 O.2    55  ARG55      -0.2718
     24  CB       -28.5600    3.7090    1.1300 C.3    55  ARG55       0.0321
     25  CG       -29.6540    3.1950    0.2130 C.3    55  ARG55       0.0489
     26  CD       -29.6310    1.6970    0.0350 C.3    55  ARG55       0.2205
     27  NE       -30.7150    1.2620   -0.8460 N.pl3  55  ARG55      -0.0865
     28  CZ       -30.6990    0.1330   -1.5480 C.cat  55  ARG55       0.5346
     29  NH1      -29.6440   -0.6800   -1.4870 N.pl3  55  ARG55       0.1354
     30  NH2      -31.7290   -0.1860   -2.3270 N.pl3  55  ARG55       0.1354
     31  N        -26.2590    6.1450    1.8320 N.am   56  TYR56      -0.1976
     32  CA       -25.3590    6.7120    2.8400 C.3    56  TYR56       0.1639
     33  C        -25.8360    8.0860    3.3030 C.2    56  TYR56       0.2290
     34  O        -25.7150    8.4300    4.4780 O.2    56  TYR56      -0.2864
     35  CB       -23.9240    6.7980    2.3160 C.3    56  TYR56       0.0560
     36  CG       -23.1530    5.5100    2.4360 C.ar   56  TYR56      -0.0198
     37  CD1      -21.9710    5.4540    3.1730 C.ar   56  TYR56      -0.0009
     38  CD2      -23.6010    4.3430    1.8250 C.ar   56  TYR56      -0.0009
     39  CE1      -21.2560    4.2780    3.2910 C.ar   56  TYR56       0.0417
     40  CE2      -22.8860    3.1580    1.9400 C.ar   56  TYR56       0.0417
     41  CZ       -21.7130    3.1360    2.6780 C.ar   56  TYR56       0.1957
     42  OH       -20.9830    1.9690    2.8060 O.3    56  TYR56      -0.2866
     43  N        -22.6340   -7.7420   10.0290 N.3   239  ILE239     -0.1231
     44  CA       -21.6040   -7.0870    9.2290 C.3   239  ILE239      0.1692
     45  C        -22.2570   -6.5520    7.9590 C.2   239  ILE239      0.2593
     46  O        -21.8480   -5.5220    7.4140 O.2   239  ILE239     -0.2718
     47  CB       -20.4730   -8.0820    8.8590 C.3   239  ILE239      0.0266
     48  CG1      -19.7240   -8.5720   10.1100 C.3   239  ILE239      0.0019
     49  CG2      -19.5140   -7.4590    7.8360 C.3   239  ILE239      0.0020
     50  CD1      -18.7930   -7.5540   10.7540 C.3   239  ILE239      0.0001
     51  N        -23.3030   -7.2440    7.5140 N.am  240  GLY240     -0.1942
     52  CA       -23.9820   -6.8980    6.2820 C.3   240  GLY240      0.2014
     53  C        -25.1620   -7.8140    6.0160 C.2   240  GLY240      0.2638
     54  O        -25.4660   -8.7120    6.8020 O.2   240  GLY240     -0.2714
     55  N        -25.8450   -7.5650    4.9040 N.am  241  PHE241     -0.1973
     56  CA       -26.9190   -8.4320    4.4500 C.3   241  PHE241      0.1639
     57  C        -27.0580   -8.3010    2.9350 C.2   241  PHE241      0.2290
     58  O        -28.0320   -7.7590    2.4220 O.2   241  PHE241     -0.2864
     59  CB       -28.2370   -8.1400    5.1780 C.3   241  PHE241      0.0560
     60  CG       -28.4590   -6.6880    5.4990 C.ar  241  PHE241     -0.0200
     61  CD1      -29.1140   -5.8510    4.6090 C.ar  241  PHE241     -0.0042
     62  CD2      -28.0340   -6.1680    6.6980 C.ar  241  PHE241     -0.0042
     63  CE1      -29.3300   -4.5160    4.9150 C.ar  241  PHE241     -0.0003
     64  CE2      -28.2430   -4.8300    7.0110 C.ar  241  PHE241     -0.0003
     65  CZ       -28.8900   -4.0050    6.1200 C.ar  241  PHE241     -0.0000
     66  N        -29.3530   -6.1160   -0.8740 N.3   245  TYR245     -0.1241
     67  CA       -28.8700   -4.8170   -1.3520 C.3   245  TYR245      0.1605
     68  C        -29.4920   -4.3870   -2.6940 C.2   245  TYR245      0.2264
     69  O        -29.6790   -3.1990   -2.9470 O.2   245  TYR245     -0.2867
     70  CB       -27.3410   -4.8080   -1.4470 C.3   245  TYR245      0.0534
     71  CG       -26.6130   -4.9050   -0.1190 C.ar  245  TYR245     -0.0201
     72  CD1      -27.3000   -4.8870    1.0840 C.ar  245  TYR245     -0.0009
     73  CD2      -25.2300   -5.0180   -0.0730 C.ar  245  TYR245     -0.0009
     74  CE1      -26.6160   -4.9760    2.3090 C.ar  245  TYR245      0.0417
     75  CE2      -24.5380   -5.1250    1.1430 C.ar  245  TYR245      0.0417
     76  CZ       -25.2460   -5.0970    2.3280 C.ar  245  TYR245      0.1957
     77  OH       -24.5670   -5.1910    3.5300 O.3   245  TYR245     -0.2866
     78  N        -35.4950   -1.2610   -1.3070 N.3   249  THR249     -0.1203
     79  CA       -35.1540   -0.7370    0.0160 C.3   249  THR249      0.1994
     80  C        -33.7560   -1.1750    0.4750 C.2   249  THR249      0.2618
     81  O        -33.1950   -0.6160    1.4280 O.2   249  THR249     -0.2717
     82  CB       -36.1660   -1.1700    1.0860 C.3   249  THR249      0.1784
     83  OG1      -36.0320   -2.5790    1.3280 O.3   249  THR249     -0.2211
     84  CG2      -37.5840   -0.8410    0.6510 C.3   249  THR249      0.0376
     85  N        -33.2050   -2.1820   -0.1960 N.am  250  GLY250     -0.1942
     86  CA       -31.8820   -2.6880    0.1420 C.3   250  GLY250      0.2014
     87  C        -31.9300   -3.6770    1.2830 C.2   250  GLY250      0.2638
     88  O        -30.8970   -4.2020    1.7000 O.2   250  GLY250     -0.2714
     89  N        -33.1320   -3.9520    1.7820 N.am  251  LEU251     -0.1977
     90  CA       -33.3010   -4.8420    2.9120 C.3   251  LEU251      0.1596
     91  C        -33.5930   -6.2710    2.4670 C.2   251  LEU251      0.2287
     92  O        -34.1310   -6.5040    1.3880 O.2   251  LEU251     -0.2864
     93  CB       -34.4300   -4.3440    3.8090 C.3   251  LEU251      0.0297
     94  CG       -34.3320   -2.8830    4.2430 C.3   251  LEU251      0.0022
     95  CD1      -35.5180   -2.5160    5.1160 C.3   251  LEU251      0.0001
     96  CD2      -33.0080   -2.6340    4.9630 C.3   251  LEU251      0.0001
     97  N        -20.3830   -0.9670   11.8500 N.3   274  PHE274     -0.1241
     98  CA       -20.1600   -0.0950   10.7040 C.3   274  PHE274      0.1605
     99  C        -18.7200    0.4060   10.8090 C.2   274  PHE274      0.2264
    100  O        -18.3500    1.0450   11.7950 O.2   274  PHE274     -0.2867
    101  CB       -21.1650    1.0690   10.7370 C.3   274  PHE274      0.0534
    102  CG       -21.1170    1.9610    9.5270 C.ar  274  PHE274     -0.0203
    103  CD1      -21.1640    1.4290    8.2450 C.ar  274  PHE274     -0.0042
    104  CD2      -21.0590    3.3410    9.6700 C.ar  274  PHE274     -0.0042
    105  CE1      -21.1320    2.2550    7.1300 C.ar  274  PHE274     -0.0003
    106  CE2      -21.0290    4.1740    8.5550 C.ar  274  PHE274     -0.0003
    107  CZ       -21.0670    3.6300    7.2880 C.ar  274  PHE274     -0.0000
    108  N        -17.5180    3.8350   12.2470 N.3   277  HIS277     -0.1241
    109  CA       -17.7100    4.1830   13.6510 C.3   277  HIS277      0.1621
    110  C        -16.5240    3.7710   14.4990 C.2   277  HIS277      0.2264
    111  O        -16.4880    4.0510   15.7010 O.2   277  HIS277     -0.2867
    112  CB       -18.9590    3.5070   14.2150 C.3   277  HIS277      0.0745
    113  CG       -20.2360    4.0660   13.6870 C.ar  277  HIS277      0.0817
    114  ND1      -21.3450    3.2830   13.4400 N.ar  277  HIS277     -0.2268
    115  CD2      -20.5850    5.3330   13.3610 C.ar  277  HIS277      0.1154
    116  CE1      -22.3250    4.0470   12.9970 C.ar  277  HIS277      0.1986
    117  NE2      -21.8880    5.2930   12.9340 N.ar  277  HIS277     -0.2212
@<TRIPOS>BOND
     1    69    68    2
     2    68    67    1
     3     4     3    2
     4    12    13    1
     5    30    28    1
     6     2     1    1
     7     2     3    1
     8     2     5    1
     9     3     6   am
    10    14    15    2
    11    14    13    1
    12     8     9    2
    13     8     7    1
    14    28    29    1
    15    28    27    2
    16    13    16    1
    17    70    67    1
    18    70    71    1
    19    67    66    1
    20    78    79    1
    21     6     7    1
    22    27    26    1
    23     7    10    1
    24    20    21    1
    25    85    86    1
    26    85    80   am
    27    71    73   ar
    28    71    72   ar
    29    16    17    1
    30    18    17    2
    31    73    75   ar
    32    79    80    1
    33    79    82    1
    34    26    25    1
    35    86    87    1
    36    25    24    1
    37    17    19   am
    38    80    81    2
    39    84    82    1
    40    10    11    1
    41    21    24    1
    42    21    22    1
    43    72    74   ar
    44    82    83    1
    45    75    76   ar
    46    87    88    2
    47    87    89   am
    48    92    91    2
    49    89    90    1
    50    38    40   ar
    51    38    36   ar
    52    31    22   am
    53    31    32    1
    54    40    41   ar
    55    22    23    2
    56    74    76   ar
    57    35    36    1
    58    35    32    1
    59    76    77    1
    60    58    57    2
    61    36    37   ar
    62    91    90    1
    63    41    42    1
    64    41    39   ar
    65    32    33    1
    66    90    93    1
    67    57    56    1
    68    37    39   ar
    69    33    34    2
    70    93    94    1
    71    94    96    1
    72    94    95    1
    73    56    55    1
    74    56    59    1
    75    61    63   ar
    76    61    60   ar
    77    55    53   am
    78    63    65   ar
    79    59    60    1
    80    60    62   ar
    81    53    52    1
    82    53    54    2
    83    65    64   ar
    84    52    51    1
    85    62    64   ar
    86   105   107   ar
    87   105   103   ar
    88   107   106   ar
    89    46    45    2
    90    51    45   am
    91    49    47    1
    92    45    44    1
    93   103   102   ar
    94   106   104   ar
    95    47    44    1
    96    47    48    1
    97    44    43    1
    98   102   104   ar
    99   102   101    1
   100    48    50    1
   101    98   101    1
   102    98    99    1
   103    98    97    1
   104    99   100    2
   105   108   109    1
   106   117   116   ar
   107   117   115   ar
   108   116   114   ar
   109   115   113   ar
   110   114   113   ar
   111   109   112    1
   112   109   110    1
   113   113   112    1
   114   110   111    2
