@<TRIPOS>MOLECULE
tmp/2x1hB02.pdb
 96 90 0 0 0
SMALL
GASTEIGER

@<TRIPOS>ATOM
      1  N        -29.8480   -0.3880  -37.5010 N.3   129  ALA129     -0.1231
      2  CA       -29.3460    0.9240  -37.8850 C.3   129  ALA129      0.1694
      3  C        -27.8520    1.0590  -37.6010 C.2   129  ALA129      0.2592
      4  O        -27.1060    1.5990  -38.4090 O.2   129  ALA129     -0.2718
      5  CB       -30.1240    2.0240  -37.1580 C.3   129  ALA129      0.0304
      6  N        -27.4340    0.5700  -36.4420 N.am  130  TYR130     -0.1976
      7  CA       -26.0300    0.6510  -36.0190 C.3   130  TYR130      0.1639
      8  C        -25.1060   -0.0600  -37.0040 C.2   130  TYR130      0.2290
      9  O        -24.1330    0.5220  -37.5210 O.2   130  TYR130     -0.2864
     10  CB       -25.8670    0.0300  -34.6260 C.3   130  TYR130      0.0560
     11  CG       -24.5050    0.2800  -33.9890 C.ar  130  TYR130     -0.0198
     12  CD1      -24.3420    1.2710  -33.0290 C.ar  130  TYR130     -0.0009
     13  CD2      -23.3940   -0.4730  -34.3450 C.ar  130  TYR130     -0.0009
     14  CE1      -23.1150    1.5080  -32.4380 C.ar  130  TYR130      0.0417
     15  CE2      -22.1500   -0.2410  -33.7600 C.ar  130  TYR130      0.0417
     16  CZ       -22.0240    0.7540  -32.8100 C.ar  130  TYR130      0.1957
     17  OH       -20.8050    0.9950  -32.2170 O.3   130  TYR130     -0.2866
     18  N        -25.3580    1.2150  -40.9670 N.3   133  LEU133     -0.1231
     19  CA       -24.7310    2.5070  -41.2150 C.3   133  LEU133      0.1693
     20  C        -23.2200    2.4500  -41.0360 C.2   133  LEU133      0.2591
     21  O        -22.4890    3.0820  -41.7860 O.2   133  LEU133     -0.2718
     22  CB       -25.3420    3.6120  -40.3540 C.3   133  LEU133      0.0284
     23  CG       -26.7670    4.0050  -40.7700 C.3   133  LEU133      0.0019
     24  CD1      -27.3940    4.9190  -39.7390 C.3   133  LEU133      0.0001
     25  CD2      -26.7640    4.6640  -42.1480 C.3   133  LEU133      0.0001
     26  N        -22.7590    1.6970  -40.0440 N.am  134  LYS134     -0.1980
     27  CA       -21.3250    1.5660  -39.8090 C.3   134  LYS134      0.1596
     28  C        -20.6180    0.7460  -40.8920 C.2   134  LYS134      0.2287
     29  O        -19.5290    1.0970  -41.3350 O.2   134  LYS134     -0.2864
     30  CB       -21.0600    0.9580  -38.4290 C.3   134  LYS134      0.0298
     31  CG       -19.5880    0.8710  -38.0720 C.3   134  LYS134      0.0038
     32  CD       -19.4080    0.4290  -36.6340 C.3   134  LYS134      0.0206
     33  CE       -17.9340    0.3670  -36.2670 C.3   134  LYS134      0.1093
     34  NZ       -17.7320   -0.2670  -34.9340 N.3   134  LYS134     -0.1314
     35  N        -20.1480    6.8530  -43.3600 N.3   139  LEU139     -0.1231
     36  CA       -20.4660    8.1210  -42.7070 C.3   139  LEU139      0.1693
     37  C        -19.2250    8.8960  -42.2740 C.2   139  LEU139      0.2592
     38  O        -18.2260    8.3100  -41.8720 O.2   139  LEU139     -0.2718
     39  CB       -21.3470    7.8830  -41.4870 C.3   139  LEU139      0.0284
     40  CG       -22.6780    7.1620  -41.6970 C.3   139  LEU139      0.0019
     41  CD1      -23.4850    7.2210  -40.4030 C.3   139  LEU139      0.0001
     42  CD2      -23.4690    7.7620  -42.8610 C.3   139  LEU139      0.0001
     43  N        -19.3160   10.2200  -42.3380 N.am  140  SER140     -0.1952
     44  CA       -18.2510   11.1030  -41.8690 C.3   140  SER140      0.1924
     45  C        -18.8080   12.5190  -41.8150 C.2   140  SER140      0.2314
     46  O        -19.8720   12.7820  -42.3710 O.2   140  SER140     -0.2863
     47  CB       -17.0300   11.0320  -42.7900 C.3   140  SER140      0.2116
     48  OG       -17.3200   11.5760  -44.0650 O.3   140  SER140     -0.2180
     49  N        -27.8200    8.1690  -34.7480 N.3   161  LEU161     -0.1245
     50  CA       -26.4630    7.7170  -35.0010 C.3   161  LEU161      0.1561
     51  C        -25.8190    8.5420  -36.1050 C.2   161  LEU161      0.2260
     52  O        -24.6330    8.8610  -36.0390 O.2   161  LEU161     -0.2867
     53  CB       -26.4540    6.2320  -35.3650 C.3   161  LEU161      0.0270
     54  CG       -26.9030    5.3080  -34.2310 C.3   161  LEU161      0.0019
     55  CD1      -27.1680    3.8970  -34.7310 C.3   161  LEU161      0.0001
     56  CD2      -25.8700    5.3040  -33.1150 C.3   161  LEU161      0.0001
     57  N        -24.7190   11.6970  -34.5580 N.3   164  LYS164     -0.1231
     58  CA       -23.5160   11.5090  -33.7540 C.3   164  LYS164      0.1693
     59  C        -22.2770   11.4120  -34.6400 C.2   164  LYS164      0.2591
     60  O        -21.1690   11.7630  -34.2220 O.2   164  LYS164     -0.2718
     61  CB       -23.6440   10.2620  -32.8850 C.3   164  LYS164      0.0285
     62  CG       -24.8010   10.3180  -31.8980 C.3   164  LYS164      0.0035
     63  CD       -24.8020    9.0900  -31.0140 C.3   164  LYS164      0.0206
     64  CE       -25.8670    9.1970  -29.9410 C.3   164  LYS164      0.1093
     65  NZ       -25.6640   10.4080  -29.1020 N.3   164  LYS164     -0.1314
     66  N        -22.4720   10.9350  -35.8670 N.am  165  ALA165     -0.1980
     67  CA       -21.4060   10.9060  -36.8670 C.3   165  ALA165      0.1597
     68  C        -21.2160   12.2650  -37.5350 C.2   165  ALA165      0.2287
     69  O        -20.4660   12.3850  -38.5080 O.2   165  ALA165     -0.2864
     70  CB       -21.6800    9.8200  -37.9190 C.3   165  ALA165      0.0319
     71  N        -22.5150   -1.4520  -27.4380 N.3   287  HIS287     -0.1241
     72  CA       -22.4420   -0.0020  -27.5520 C.3   287  HIS287      0.1621
     73  C        -23.8080    0.6440  -27.4010 C.2   287  HIS287      0.2264
     74  O        -23.9380    1.6850  -26.7530 O.2   287  HIS287     -0.2867
     75  CB       -21.7890    0.4220  -28.8700 C.3   287  HIS287      0.0745
     76  CG       -21.3620    1.8590  -28.8970 C.ar  287  HIS287      0.0817
     77  ND1      -20.9390    2.4920  -30.0480 N.ar  287  HIS287     -0.2268
     78  CD2      -21.2840    2.7840  -27.9110 C.ar  287  HIS287      0.1154
     79  CE1      -20.6200    3.7440  -29.7690 C.ar  287  HIS287      0.1986
     80  NE2      -20.8230    3.9470  -28.4790 N.ar  287  HIS287     -0.2212
     81  N        -25.1040    3.6620  -24.5950 N.3   291  MET291     -0.1245
     82  CA       -25.7040    4.9540  -24.8710 C.3   291  MET291      0.1570
     83  C        -27.1050    5.0590  -24.2830 C.2   291  MET291      0.2261
     84  O        -27.5060    6.1130  -23.8040 O.2   291  MET291     -0.2867
     85  CB       -25.7150    5.2050  -26.3770 C.3   291  MET291      0.0387
     86  CG       -24.3200    5.3910  -26.9310 C.3   291  MET291      0.0595
     87  SD       -24.2860    5.7300  -28.6900 S.3   291  MET291     -0.1393
     88  CE       -24.4350    4.0740  -29.3490 C.3   291  MET291      0.0692
     89  N        -27.4900    8.9550  -23.6620 N.3   296  ASP296     -0.1239
     90  CA       -26.9500    9.5490  -24.8820 C.3   296  ASP296      0.1674
     91  C        -27.6890    9.0660  -26.1300 C.2   296  ASP296      0.2266
     92  O        -27.3340    9.4290  -27.2470 O.2   296  ASP296     -0.2867
     93  CB       -25.4470    9.2700  -25.0010 C.3   296  ASP296      0.1410
     94  CG       -24.6100   10.2070  -24.1450 C.2   296  ASP296      0.3668
     95  OD1      -25.0210   11.3700  -23.9580 O.co2 296  ASP296     -0.2456
     96  OD2      -23.5380    9.7850  -23.6650 O.co2 296  ASP296     -0.2456
@<TRIPOS>BOND
     1    48    47    1
     2    35    36    1
     3    42    40    1
     4    47    44    1
     5    36    37    1
     6    36    39    1
     7    46    45    2
     8    43    37   am
     9    43    44    1
    10    37    38    2
    11    25    23    1
    12    44    45    1
    13    21    20    2
    14    40    39    1
    15    40    41    1
    16    29    28    2
    17    19    20    1
    18    19    18    1
    19    19    22    1
    20    20    26   am
    21    28    27    1
    22    23    22    1
    23    23    24    1
    24    26    27    1
    25    27    30    1
    26    69    68    2
    27    30    31    1
    28     4     3    2
    29    31    32    1
    30    70    67    1
    31     2     3    1
    32     2     1    1
    33     2     5    1
    34     3     6   am
    35    68    67    1
    36     9     8    2
    37     8     7    1
    38    67    66    1
    39    32    33    1
    40     6     7    1
    41    33    34    1
    42    51    52    2
    43    51    50    1
    44     7    10    1
    45    66    59   am
    46    53    50    1
    47    53    54    1
    48    50    49    1
    49    55    54    1
    50    59    60    2
    51    59    58    1
    52    10    11    1
    53    57    58    1
    54    13    11   ar
    55    13    15   ar
    56    54    56    1
    57    11    12   ar
    58    15    16   ar
    59    58    61    1
    60    12    14   ar
    61    61    62    1
    62    16    14   ar
    63    16    17    1
    64    62    63    1
    65    63    64    1
    66    77    79   ar
    67    77    76   ar
    68    64    65    1
    69    79    80   ar
    70    88    87    1
    71    76    75    1
    72    76    78   ar
    73    75    72    1
    74    87    86    1
    75    80    78   ar
    76    72    71    1
    77    72    73    1
    78    73    74    2
    79    92    91    2
    80    86    85    1
    81    85    82    1
    82    91    90    1
    83    93    90    1
    84    93    94    1
    85    90    89    1
    86    82    81    1
    87    82    83    1
    88    83    84    2
    89    94    95   ar
    90    94    96   ar
