@<TRIPOS>MOLECULE
tmp/2x1lC01.pdb
 159 161 0 0 0
SMALL
GASTEIGER

@<TRIPOS>ATOM
      1  N        -41.3830   35.6910   17.1830 N.3     9  ALA9       -0.1231
      2  CA       -41.4040   37.1460   17.2100 C.3     9  ALA9        0.1694
      3  C        -41.8020   37.6420   15.8250 C.2     9  ALA9        0.2592
      4  O        -41.4310   37.0410   14.8140 O.2     9  ALA9       -0.2718
      5  CB       -40.0460   37.6890   17.5980 C.3     9  ALA9        0.0304
      6  N        -42.5760   38.7210   15.7810 N.am   10  ILE10      -0.1966
      7  CA       -42.9880   39.3100   14.5080 C.3    10  ILE10       0.1727
      8  C        -42.0140   40.4170   14.1070 C.2    10  ILE10       0.2616
      9  O        -41.8000   41.3710   14.8540 O.2    10  ILE10      -0.2715
     10  CB       -44.4660   39.7890   14.5310 C.3    10  ILE10       0.0290
     11  CG1      -44.7560   40.6280   15.7830 C.3    10  ILE10       0.0022
     12  CG2      -45.4090   38.5840   14.4630 C.3    10  ILE10       0.0023
     13  CD1      -46.1030   41.3210   15.7740 C.3    10  ILE10       0.0001
     14  N        -41.4140   40.2720   12.9290 N.am   11  ALA11      -0.1963
     15  CA       -40.3190   41.1430   12.4990 C.3    11  ALA11       0.1728
     16  C        -40.7640   42.5410   12.0750 C.2    11  ALA11       0.2616
     17  O        -41.8330   42.7080   11.4870 O.2    11  ALA11      -0.2715
     18  CB       -39.5390   40.4820   11.3720 C.3    11  ALA11       0.0334
     19  N        -39.9380   43.5380   12.3870 N.am   12  TYR12      -0.1974
     20  CA       -40.0530   44.8510   11.7660 C.3    12  TYR12       0.1639
     21  C        -39.6160   44.6970   10.3140 C.2    12  TYR12       0.2290
     22  O        -38.4810   44.2870   10.0550 O.2    12  TYR12      -0.2864
     23  CB       -39.1430   45.8800   12.4420 C.3    12  TYR12       0.0560
     24  CG       -39.5160   46.2830   13.8480 C.ar   12  TYR12      -0.0198
     25  CD1      -38.5950   46.1620   14.8870 C.ar   12  TYR12      -0.0009
     26  CD2      -40.7770   46.8100   14.1410 C.ar   12  TYR12      -0.0009
     27  CE1      -38.9170   46.5430   16.1850 C.ar   12  TYR12       0.0417
     28  CE2      -41.1110   47.1890   15.4410 C.ar   12  TYR12       0.0417
     29  CZ       -40.1750   47.0500   16.4550 C.ar   12  TYR12       0.1957
     30  OH       -40.4880   47.4190   17.7410 O.3    12  TYR12      -0.2866
     31  N        -32.8560   38.7270    6.8110 N.3    18  HIS18      -0.1226
     32  CA       -31.5190   38.1370    6.8320 C.3    18  HIS18       0.1752
     33  C        -31.4990   36.7810    7.5410 C.2    18  HIS18       0.2596
     34  O        -32.5490   36.2400    7.8970 O.2    18  HIS18      -0.2718
     35  CB       -30.4940   39.1030    7.4430 C.3    18  HIS18       0.0759
     36  CG       -30.9400   39.7340    8.7240 C.ar   18  HIS18       0.0818
     37  ND1      -31.0950   39.0200    9.8930 N.ar   18  HIS18      -0.2268
     38  CD2      -31.2550   41.0170    9.0220 C.ar   18  HIS18       0.1154
     39  CE1      -31.4940   39.8340   10.8530 C.ar   18  HIS18       0.1986
     40  NE2      -31.5970   41.0520   10.3520 N.ar   18  HIS18      -0.2212
     41  N        -30.2960   36.2460    7.7390 N.am   19  ILE19      -0.1966
     42  CA       -30.1010   34.8980    8.2760 C.3    19  ILE19       0.1727
     43  C        -30.7010   34.6990    9.6760 C.2    19  ILE19       0.2617
     44  O        -31.2180   33.6240    9.9860 O.2    19  ILE19      -0.2715
     45  CB       -28.5960   34.4700    8.2180 C.3    19  ILE19       0.0290
     46  CG1      -28.4220   32.9780    8.5350 C.3    19  ILE19       0.0022
     47  CG2      -27.7250   35.3400    9.1270 C.3    19  ILE19       0.0023
     48  CD1      -29.0080   32.0400    7.4880 C.3    19  ILE19       0.0001
     49  N        -30.6500   35.7440   10.4980 N.am   20  GLY20      -0.1940
     50  CA       -31.1940   35.7040   11.8540 C.3    20  GLY20       0.2014
     51  C        -32.6930   35.4710   11.9060 C.2    20  GLY20       0.2638
     52  O        -33.1860   34.7600   12.7870 O.2    20  GLY20      -0.2714
     53  N        -33.4160   36.0760   10.9660 N.am   21  HIS21      -0.1973
     54  CA       -34.8520   35.8490   10.8210 C.3    21  HIS21       0.1656
     55  C        -35.1180   34.4000   10.4240 C.2    21  HIS21       0.2291
     56  O        -35.9160   33.7110   11.0650 O.2    21  HIS21      -0.2864
     57  CB       -35.4480   36.7950    9.7770 C.3    21  HIS21       0.0771
     58  CG       -35.3930   38.2400   10.1640 C.ar   21  HIS21       0.0820
     59  ND1      -34.6260   39.1630    9.4860 N.ar   21  HIS21      -0.2267
     60  CD2      -36.0120   38.9210   11.1570 C.ar   21  HIS21       0.1154
     61  CE1      -34.7760   40.3510   10.0440 C.ar   21  HIS21       0.1986
     62  NE2      -35.6110   40.2320   11.0600 N.ar   21  HIS21      -0.2212
     63  N        -33.2280   31.8280   10.7570 N.3    23  TYR23      -0.1227
     64  CA       -32.8210   30.9690   11.8650 C.3    23  TYR23       0.1736
     65  C        -33.9790   30.7270   12.8310 C.2    23  TYR23       0.2595
     66  O        -34.2780   29.5820   13.1710 O.2    23  TYR23      -0.2718
     67  CB       -31.6140   31.5900   12.5820 C.3    23  TYR23       0.0548
     68  CG       -31.0820   30.8220   13.7760 C.ar   23  TYR23      -0.0200
     69  CD1      -30.8420   29.4480   13.7060 C.ar   23  TYR23      -0.0009
     70  CD2      -30.7850   31.4800   14.9670 C.ar   23  TYR23      -0.0009
     71  CE1      -30.3430   28.7500   14.8030 C.ar   23  TYR23       0.0417
     72  CE2      -30.2840   30.7900   16.0680 C.ar   23  TYR23       0.0417
     73  CZ       -30.0640   29.4290   15.9790 C.ar   23  TYR23       0.1957
     74  OH       -29.5670   28.7490   17.0650 O.3    23  TYR23      -0.2866
     75  N        -34.6390   31.8070   13.2430 N.am   24  GLU24      -0.1965
     76  CA       -35.7660   31.7320   14.1710 C.3    24  GLU24       0.1733
     77  C        -36.9630   30.9830   13.5840 C.2    24  GLU24       0.2616
     78  O        -37.6200   30.2110   14.2870 O.2    24  GLU24      -0.2715
     79  CB       -36.1860   33.1350   14.6200 C.3    24  GLU24       0.0429
     80  CG       -37.2450   33.1470   15.7160 C.3    24  GLU24       0.1163
     81  CD       -37.4890   34.5300   16.2840 C.2    24  GLU24       0.3649
     82  OE1      -38.6360   35.0130   16.1860 O.co2  24  GLU24      -0.2457
     83  OE2      -36.5370   35.1350   16.8250 O.co2  24  GLU24      -0.2457
     84  N        -37.2390   31.2090   12.3000 N.am   25  TYR25      -0.1974
     85  CA       -38.3890   30.5870   11.6430 C.3    25  TYR25       0.1639
     86  C        -38.2140   29.0780   11.4780 C.2    25  TYR25       0.2290
     87  O        -39.1420   28.3140   11.7470 O.2    25  TYR25      -0.2864
     88  CB       -38.6930   31.2490   10.2910 C.3    25  TYR25       0.0560
     89  CG       -38.9080   32.7520   10.3440 C.ar   25  TYR25      -0.0198
     90  CD1      -38.5540   33.5590    9.2630 C.ar   25  TYR25      -0.0009
     91  CD2      -39.4580   33.3680   11.4720 C.ar   25  TYR25      -0.0009
     92  CE1      -38.7430   34.9360    9.3000 C.ar   25  TYR25       0.0417
     93  CE2      -39.6490   34.7480   11.5180 C.ar   25  TYR25       0.0417
     94  CZ       -39.2900   35.5230   10.4270 C.ar   25  TYR25       0.1957
     95  OH       -39.4780   36.8860   10.4640 O.3    25  TYR25      -0.2866
     96  N        -35.5980   36.0810   20.0880 N.3   226  GLY226     -0.1225
     97  CA       -34.1620   36.2720   20.2760 C.3   226  GLY226      0.1811
     98  C        -33.8780   36.9510   21.6040 C.2   226  GLY226      0.2280
     99  O        -34.7810   37.5260   22.2200 O.2   226  GLY226     -0.2866
    100  N        -32.3100   39.6580   22.3260 N.3   228  ASP228     -0.1225
    101  CA       -32.3460   41.1240   22.3020 C.3   228  ASP228      0.1805
    102  C        -33.6820   41.7150   22.7600 C.2   228  ASP228      0.2597
    103  O        -33.7480   42.8850   23.1430 O.2   228  ASP228     -0.2718
    104  CB       -31.9880   41.6550   20.9060 C.3   228  ASP228      0.1424
    105  CG       -32.9880   41.2330   19.8390 C.2   228  ASP228      0.3668
    106  OD1      -33.4370   40.0650   19.8560 O.co2 228  ASP228     -0.2456
    107  OD2      -33.3170   42.0700   18.9720 O.co2 228  ASP228     -0.2456
    108  N        -34.7370   40.9050   22.7230 N.am  229  ILE229     -0.1980
    109  CA       -36.0870   41.3730   23.0450 C.3   229  ILE229      0.1595
    110  C        -36.7300   40.6030   24.2040 C.2   229  ILE229      0.2287
    111  O        -37.9580   40.5470   24.3250 O.2   229  ILE229     -0.2864
    112  CB       -37.0080   41.3640   21.7910 C.3   229  ILE229      0.0276
    113  CG1      -37.0100   39.9830   21.1190 C.3   229  ILE229      0.0022
    114  CG2      -36.5760   42.4610   20.8120 C.3   229  ILE229      0.0022
    115  CD1      -38.1140   39.7800   20.0900 C.3   229  ILE229      0.0001
    116  N        -33.4590   32.4170   21.8140 N.3   255  HIS255     -0.1226
    117  CA       -32.3080   31.8510   21.1180 C.3   255  HIS255      0.1752
    118  C        -31.1850   32.8810   20.9990 C.2   255  HIS255      0.2597
    119  O        -31.4050   34.0810   21.1900 O.2   255  HIS255     -0.2718
    120  CB       -32.7040   31.3110   19.7380 C.3   255  HIS255      0.0759
    121  CG       -33.1970   32.3590   18.7890 C.ar  255  HIS255      0.0818
    122  ND1      -32.3540   33.2460   18.1540 N.ar  255  HIS255     -0.2268
    123  CD2      -34.4460   32.6510   18.3560 C.ar  255  HIS255      0.1154
    124  CE1      -33.0640   34.0460   17.3790 C.ar  255  HIS255      0.1986
    125  NE2      -34.3360   33.7070   17.4830 N.ar  255  HIS255     -0.2212
    126  N        -29.9870   32.4020   20.6810 N.am  256  GLY256     -0.1942
    127  CA       -28.8210   33.2640   20.5500 C.3   256  GLY256      0.2014
    128  C        -28.7350   33.9840   19.2170 C.2   256  GLY256      0.2639
    129  O        -29.5840   33.8110   18.3390 O.2   256  GLY256     -0.2714
    130  N        -27.6880   34.7900   19.0770 N.am  257  TRP257     -0.1959
    131  CA       -27.4600   35.5940   17.8860 C.3   257  TRP257      0.1771
    132  C        -26.5770   34.8290   16.9050 C.2   257  TRP257      0.2620
    133  O        -25.5680   34.2370   17.2970 O.2   257  TRP257     -0.2715
    134  CB       -26.7940   36.9140   18.2870 C.3   257  TRP257      0.0590
    135  CG       -27.2850   38.1220   17.5430 C.ar  257  TRP257      0.0006
    136  CD1      -26.5610   38.9160   16.6970 C.ar  257  TRP257      0.0946
    137  CD2      -28.6030   38.6870   17.5920 C.ar  257  TRP257      0.0152
    138  NE1      -27.3470   39.9350   16.2120 N.ar  257  TRP257     -0.2442
    139  CE2      -28.6040   39.8180   16.7440 C.ar  257  TRP257      0.0810
    140  CE3      -29.7830   38.3450   18.2670 C.ar  257  TRP257      0.0012
    141  CZ2      -29.7410   40.6110   16.5530 C.ar  257  TRP257      0.0191
    142  CZ3      -30.9120   39.1310   18.0740 C.ar  257  TRP257      0.0001
    143  CH2      -30.8820   40.2530   17.2230 C.ar  257  TRP257      0.0015
    144  N        -26.9680   34.8330   15.6340 N.am  258  LEU258     -0.1963
    145  CA       -26.1920   34.1810   14.5850 C.3   258  LEU258      0.1728
    146  C        -25.6160   35.2150   13.6190 C.2   258  LEU258      0.2616
    147  O        -26.3510   36.0230   13.0450 O.2   258  LEU258     -0.2715
    148  CB       -27.0500   33.1550   13.8370 C.3   258  LEU258      0.0311
    149  CG       -26.3620   32.2670   12.7950 C.3   258  LEU258      0.0022
    150  CD1      -25.4580   31.2280   13.4490 C.3   258  LEU258      0.0001
    151  CD2      -27.4060   31.5930   11.9330 C.3   258  LEU258      0.0001
    152  N        -24.2960   35.1820   13.4520 N.am  259  LEU259     -0.1977
    153  CA       -23.5840   36.1570   12.6270 C.3   259  LEU259      0.1596
    154  C        -22.5470   35.4750   11.7370 C.2   259  LEU259      0.2287
    155  O        -22.0650   34.3900   12.0590 O.2   259  LEU259     -0.2864
    156  CB       -22.9090   37.2100   13.5160 C.3   259  LEU259      0.0297
    157  CG       -23.7970   38.0680   14.4280 C.3   259  LEU259      0.0022
    158  CD1      -22.9900   38.6680   15.5690 C.3   259  LEU259      0.0001
    159  CD2      -24.5270   39.1610   13.6460 C.3   259  LEU259      0.0001
@<TRIPOS>BOND
     1    31    32    1
     2    32    35    1
     3    32    33    1
     4    35    36    1
     5    48    46    1
     6    33    41   am
     7    33    34    2
     8    41    42    1
     9    45    42    1
    10    45    46    1
    11    45    47    1
    12    42    43    1
    13    36    38   ar
    14    36    37   ar
    15    38    40   ar
    16    90    92   ar
    17    90    89   ar
    18    92    94   ar
    19    59    61   ar
    20    59    58   ar
    21    43    44    2
    22    43    49   am
    23    57    58    1
    24    57    54    1
    25    37    39   ar
    26    61    62   ar
    27    22    21    2
    28    58    60   ar
    29    88    89    1
    30    88    85    1
    31    21    20    1
    32    89    91   ar
    33    40    39   ar
    34    55    54    1
    35    55    56    2
    36    94    95    1
    37    94    93   ar
    38    49    50    1
    39    63    64    1
    40    54    53    1
    41    53    51   am
    42    62    60   ar
    43    18    15    1
    44    91    93   ar
    45    86    85    1
    46    86    87    2
    47    17    16    2
    48    85    84    1
    49   154   155    2
    50   154   153    1
    51    20    19    1
    52    20    23    1
    53    50    51    1
    54    64    67    1
    55    64    65    1
    56    51    52    2
    57   151   149    1
    58    16    19   am
    59    16    15    1
    60    84    77   am
    61    23    24    1
    62    15    14    1
    63    67    68    1
    64   153   152    1
    65   153   156    1
    66   149   150    1
    67   149   148    1
    68    65    66    2
    69    65    75   am
    70    14     8   am
    71   147   146    2
    72    75    76    1
    73   152   146   am
    74   156   157    1
    75    77    76    1
    76    77    78    2
    77   146   145    1
    78   159   157    1
    79    69    68   ar
    80    69    71   ar
    81    68    70   ar
    82   148   145    1
    83    24    26   ar
    84    24    25   ar
    85     8     7    1
    86     8     9    2
    87    26    28   ar
    88    76    79    1
    89   157   158    1
    90    12    10    1
    91     7    10    1
    92     7     6    1
    93    10    11    1
    94   145   144    1
    95    79    80    1
    96    71    73   ar
    97     4     3    2
    98    25    27   ar
    99    70    72   ar
   100    28    29   ar
   101   144   132   am
   102    80    81    1
   103    13    11    1
   104     6     3   am
   105     3     2    1
   106    73    72   ar
   107    73    74    1
   108    27    29   ar
   109    82    81   ar
   110   138   136   ar
   111   138   139   ar
   112    81    83   ar
   113    29    30    1
   114   141   139   ar
   115   141   143   ar
   116   136   135   ar
   117   139   137   ar
   118   132   133    2
   119   132   131    1
   120     1     2    1
   121     2     5    1
   122   143   142   ar
   123   124   125   ar
   124   124   122   ar
   125   125   123   ar
   126   135   137   ar
   127   135   134    1
   128   137   140   ar
   129   131   134    1
   130   131   130    1
   131   142   140   ar
   132   122   121   ar
   133   129   128    2
   134   123   121   ar
   135   121   120    1
   136   107   105   ar
   137   130   128   am
   138   128   127    1
   139   120   117    1
   140   105   106   ar
   141   105   104    1
   142    96    97    1
   143   115   113    1
   144    97    98    1
   145   127   126    1
   146   126   118   am
   147   114   112    1
   148   104   101    1
   149   118   117    1
   150   118   119    2
   151   117   116    1
   152   113   112    1
   153    98    99    2
   154   112   109    1
   155   101   100    1
   156   101   102    1
   157   108   102   am
   158   108   109    1
   159   102   103    2
   160   109   110    1
   161   110   111    2
