@<TRIPOS>MOLECULE
tmp/2x1lA00.pdb
 121 119 0 0 0
SMALL
GASTEIGER

@<TRIPOS>ATOM
      1  N          2.4420   23.9610  -27.5770 N.3     9  ALA9       -0.1231
      2  CA         1.9450   23.1980  -26.4420 C.3     9  ALA9        0.1694
      3  C          0.7060   23.9000  -25.8980 C.2     9  ALA9        0.2592
      4  O          0.6230   25.1320  -25.9170 O.2     9  ALA9       -0.2718
      5  CB         3.0070   23.0950  -25.3720 C.3     9  ALA9        0.0304
      6  N         -0.2600   23.1150  -25.4350 N.am   10  ILE10      -0.1966
      7  CA        -1.4900   23.6650  -24.8690 C.3    10  ILE10       0.1727
      8  C         -1.3990   23.7090  -23.3390 C.2    10  ILE10       0.2616
      9  O         -1.3040   22.6730  -22.6840 O.2    10  ILE10      -0.2715
     10  CB        -2.7500   22.9050  -25.3650 C.3    10  ILE10       0.0290
     11  CG1       -2.5810   21.3890  -25.1980 C.3    10  ILE10       0.0022
     12  CG2       -3.0270   23.2510  -26.8330 C.3    10  ILE10       0.0023
     13  CD1       -3.8630   20.5940  -25.3340 C.3    10  ILE10       0.0001
     14  N         -1.4140   24.9190  -22.7840 N.am   11  ALA11      -0.1963
     15  CA        -1.1520   25.1290  -21.3570 C.3    11  ALA11       0.1728
     16  C         -2.3130   24.7300  -20.4540 C.2    11  ALA11       0.2616
     17  O         -3.4760   24.8130  -20.8540 O.2    11  ALA11      -0.2715
     18  CB        -0.7760   26.5820  -21.1010 C.3    11  ALA11       0.0334
     19  N         -1.9850   24.2900  -19.2390 N.am   12  TYR12      -0.1974
     20  CA        -2.9770   24.1620  -18.1800 C.3    12  TYR12       0.1639
     21  C         -3.3680   25.5750  -17.7540 C.2    12  TYR12       0.2290
     22  O         -2.5020   26.3570  -17.3510 O.2    12  TYR12      -0.2864
     23  CB        -2.4220   23.4080  -16.9650 C.3    12  TYR12       0.0560
     24  CG        -1.9460   21.9970  -17.2230 C.ar   12  TYR12      -0.0198
     25  CD1       -0.6120   21.6480  -17.0120 C.ar   12  TYR12      -0.0009
     26  CD2       -2.8260   21.0050  -17.6570 C.ar   12  TYR12      -0.0009
     27  CE1       -0.1620   20.3520  -17.2330 C.ar   12  TYR12       0.0417
     28  CE2       -2.3850   19.7050  -17.8860 C.ar   12  TYR12       0.0417
     29  CZ        -1.0510   19.3880  -17.6730 C.ar   12  TYR12       0.1957
     30  OH        -0.6030   18.1090  -17.8970 O.3    12  TYR12      -0.2866
     31  N          4.6750   31.6410  -21.2940 N.3    21  HIS21      -0.1241
     32  CA         3.6290   31.3440  -22.2700 C.3    21  HIS21       0.1621
     33  C          3.7350   32.2820  -23.4690 C.2    21  HIS21       0.2264
     34  O          3.7580   31.8320  -24.6160 O.2    21  HIS21      -0.2867
     35  CB         2.2380   31.4620  -21.6360 C.3    21  HIS21       0.0745
     36  CG         1.9880   30.4870  -20.5290 C.ar   21  HIS21       0.0817
     37  ND1        1.7950   30.8800  -19.2230 N.ar   21  HIS21      -0.2268
     38  CD2        1.8960   29.1360  -20.5330 C.ar   21  HIS21       0.1154
     39  CE1        1.5930   29.8140  -18.4690 C.ar   21  HIS21       0.1986
     40  NE2        1.6510   28.7420  -19.2400 N.ar   21  HIS21      -0.2212
     41  N         -5.1400   23.0820  -22.2150 N.3    49  ASP49      -0.1239
     42  CA        -5.2880   21.7060  -21.7480 C.3    49  ASP49       0.1674
     43  C         -6.0560   21.7530  -20.4260 C.2    49  ASP49       0.2266
     44  O         -5.4750   22.0400  -19.3770 O.2    49  ASP49      -0.2867
     45  CB        -3.8900   21.1130  -21.5480 C.3    49  ASP49       0.1410
     46  CG        -3.9030   19.6370  -21.2010 C.2    49  ASP49       0.3668
     47  OD1       -4.9780   19.0020  -21.2050 O.co2  49  ASP49      -0.2456
     48  OD2       -2.8070   19.1040  -20.9280 O.co2  49  ASP49      -0.2456
     49  N         -2.5200   13.4780  -20.3740 N.3   229  TRP229     -0.1241
     50  CA        -1.5490   13.6050  -21.4600 C.3   229  TRP229      0.1605
     51  C         -1.9540   12.9400  -22.7780 C.2   229  TRP229      0.2264
     52  O         -1.7000   13.4900  -23.8490 O.2   229  TRP229     -0.2867
     53  CB        -0.1610   13.1540  -21.0050 C.3   229  TRP229      0.0550
     54  CG         0.5840   14.2580  -20.3270 C.ar  229  TRP229      0.0003
     55  CD1        0.7150   14.4580  -18.9830 C.ar  229  TRP229      0.0946
     56  CD2        1.2720   15.3410  -20.9640 C.ar  229  TRP229      0.0152
     57  NE1        1.4590   15.5880  -18.7430 N.ar  229  TRP229     -0.2442
     58  CE2        1.8140   16.1490  -19.9420 C.ar  229  TRP229      0.0810
     59  CE3        1.4920   15.7000  -22.3000 C.ar  229  TRP229      0.0012
     60  CZ2        2.5600   17.3000  -20.2130 C.ar  229  TRP229      0.0191
     61  CZ3        2.2360   16.8410  -22.5710 C.ar  229  TRP229      0.0001
     62  CH2        2.7620   17.6260  -21.5300 C.ar  229  TRP229      0.0015
     63  N         -4.4440   15.2900  -23.9750 N.3   232  ALA232     -0.1231
     64  CA        -3.7690   16.5250  -24.3910 C.3   232  ALA232      0.1694
     65  C         -3.0190   16.4140  -25.7230 C.2   232  ALA232      0.2591
     66  O         -3.1270   17.2990  -26.5720 O.2   232  ALA232     -0.2718
     67  CB        -2.8250   17.0010  -23.3030 C.3   232  ALA232      0.0304
     68  N         -2.2590   15.3330  -25.8880 N.am  233  LEU233     -0.1980
     69  CA        -1.4580   15.0990  -27.0930 C.3   233  LEU233      0.1596
     70  C         -2.3050   14.9830  -28.3610 C.2   233  LEU233      0.2287
     71  O         -1.8630   15.3630  -29.4450 O.2   233  LEU233     -0.2864
     72  CB        -0.5950   13.8430  -26.9200 C.3   233  LEU233      0.0297
     73  CG         0.8990   13.9220  -26.5650 C.3   233  LEU233      0.0022
     74  CD1        1.3380   15.2530  -25.9620 C.3   233  LEU233      0.0001
     75  CD2        1.2940   12.7600  -25.6570 C.3   233  LEU233      0.0001
     76  N         -4.7920   16.6820  -29.2270 N.3   235  ASN235     -0.1225
     77  CA        -5.2320   17.9890  -29.7350 C.3   235  ASN235      0.1785
     78  C         -4.6070   18.3480  -31.0850 C.2   235  ASN235      0.2597
     79  O         -5.2440   19.0000  -31.9130 O.2   235  ASN235     -0.2718
     80  CB        -5.0010   19.1090  -28.7050 C.3   235  ASN235      0.1169
     81  CG        -3.6580   19.8040  -28.8750 C.2   235  ASN235      0.2627
     82  OD1       -3.5770   20.8780  -29.4720 O.2   235  ASN235     -0.2716
     83  ND2       -2.5980   19.1890  -28.3610 N.am  235  ASN235     -0.0877
     84  N         -3.3670   17.9040  -31.2980 N.am  236  TYR236     -0.1976
     85  CA        -2.6480   18.1380  -32.5510 C.3   236  TYR236      0.1639
     86  C         -3.3390   17.4650  -33.7400 C.2   236  TYR236      0.2290
     87  O         -3.2220   17.9230  -34.8780 O.2   236  TYR236     -0.2864
     88  CB        -1.1940   17.6600  -32.4410 C.3   236  TYR236      0.0560
     89  CG        -0.3920   18.2890  -31.3110 C.ar  236  TYR236     -0.0198
     90  CD1       -0.4090   19.6670  -31.0960 C.ar  236  TYR236     -0.0009
     91  CD2        0.4020   17.5030  -30.4730 C.ar  236  TYR236     -0.0009
     92  CE1        0.3320   20.2480  -30.0660 C.ar  236  TYR236      0.0417
     93  CE2        1.1500   18.0760  -29.4400 C.ar  236  TYR236      0.0417
     94  CZ         1.1090   19.4490  -29.2450 C.ar  236  TYR236      0.1957
     95  OH         1.8390   20.0280  -28.2320 O.3   236  TYR236     -0.2866
     96  N         10.6040   21.1810  -20.6130 N.3   264  ASP264     -0.1225
     97  CA        10.0500   20.4600  -19.4590 C.3   264  ASP264      0.1805
     98  C          9.0410   19.3740  -19.8470 C.2   264  ASP264      0.2597
     99  O          8.7020   18.5160  -19.0260 O.2   264  ASP264     -0.2718
    100  CB         9.4270   21.4330  -18.4440 C.3   264  ASP264      0.1424
    101  CG         8.2560   22.2280  -19.0190 C.2   264  ASP264      0.3668
    102  OD1        8.2700   22.5540  -20.2250 O.co2 264  ASP264     -0.2456
    103  OD2        7.3230   22.5450  -18.2520 O.co2 264  ASP264     -0.2456
    104  N          8.5690   19.4080  -21.0920 N.am  265  ILE265     -0.1980
    105  CA         7.5690   18.4470  -21.5670 C.3   265  ILE265      0.1595
    106  C          8.0340   17.6750  -22.8110 C.2   265  ILE265      0.2287
    107  O          7.2170   17.1820  -23.5960 O.2   265  ILE265     -0.2864
    108  CB         6.1840   19.1220  -21.8080 C.3   265  ILE265      0.0276
    109  CG1        6.3060   20.2940  -22.7940 C.3   265  ILE265      0.0022
    110  CG2        5.5660   19.5670  -20.4790 C.3   265  ILE265      0.0022
    111  CD1        4.9780   20.8320  -23.2950 C.3   265  ILE265      0.0001
    112  N          6.3600   14.4350  -25.7980 N.3   269  HIS269     -0.1241
    113  CA         6.2590   14.6980  -27.2330 C.3   269  HIS269      0.1621
    114  C          7.1990   13.8510  -28.0910 C.2   269  HIS269      0.2264
    115  O          6.9260   13.6300  -29.2710 O.2   269  HIS269     -0.2867
    116  CB         6.4980   16.1840  -27.5120 C.3   269  HIS269      0.0745
    117  CG         5.3590   17.0610  -27.0980 C.ar  269  HIS269      0.0817
    118  ND1        5.2080   17.5270  -25.8100 N.ar  269  HIS269     -0.2268
    119  CD2        4.3120   17.5530  -27.8020 C.ar  269  HIS269      0.1154
    120  CE1        4.1170   18.2680  -25.7380 C.ar  269  HIS269      0.1986
    121  NE2        3.5550   18.3000  -26.9330 N.ar  269  HIS269     -0.2212
@<TRIPOS>BOND
     1    87    86    2
     2    86    85    1
     3    85    88    1
     4    85    84    1
     5    88    89    1
     6    79    78    2
     7    89    90   ar
     8    89    91   ar
     9    84    78   am
    10    90    92   ar
    11    78    77    1
    12    91    93   ar
    13    92    94   ar
    14    77    76    1
    15    77    80    1
    16    82    81    2
    17    71    70    2
    18    93    94   ar
    19   115   114    2
    20    94    95    1
    21    81    80    1
    22    81    83   am
    23    70    69    1
    24   114   113    1
    25   119   117   ar
    26   119   121   ar
    27     1     2    1
    28   116   113    1
    29   116   117    1
    30   113   112    1
    31   117   118   ar
    32    69    72    1
    33    69    68    1
    34   121   120   ar
    35    72    73    1
    36    12    10    1
    37    66    65    2
    38    73    74    1
    39    73    75    1
    40     2     3    1
    41     2     5    1
    42     4     3    2
    43     3     6   am
    44    68    65   am
    45   118   120   ar
    46    65    64    1
    47     6     7    1
    48    10    11    1
    49    10     7    1
    50    13    11    1
    51     7     8    1
    52    34    33    2
    53    64    63    1
    54    64    67    1
    55    52    51    2
    56   107   106    2
    57    33    32    1
    58     8    14   am
    59     8     9    2
    60   111   109    1
    61   106   105    1
    62   109   108    1
    63    14    15    1
    64    51    50    1
    65    61    59   ar
    66    61    62   ar
    67    59    56   ar
    68    32    35    1
    69    32    31    1
    70    41    42    1
    71   108   105    1
    72   108   110    1
    73    42    45    1
    74    42    43    1
    75    35    36    1
    76   105   104    1
    77    45    46    1
    78    62    60   ar
    79    50    53    1
    80    50    49    1
    81    15    18    1
    82    15    16    1
    83    47    46   ar
    84    46    48   ar
    85   104    98   am
    86    53    54    1
    87    56    54   ar
    88    56    58   ar
    89    17    16    2
    90    96    97    1
    91    38    36   ar
    92    38    40   ar
    93    36    37   ar
    94    16    19   am
    95    43    44    2
    96    54    55   ar
    97   102   101   ar
    98    60    58   ar
    99    58    57   ar
   100    98    97    1
   101    98    99    2
   102    97   100    1
   103    40    39   ar
   104    19    20    1
   105    37    39   ar
   106   101   100    1
   107   101   103   ar
   108    55    57   ar
   109    20    21    1
   110    20    23    1
   111    30    29    1
   112    28    29   ar
   113    28    26   ar
   114    21    22    2
   115    29    27   ar
   116    26    24   ar
   117    27    25   ar
   118    24    25   ar
   119    24    23    1
