@<TRIPOS>MOLECULE
tmp/2x1lC00.pdb
 121 119 0 0 0
SMALL
GASTEIGER

@<TRIPOS>ATOM
      1  N        -41.3830   35.6910   17.1830 N.3     9  ALA9       -0.1231
      2  CA       -41.4040   37.1460   17.2100 C.3     9  ALA9        0.1694
      3  C        -41.8020   37.6420   15.8250 C.2     9  ALA9        0.2592
      4  O        -41.4310   37.0410   14.8140 O.2     9  ALA9       -0.2718
      5  CB       -40.0460   37.6890   17.5980 C.3     9  ALA9        0.0304
      6  N        -42.5760   38.7210   15.7810 N.am   10  ILE10      -0.1966
      7  CA       -42.9880   39.3100   14.5080 C.3    10  ILE10       0.1727
      8  C        -42.0140   40.4170   14.1070 C.2    10  ILE10       0.2616
      9  O        -41.8000   41.3710   14.8540 O.2    10  ILE10      -0.2715
     10  CB       -44.4660   39.7890   14.5310 C.3    10  ILE10       0.0290
     11  CG1      -44.7560   40.6280   15.7830 C.3    10  ILE10       0.0022
     12  CG2      -45.4090   38.5840   14.4630 C.3    10  ILE10       0.0023
     13  CD1      -46.1030   41.3210   15.7740 C.3    10  ILE10       0.0001
     14  N        -41.4140   40.2720   12.9290 N.am   11  ALA11      -0.1963
     15  CA       -40.3190   41.1430   12.4990 C.3    11  ALA11       0.1728
     16  C        -40.7640   42.5410   12.0750 C.2    11  ALA11       0.2616
     17  O        -41.8330   42.7080   11.4870 O.2    11  ALA11      -0.2715
     18  CB       -39.5390   40.4820   11.3720 C.3    11  ALA11       0.0334
     19  N        -39.9380   43.5380   12.3870 N.am   12  TYR12      -0.1974
     20  CA       -40.0530   44.8510   11.7660 C.3    12  TYR12       0.1639
     21  C        -39.6160   44.6970   10.3140 C.2    12  TYR12       0.2290
     22  O        -38.4810   44.2870   10.0550 O.2    12  TYR12      -0.2864
     23  CB       -39.1430   45.8800   12.4420 C.3    12  TYR12       0.0560
     24  CG       -39.5160   46.2830   13.8480 C.ar   12  TYR12      -0.0198
     25  CD1      -38.5950   46.1620   14.8870 C.ar   12  TYR12      -0.0009
     26  CD2      -40.7770   46.8100   14.1410 C.ar   12  TYR12      -0.0009
     27  CE1      -38.9170   46.5430   16.1850 C.ar   12  TYR12       0.0417
     28  CE2      -41.1110   47.1890   15.4410 C.ar   12  TYR12       0.0417
     29  CZ       -40.1750   47.0500   16.4550 C.ar   12  TYR12       0.1957
     30  OH       -40.4880   47.4190   17.7410 O.3    12  TYR12      -0.2866
     31  N        -33.4160   36.0760   10.9660 N.3    21  HIS21      -0.1241
     32  CA       -34.8520   35.8490   10.8210 C.3    21  HIS21       0.1621
     33  C        -35.1180   34.4000   10.4240 C.2    21  HIS21       0.2264
     34  O        -35.9160   33.7110   11.0650 O.2    21  HIS21      -0.2867
     35  CB       -35.4480   36.7950    9.7770 C.3    21  HIS21       0.0745
     36  CG       -35.3930   38.2400   10.1640 C.ar   21  HIS21       0.0817
     37  ND1      -34.6260   39.1630    9.4860 N.ar   21  HIS21      -0.2268
     38  CD2      -36.0120   38.9210   11.1570 C.ar   21  HIS21       0.1154
     39  CE1      -34.7760   40.3510   10.0440 C.ar   21  HIS21       0.1986
     40  NE2      -35.6110   40.2320   11.0600 N.ar   21  HIS21      -0.2212
     41  N        -44.4000   42.9800   12.2460 N.3    49  ASP49      -0.1239
     42  CA       -44.7450   44.0600   13.1630 C.3    49  ASP49       0.1674
     43  C        -44.5820   45.3860   12.4090 C.2    49  ASP49       0.2266
     44  O        -43.4770   45.9260   12.3250 O.2    49  ASP49      -0.2867
     45  CB       -43.7990   43.9910   14.3660 C.3    49  ASP49       0.1410
     46  CG       -44.1710   44.9470   15.4830 C.2    49  ASP49       0.3668
     47  OD1      -45.2540   45.5670   15.4400 O.co2  49  ASP49      -0.2456
     48  OD2      -43.3620   45.0690   16.4260 O.co2  49  ASP49      -0.2456
     49  N        -44.7270   48.3040   20.8610 N.3   193  TRP193     -0.1241
     50  CA       -44.5770   47.0480   21.5950 C.3   193  TRP193      0.1605
     51  C        -45.8590   46.5220   22.2430 C.2   193  TRP193      0.2264
     52  O        -46.0350   45.3100   22.3660 O.2   193  TRP193     -0.2867
     53  CB       -43.4510   47.1540   22.6270 C.3   193  TRP193      0.0550
     54  CG       -42.1190   46.7850   22.0590 C.ar  193  TRP193      0.0003
     55  CD1      -41.1150   47.6350   21.6950 C.ar  193  TRP193      0.0946
     56  CD2      -41.6530   45.4630   21.7640 C.ar  193  TRP193      0.0152
     57  NE1      -40.0470   46.9240   21.2020 N.ar  193  TRP193     -0.2442
     58  CE2      -40.3510   45.5890   21.2330 C.ar  193  TRP193      0.0810
     59  CE3      -42.2070   44.1830   21.9040 C.ar  193  TRP193      0.0012
     60  CZ2      -39.5930   44.4830   20.8420 C.ar  193  TRP193      0.0191
     61  CZ3      -41.4530   43.0850   21.5140 C.ar  193  TRP193      0.0001
     62  CH2      -40.1590   43.2430   20.9910 C.ar  193  TRP193      0.0015
     63  N        -47.7930   45.1930   19.3550 N.3   196  ALA196     -0.1231
     64  CA       -46.9950   44.0910   18.8070 C.3   196  ALA196      0.1694
     65  C        -47.1890   42.7820   19.5720 C.2   196  ALA196      0.2591
     66  O        -47.4580   41.7430   18.9670 O.2   196  ALA196     -0.2718
     67  CB       -45.5240   44.4650   18.7730 C.3   196  ALA196      0.0304
     68  N        -47.0500   42.8460   20.8960 N.am  197  LEU197     -0.1980
     69  CA       -47.1960   41.6740   21.7660 C.3   197  LEU197      0.1596
     70  C        -48.6030   41.0790   21.7280 C.2   197  LEU197      0.2287
     71  O        -48.7800   39.8780   21.9390 O.2   197  LEU197     -0.2864
     72  CB       -46.8100   42.0240   23.2080 C.3   197  LEU197      0.0297
     73  CG       -45.3220   42.2280   23.5200 C.3   197  LEU197      0.0022
     74  CD1      -45.1460   42.9990   24.8190 C.3   197  LEU197      0.0001
     75  CD2      -44.5720   40.8990   23.5710 C.3   197  LEU197      0.0001
     76  N        -50.3640   40.5240   19.2190 N.3   199  ASN199     -0.1225
     77  CA       -50.5240   39.6440   18.0580 C.3   199  ASN199      0.1785
     78  C        -50.7180   38.1830   18.4550 C.2   199  ASN199      0.2597
     79  O        -51.4790   37.4590   17.8130 O.2   199  ASN199     -0.2718
     80  CB       -49.3550   39.7950   17.0700 C.3   199  ASN199      0.1169
     81  CG       -48.2290   38.8040   17.3260 C.2   199  ASN199      0.2627
     82  OD1      -48.1110   37.7950   16.6300 O.2   199  ASN199     -0.2716
     83  ND2      -47.4040   39.0810   18.3300 N.am  199  ASN199     -0.0877
     84  N        -50.0370   37.7710   19.5260 N.am  200  TYR200     -0.1976
     85  CA       -50.1300   36.4090   20.0510 C.3   200  TYR200      0.1639
     86  C        -51.5570   36.0710   20.4790 C.2   200  TYR200      0.2290
     87  O        -52.0000   34.9290   20.3400 O.2   200  TYR200     -0.2864
     88  CB       -49.1660   36.2100   21.2300 C.3   200  TYR200      0.0560
     89  CG       -47.7090   36.5200   20.9310 C.ar  200  TYR200     -0.0198
     90  CD1      -47.0990   36.0590   19.7630 C.ar  200  TYR200     -0.0009
     91  CD2      -46.9320   37.2500   21.8330 C.ar  200  TYR200     -0.0009
     92  CE1      -45.7610   36.3340   19.4910 C.ar  200  TYR200      0.0417
     93  CE2      -45.5920   37.5270   21.5730 C.ar  200  TYR200      0.0417
     94  CZ       -45.0130   37.0650   20.3990 C.ar  200  TYR200      0.1957
     95  OH       -43.6900   37.3320   20.1310 O.3   200  TYR200     -0.2866
     96  N        -32.3100   39.6580   22.3260 N.3   228  ASP228     -0.1225
     97  CA       -32.3460   41.1240   22.3020 C.3   228  ASP228      0.1805
     98  C        -33.6820   41.7150   22.7600 C.2   228  ASP228      0.2597
     99  O        -33.7480   42.8850   23.1430 O.2   228  ASP228     -0.2718
    100  CB       -31.9880   41.6550   20.9060 C.3   228  ASP228      0.1424
    101  CG       -32.9880   41.2330   19.8390 C.2   228  ASP228      0.3668
    102  OD1      -33.4370   40.0650   19.8560 O.co2 228  ASP228     -0.2456
    103  OD2      -33.3170   42.0700   18.9720 O.co2 228  ASP228     -0.2456
    104  N        -34.7370   40.9050   22.7230 N.am  229  ILE229     -0.1980
    105  CA       -36.0870   41.3730   23.0450 C.3   229  ILE229      0.1595
    106  C        -36.7300   40.6030   24.2040 C.2   229  ILE229      0.2287
    107  O        -37.9580   40.5470   24.3250 O.2   229  ILE229     -0.2864
    108  CB       -37.0080   41.3640   21.7910 C.3   229  ILE229      0.0276
    109  CG1      -37.0100   39.9830   21.1190 C.3   229  ILE229      0.0022
    110  CG2      -36.5760   42.4610   20.8120 C.3   229  ILE229      0.0022
    111  CD1      -38.1140   39.7800   20.0900 C.3   229  ILE229      0.0001
    112  N        -40.8590   40.4400   26.4730 N.3   233  HIS233     -0.1241
    113  CA       -41.6610   39.2180   26.5450 C.3   233  HIS233      0.1621
    114  C        -41.7560   38.6180   27.9470 C.2   233  HIS233      0.2264
    115  O        -42.6970   37.8780   28.2410 O.2   233  HIS233     -0.2867
    116  CB       -41.1190   38.1660   25.5740 C.3   233  HIS233      0.0745
    117  CG       -41.4190   38.4590   24.1380 C.ar  233  HIS233      0.0817
    118  ND1      -40.6650   39.3320   23.3840 N.ar  233  HIS233     -0.2268
    119  CD2      -42.3900   37.9940   23.3170 C.ar  233  HIS233      0.1154
    120  CE1      -41.1610   39.3950   22.1610 C.ar  233  HIS233      0.1986
    121  NE2      -42.2070   38.5920   22.0940 N.ar  233  HIS233     -0.2212
@<TRIPOS>BOND
     1    37    39   ar
     2    37    36   ar
     3    35    36    1
     4    35    32    1
     5    39    40   ar
     6    22    21    2
     7    36    38   ar
     8    21    20    1
     9    33    32    1
    10    33    34    2
    11    32    31    1
    12    40    38   ar
    13    18    15    1
    14    17    16    2
    15    20    19    1
    16    20    23    1
    17    16    19   am
    18    16    15    1
    19    41    42    1
    20    44    43    2
    21    43    42    1
    22    23    24    1
    23    15    14    1
    24    14     8   am
    25    42    45    1
    26    24    26   ar
    27    24    25   ar
    28     8     7    1
    29     8     9    2
    30    26    28   ar
    31    45    46    1
    32    12    10    1
    33     7    10    1
    34     7     6    1
    35    10    11    1
    36     4     3    2
    37    25    27   ar
    38    47    46   ar
    39    28    29   ar
    40    46    48   ar
    41    13    11    1
    42     6     3   am
    43     3     2    1
    44    27    29   ar
    45    29    30    1
    46    82    81    2
    47    80    81    1
    48    80    77    1
    49     1     2    1
    50     2     5    1
    51    81    83   am
    52    79    78    2
    53    77    78    1
    54    77    76    1
    55    78    84   am
    56    67    64    1
    57    64    63    1
    58    64    65    1
    59    66    65    2
    60   103   101   ar
    61    92    90   ar
    62    92    94   ar
    63    84    85    1
    64    65    68   am
    65    90    89   ar
    66   101   102   ar
    67   101   100    1
    68    85    86    1
    69    85    88    1
    70   111   109    1
    71    95    94    1
    72    87    86    2
    73    94    93   ar
    74   110   108    1
    75    60    62   ar
    76    60    58   ar
    77    49    50    1
    78    68    69    1
    79   100    97    1
    80    89    88    1
    81    89    91   ar
    82    62    61   ar
    83   109   108    1
    84    57    58   ar
    85    57    55   ar
    86    58    56   ar
    87    61    59   ar
    88    93    91   ar
    89    50    51    1
    90    50    53    1
    91    55    54   ar
    92    70    69    1
    93    70    71    2
    94    56    59   ar
    95    56    54   ar
    96    69    72    1
    97   108   105    1
    98    54    53    1
    99   121   120   ar
   100   121   119   ar
   101   120   118   ar
   102    51    52    2
   103    97    96    1
   104    97    98    1
   105   104    98   am
   106   104   105    1
   107    98    99    2
   108   105   106    1
   109    72    73    1
   110   119   117   ar
   111   118   117   ar
   112    73    75    1
   113    73    74    1
   114   117   116    1
   115   106   107    2
   116   116   113    1
   117   112   113    1
   118   113   114    1
   119   114   115    2
