@<TRIPOS>MOLECULE
tmp/2x1lA01.pdb
 159 161 0 0 0
SMALL
GASTEIGER

@<TRIPOS>ATOM
      1  N          2.4420   23.9610  -27.5770 N.3     9  ALA9       -0.1231
      2  CA         1.9450   23.1980  -26.4420 C.3     9  ALA9        0.1694
      3  C          0.7060   23.9000  -25.8980 C.2     9  ALA9        0.2592
      4  O          0.6230   25.1320  -25.9170 O.2     9  ALA9       -0.2718
      5  CB         3.0070   23.0950  -25.3720 C.3     9  ALA9        0.0304
      6  N         -0.2600   23.1150  -25.4350 N.am   10  ILE10      -0.1966
      7  CA        -1.4900   23.6650  -24.8690 C.3    10  ILE10       0.1727
      8  C         -1.3990   23.7090  -23.3390 C.2    10  ILE10       0.2616
      9  O         -1.3040   22.6730  -22.6840 O.2    10  ILE10      -0.2715
     10  CB        -2.7500   22.9050  -25.3650 C.3    10  ILE10       0.0290
     11  CG1       -2.5810   21.3890  -25.1980 C.3    10  ILE10       0.0022
     12  CG2       -3.0270   23.2510  -26.8330 C.3    10  ILE10       0.0023
     13  CD1       -3.8630   20.5940  -25.3340 C.3    10  ILE10       0.0001
     14  N         -1.4140   24.9190  -22.7840 N.am   11  ALA11      -0.1963
     15  CA        -1.1520   25.1290  -21.3570 C.3    11  ALA11       0.1728
     16  C         -2.3130   24.7300  -20.4540 C.2    11  ALA11       0.2616
     17  O         -3.4760   24.8130  -20.8540 O.2    11  ALA11      -0.2715
     18  CB        -0.7760   26.5820  -21.1010 C.3    11  ALA11       0.0334
     19  N         -1.9850   24.2900  -19.2390 N.am   12  TYR12      -0.1974
     20  CA        -2.9770   24.1620  -18.1800 C.3    12  TYR12       0.1639
     21  C         -3.3680   25.5750  -17.7540 C.2    12  TYR12       0.2290
     22  O         -2.5020   26.3570  -17.3510 O.2    12  TYR12      -0.2864
     23  CB        -2.4220   23.4080  -16.9650 C.3    12  TYR12       0.0560
     24  CG        -1.9460   21.9970  -17.2230 C.ar   12  TYR12      -0.0198
     25  CD1       -0.6120   21.6480  -17.0120 C.ar   12  TYR12      -0.0009
     26  CD2       -2.8260   21.0050  -17.6570 C.ar   12  TYR12      -0.0009
     27  CE1       -0.1620   20.3520  -17.2330 C.ar   12  TYR12       0.0417
     28  CE2       -2.3850   19.7050  -17.8860 C.ar   12  TYR12       0.0417
     29  CZ        -1.0510   19.3880  -17.6730 C.ar   12  TYR12       0.1957
     30  OH        -0.6030   18.1090  -17.8970 O.3    12  TYR12      -0.2866
     31  N          1.7390   33.8300  -18.0490 N.3    18  HIS18      -0.1226
     32  CA         2.9440   34.6000  -17.7510 C.3    18  HIS18       0.1752
     33  C          3.9130   34.6590  -18.9360 C.2    18  HIS18       0.2596
     34  O          3.6310   34.1190  -20.0100 O.2    18  HIS18      -0.2718
     35  CB         3.6370   34.0750  -16.4860 C.3    18  HIS18       0.0759
     36  CG         3.7790   32.5860  -16.4430 C.ar   18  HIS18       0.0818
     37  ND1        4.7210   31.9060  -17.1840 N.ar   18  HIS18      -0.2268
     38  CD2        3.1030   31.6470  -15.7400 C.ar   18  HIS18       0.1154
     39  CE1        4.6170   30.6110  -16.9430 C.ar   18  HIS18       0.1986
     40  NE2        3.6430   30.4270  -16.0690 N.ar   18  HIS18      -0.2212
     41  N          5.0490   35.3210  -18.7240 N.am   19  ILE19      -0.1966
     42  CA         6.0300   35.5970  -19.7800 C.3    19  ILE19       0.1727
     43  C          6.4990   34.3490  -20.5500 C.2    19  ILE19       0.2617
     44  O          6.7750   34.4240  -21.7480 O.2    19  ILE19      -0.2715
     45  CB         7.2350   36.4400  -19.2300 C.3    19  ILE19       0.0290
     46  CG1        8.0870   37.0220  -20.3670 C.3    19  ILE19       0.0022
     47  CG2        8.0810   35.6350  -18.2400 C.3    19  ILE19       0.0023
     48  CD1        7.3560   38.0130  -21.2590 C.3    19  ILE19       0.0001
     49  N          6.5610   33.2090  -19.8640 N.am   20  GLY20      -0.1940
     50  CA         6.9370   31.9410  -20.4880 C.3    20  GLY20       0.2014
     51  C          5.9710   31.4930  -21.5680 C.2    20  GLY20       0.2638
     52  O          6.3920   31.0220  -22.6290 O.2    20  GLY20      -0.2714
     53  N          4.6750   31.6410  -21.2940 N.am   21  HIS21      -0.1973
     54  CA         3.6290   31.3440  -22.2700 C.3    21  HIS21       0.1656
     55  C          3.7350   32.2820  -23.4690 C.2    21  HIS21       0.2291
     56  O          3.7580   31.8320  -24.6160 O.2    21  HIS21      -0.2864
     57  CB         2.2380   31.4620  -21.6360 C.3    21  HIS21       0.0771
     58  CG         1.9880   30.4870  -20.5290 C.ar   21  HIS21       0.0820
     59  ND1        1.7950   30.8800  -19.2230 N.ar   21  HIS21      -0.2267
     60  CD2        1.8960   29.1360  -20.5330 C.ar   21  HIS21       0.1154
     61  CE1        1.5930   29.8140  -18.4690 C.ar   21  HIS21       0.1986
     62  NE2        1.6510   28.7420  -19.2400 N.ar   21  HIS21      -0.2212
     63  N          6.2750   33.9290  -24.4850 N.3    23  TYR23      -0.1227
     64  CA         7.5170   33.6130  -25.1930 C.3    23  TYR23       0.1736
     65  C          7.2980   32.5520  -26.2720 C.2    23  TYR23       0.2595
     66  O          7.7250   32.7260  -27.4140 O.2    23  TYR23      -0.2718
     67  CB         8.5900   33.1630  -24.1930 C.3    23  TYR23       0.0548
     68  CG         9.9480   32.8360  -24.7850 C.ar   23  TYR23      -0.0200
     69  CD1       10.6780   33.7920  -25.4900 C.ar   23  TYR23      -0.0009
     70  CD2       10.5170   31.5750  -24.6080 C.ar   23  TYR23      -0.0009
     71  CE1       11.9310   33.4930  -26.0230 C.ar   23  TYR23       0.0417
     72  CE2       11.7690   31.2670  -25.1340 C.ar   23  TYR23       0.0417
     73  CZ        12.4690   32.2300  -25.8390 C.ar   23  TYR23       0.1957
     74  OH        13.7070   31.9290  -26.3580 O.3    23  TYR23      -0.2866
     75  N          6.6170   31.4680  -25.9050 N.am   24  GLU24      -0.1965
     76  CA         6.3340   30.3730  -26.8320 C.3    24  GLU24       0.1733
     77  C          5.3800   30.7880  -27.9570 C.2    24  GLU24       0.2616
     78  O          5.5920   30.4230  -29.1160 O.2    24  GLU24      -0.2715
     79  CB         5.7800   29.1570  -26.0810 C.3    24  GLU24       0.0429
     80  CG         5.5390   27.9360  -26.9610 C.3    24  GLU24       0.1163
     81  CD         5.1530   26.7040  -26.1710 C.2    24  GLU24       0.3649
     82  OE1        4.0160   26.2170  -26.3490 O.co2  24  GLU24      -0.2457
     83  OE2        5.9830   26.2230  -25.3710 O.co2  24  GLU24      -0.2457
     84  N          4.3410   31.5480  -27.6100 N.am   25  TYR25      -0.1974
     85  CA         3.3240   31.9560  -28.5820 C.3    25  TYR25       0.1639
     86  C          3.8870   32.8790  -29.6610 C.2    25  TYR25       0.2290
     87  O          3.5980   32.7000  -30.8450 O.2    25  TYR25      -0.2864
     88  CB         2.1150   32.6120  -27.8980 C.3    25  TYR25       0.0560
     89  CG         1.4570   31.7870  -26.8070 C.ar   25  TYR25      -0.0198
     90  CD1        0.8670   32.4090  -25.7070 C.ar   25  TYR25      -0.0009
     91  CD2        1.4260   30.3910  -26.8680 C.ar   25  TYR25      -0.0009
     92  CE1        0.2600   31.6680  -24.7000 C.ar   25  TYR25       0.0417
     93  CE2        0.8240   29.6400  -25.8620 C.ar   25  TYR25       0.0417
     94  CZ         0.2420   30.2870  -24.7820 C.ar   25  TYR25       0.1957
     95  OH        -0.3560   29.5550  -23.7800 O.3    25  TYR25      -0.2866
     96  N          8.2440   23.6320  -24.7390 N.3   262  GLY262     -0.1225
     97  CA         9.3510   23.8790  -23.8190 C.3   262  GLY262      0.1811
     98  C         10.0400   22.5730  -23.4750 C.2   262  GLY262      0.2280
     99  O          9.5100   21.4910  -23.7460 O.2   262  GLY262     -0.2866
    100  N         10.6040   21.1810  -20.6130 N.3   264  ASP264     -0.1225
    101  CA        10.0500   20.4600  -19.4590 C.3   264  ASP264      0.1805
    102  C          9.0410   19.3740  -19.8470 C.2   264  ASP264      0.2597
    103  O          8.7020   18.5160  -19.0260 O.2   264  ASP264     -0.2718
    104  CB         9.4270   21.4330  -18.4440 C.3   264  ASP264      0.1424
    105  CG         8.2560   22.2280  -19.0190 C.2   264  ASP264      0.3668
    106  OD1        8.2700   22.5540  -20.2250 O.co2 264  ASP264     -0.2456
    107  OD2        7.3230   22.5450  -18.2520 O.co2 264  ASP264     -0.2456
    108  N          8.5690   19.4080  -21.0920 N.am  265  ILE265     -0.1980
    109  CA         7.5690   18.4470  -21.5670 C.3   265  ILE265      0.1595
    110  C          8.0340   17.6750  -22.8110 C.2   265  ILE265      0.2287
    111  O          7.2170   17.1820  -23.5960 O.2   265  ILE265     -0.2864
    112  CB         6.1840   19.1220  -21.8080 C.3   265  ILE265      0.0276
    113  CG1        6.3060   20.2940  -22.7940 C.3   265  ILE265      0.0022
    114  CG2        5.5660   19.5670  -20.4790 C.3   265  ILE265      0.0022
    115  CD1        4.9780   20.8320  -23.2950 C.3   265  ILE265      0.0001
    116  N         12.2020   24.7630  -26.8000 N.3   291  HIS291     -0.1226
    117  CA        12.8150   26.0430  -26.4540 C.3   291  HIS291      0.1752
    118  C         13.2070   26.0780  -24.9770 C.2   291  HIS291      0.2597
    119  O         12.7300   25.2690  -24.1800 O.2   291  HIS291     -0.2718
    120  CB        11.8910   27.2180  -26.8050 C.3   291  HIS291      0.0759
    121  CG        10.6010   27.2310  -26.0440 C.ar  291  HIS291      0.0818
    122  ND1       10.5170   27.6210  -24.7250 N.ar  291  HIS291     -0.2268
    123  CD2        9.3400   26.9160  -26.4240 C.ar  291  HIS291      0.1154
    124  CE1        9.2620   27.5350  -24.3210 C.ar  291  HIS291      0.1986
    125  NE2        8.5270   27.1090  -25.3330 N.ar  291  HIS291     -0.2212
    126  N         14.0750   27.0200  -24.6240 N.am  292  GLY292     -0.1942
    127  CA        14.5500   27.1530  -23.2550 C.3   292  GLY292      0.2014
    128  C         13.5760   27.8580  -22.3320 C.2   292  GLY292      0.2639
    129  O         12.5120   28.3190  -22.7550 O.2   292  GLY292     -0.2714
    130  N         13.9600   27.9360  -21.0620 N.am  293  TRP293     -0.1959
    131  CA        13.1550   28.5560  -20.0210 C.3   293  TRP293      0.1771
    132  C         13.5500   30.0270  -19.8870 C.2   293  TRP293      0.2620
    133  O         14.7390   30.3520  -19.8170 O.2   293  TRP293     -0.2715
    134  CB        13.3900   27.8150  -18.6990 C.3   293  TRP293      0.0590
    135  CG        12.1820   27.6690  -17.8140 C.ar  293  TRP293      0.0006
    136  CD1       11.9930   28.2400  -16.5860 C.ar  293  TRP293      0.0946
    137  CD2       11.0100   26.8840  -18.0750 C.ar  293  TRP293      0.0152
    138  NE1       10.7730   27.8660  -16.0700 N.ar  293  TRP293     -0.2442
    139  CE2       10.1490   27.0350  -16.9630 C.ar  293  TRP293      0.0810
    140  CE3       10.6000   26.0720  -19.1420 C.ar  293  TRP293      0.0012
    141  CZ2        8.9010   26.4040  -16.8870 C.ar  293  TRP293      0.0191
    142  CZ3        9.3580   25.4470  -19.0670 C.ar  293  TRP293      0.0001
    143  CH2        8.5250   25.6170  -17.9450 C.ar  293  TRP293      0.0015
    144  N         12.5570   30.9110  -19.8710 N.am  294  LEU294     -0.1963
    145  CA        12.7990   32.3380  -19.6610 C.3   294  LEU294      0.1728
    146  C         12.3260   32.7630  -18.2750 C.2   294  LEU294      0.2616
    147  O         11.1820   32.5020  -17.8920 O.2   294  LEU294     -0.2715
    148  CB        12.1180   33.1800  -20.7450 C.3   294  LEU294      0.0311
    149  CG        12.2940   34.7020  -20.6790 C.3   294  LEU294      0.0022
    150  CD1       13.7170   35.1290  -21.0290 C.3   294  LEU294      0.0001
    151  CD2       11.2980   35.3780  -21.5970 C.3   294  LEU294      0.0001
    152  N         13.2140   33.4170  -17.5320 N.am  295  LEU295     -0.1977
    153  CA        12.9360   33.7970  -16.1490 C.3   295  LEU295      0.1596
    154  C         13.3340   35.2390  -15.8490 C.2   295  LEU295      0.2287
    155  O         14.2680   35.7760  -16.4450 O.2   295  LEU295     -0.2864
    156  CB        13.6470   32.8450  -15.1810 C.3   295  LEU295      0.0297
    157  CG        13.2110   31.3750  -15.1540 C.3   295  LEU295      0.0022
    158  CD1       14.3370   30.4870  -14.6440 C.3   295  LEU295      0.0001
    159  CD2       11.9410   31.1770  -14.3270 C.3   295  LEU295      0.0001
@<TRIPOS>BOND
     1    87    86    2
     2    86    85    1
     3    78    77    2
     4    85    88    1
     5    85    84    1
     6    77    84   am
     7    77    76    1
     8    88    89    1
     9     1     2    1
    10    66    65    2
    11    80    81    1
    12    80    79    1
    13    91    89   ar
    14    91    93   ar
    15    12    10    1
    16    76    79    1
    17    76    75    1
    18    89    90   ar
    19   120   117    1
    20   120   121    1
    21   116   117    1
    22   117   118    1
    23     2     3    1
    24     2     5    1
    25   123   121   ar
    26   123   125   ar
    27    74    73    1
    28    82    81   ar
    29    65    75   am
    30    65    64    1
    31    81    83   ar
    32   121   122   ar
    33    71    73   ar
    34    71    69   ar
    35     4     3    2
    36     3     6   am
    37    93    94   ar
    38    73    72   ar
    39    90    92   ar
    40    69    68   ar
    41     6     7    1
    42    10    11    1
    43    10     7    1
    44    13    11    1
    45   125   124   ar
    46    64    63    1
    47    64    67    1
    48    72    70   ar
    49   118   126   am
    50   118   119    2
    51     7     8    1
    52    68    70   ar
    53    68    67    1
    54    94    92   ar
    55    94    95    1
    56    96    97    1
    57   122   124   ar
    58   126   127    1
    59    56    55    2
    60    97    98    1
    61    99    98    2
    62   111   110    2
    63    55    54    1
    64     8    14   am
    65     8     9    2
    66   115   113    1
    67   127   128    1
    68   110   109    1
    69   113   112    1
    70    14    15    1
    71   129   128    2
    72    52    51    2
    73   128   130   am
    74    54    57    1
    75    54    53    1
    76   112   109    1
    77   112   114    1
    78    44    43    2
    79    57    58    1
    80   151   149    1
    81    51    53   am
    82    51    50    1
    83   109   108    1
    84    15    18    1
    85    15    16    1
    86    48    46    1
    87   108   102   am
    88   130   131    1
    89   150   149    1
    90    17    16    2
    91   148   149    1
    92   148   145    1
    93   100   101    1
    94    43    49   am
    95    43    42    1
    96    60    58   ar
    97    60    62   ar
    98    58    59   ar
    99    50    49    1
   100    16    19   am
   101    46    45    1
   102   106   105   ar
   103   131   132    1
   104   131   134    1
   105    34    33    2
   106   132   144   am
   107   132   133    2
   108   144   145    1
   109   102   101    1
   110   102   103    2
   111    42    45    1
   112    42    41    1
   113   145   146    1
   114   101   104    1
   115    62    61   ar
   116    19    20    1
   117    45    47    1
   118    59    61   ar
   119   140   142   ar
   120   140   137   ar
   121   142   143   ar
   122   105   104    1
   123   105   107   ar
   124    33    41   am
   125    33    32    1
   126   134   135    1
   127   146   147    2
   128   146   152   am
   129    20    21    1
   130    20    23    1
   131   137   135   ar
   132   137   139   ar
   133    31    32    1
   134   143   141   ar
   135    30    29    1
   136    28    29   ar
   137    28    26   ar
   138   135   136   ar
   139    21    22    2
   140    32    35    1
   141    29    27   ar
   142    26    24   ar
   143   152   153    1
   144    27    25   ar
   145    24    25   ar
   146    24    23    1
   147    37    39   ar
   148    37    36   ar
   149   139   141   ar
   150   139   138   ar
   151    39    40   ar
   152   136   138   ar
   153    35    36    1
   154   155   154    2
   155    36    38   ar
   156   153   154    1
   157   153   156    1
   158    40    38   ar
   159   156   157    1
   160   157   158    1
   161   157   159    1
