@<TRIPOS>MOLECULE
tmp/2x1nC00.pdb
 186 177 0 0 0
SMALL
GASTEIGER

@<TRIPOS>ATOM
      1  N         43.2600   43.2150   28.4380 N.3    10  ILE10      -0.1231
      2  CA        44.5980   43.7230   28.1420 C.3    10  ILE10       0.1696
      3  C         44.8750   45.0530   28.8070 C.2    10  ILE10       0.2632
      4  O         46.0230   45.4650   28.9310 O.2    10  ILE10      -0.2714
      5  CB        44.9010   43.8340   26.6360 C.3    10  ILE10       0.0266
      6  CG1       43.8410   44.6530   25.9010 C.3    10  ILE10       0.0019
      7  CG2       45.0030   42.4320   26.0480 C.3    10  ILE10       0.0020
      8  CD1       44.0860   44.6030   24.4070 C.3    10  ILE10       0.0001
      9  N         43.8210   45.7140   29.2590 N.am   11  GLY11      -0.1718
     10  CA        44.0080   46.9610   29.9950 C.2    11  GLY11       0.1480
     11  C         42.7810   47.8180   30.2640 C.2    11  GLY11       0.2820
     12  O         41.6420   47.3680   30.1160 O.2    11  GLY11      -0.2669
     13  N         43.0320   49.0490   30.7080 N.am   12  GLU12      -0.1929
     14  CA        41.9950   50.0470   30.9820 C.3    12  GLU12       0.1736
     15  C         42.4550   51.3830   30.4320 C.2    12  GLU12       0.2617
     16  O         43.6190   51.7620   30.6050 O.2    12  GLU12      -0.2715
     17  CB        41.7120   50.1680   32.4790 C.3    12  GLU12       0.0429
     18  CG        40.8210   49.0490   32.9870 C.3    12  GLU12       0.1163
     19  CD        41.0290   48.7270   34.4570 C.2    12  GLU12       0.3649
     20  OE1       40.6440   47.6030   34.8650 O.co2  12  GLU12      -0.2457
     21  OE2       41.5770   49.5790   35.1900 O.co2  12  GLU12      -0.2457
     22  N         41.5440   52.0600   29.7350 N.am   13  GLY13      -0.1955
     23  CA        41.8460   53.3490   29.0950 C.3    13  GLY13       0.1869
     24  C         41.3440   54.5800   29.8370 C.2    13  GLY13       0.2309
     25  O         41.3910   54.6510   31.0650 O.2    13  GLY13      -0.2863
     26  N         39.4880   47.2300   28.3290 N.3    18  VAL18      -0.1245
     27  CA        39.8440   46.7720   26.9820 C.3    18  VAL18       0.1561
     28  C         40.2410   45.2930   27.0150 C.2    18  VAL18       0.2260
     29  O         41.0250   44.8880   27.8900 O.2    18  VAL18      -0.2867
     30  CB        41.0130   47.6160   26.4080 C.3    18  VAL18       0.0252
     31  CG1       41.2640   47.2730   24.9690 C.3    18  VAL18       0.0019
     32  CG2       40.7040   49.0910   26.5950 C.3    18  VAL18       0.0019
     33  N         41.0200   44.5660   19.3820 N.3    31  ALA31      -0.1245
     34  CA        41.0030   45.1030   20.7450 C.3    31  ALA31       0.1562
     35  C         39.6460   45.7840   20.9730 C.2    31  ALA31       0.2260
     36  O         39.3240   46.7480   20.2780 O.2    31  ALA31      -0.2867
     37  CB        42.1430   46.0780   20.9720 C.3    31  ALA31       0.0290
     38  N         37.2510   47.9020   23.1270 N.3    33  LYS33      -0.1245
     39  CA        37.0850   48.8590   24.2210 C.3    33  LYS33       0.1561
     40  C         35.6040   49.0050   24.5180 C.2    33  LYS33       0.2260
     41  O         34.8730   49.5470   23.7180 O.2    33  LYS33      -0.2867
     42  CB        37.6760   50.2290   23.8700 C.3    33  LYS33       0.0271
     43  CG        37.6800   51.2200   25.0260 C.3    33  LYS33       0.0035
     44  CD        38.1460   52.6180   24.5790 C.3    33  LYS33       0.0206
     45  CE        39.6650   52.7670   24.5700 C.3    33  LYS33       0.1093
     46  NZ        40.1250   54.2000   24.5210 N.3    33  LYS33      -0.1314
     47  N         37.2780   60.5550   20.8030 N.3    51  GLU51      -0.1245
     48  CA        38.0920   59.4780   20.2360 C.3    51  GLU51       0.1567
     49  C         37.4520   58.9140   18.9890 C.2    51  GLU51       0.2260
     50  O         38.1180   58.7260   17.9900 O.2    51  GLU51      -0.2867
     51  CB        38.2940   58.3410   21.2170 C.3    51  GLU51       0.0388
     52  CG        39.2110   57.2060   20.6900 C.3    51  GLU51       0.1160
     53  CD        39.7940   56.2870   21.8000 C.2    51  GLU51       0.3649
     54  OE1       39.0300   55.6550   22.5830 O.co2  51  GLU51      -0.2457
     55  OE2       41.0380   56.1970   21.9580 O.co2  51  GLU51      -0.2457
     56  N         46.5300   54.3400   15.5130 N.3    64  VAL64      -0.1245
     57  CA        45.7040   53.1280   15.7070 C.3    64  VAL64       0.1561
     58  C         44.4780   53.1980   14.7980 C.2    64  VAL64       0.2260
     59  O         43.8360   54.2510   14.7280 O.2    64  VAL64      -0.2867
     60  CB        45.0300   53.0250   17.1090 C.3    64  VAL64       0.0252
     61  CG1       45.0400   51.5530   17.5750 C.3    64  VAL64       0.0019
     62  CG2       45.6420   53.9780   18.1290 C.3    64  VAL64       0.0019
     63  N         39.1010   48.1760   17.8110 N.3    80  PHE80      -0.1227
     64  CA        40.3900   48.6200   17.2610 C.3    80  PHE80       0.1736
     65  C         41.1790   47.4290   16.7270 C.2    80  PHE80       0.2595
     66  O         40.8650   46.2700   17.0460 O.2    80  PHE80      -0.2718
     67  CB        41.2570   49.2610   18.3420 C.3    80  PHE80       0.0547
     68  CG        40.6710   50.5310   18.9490 C.ar   80  PHE80      -0.0202
     69  CD1       39.9550   50.4850   20.1190 C.ar   80  PHE80      -0.0042
     70  CD2       40.8900   51.7760   18.3720 C.ar   80  PHE80      -0.0042
     71  CE1       39.4870   51.6580   20.6830 C.ar   80  PHE80      -0.0003
     72  CE2       40.3830   52.9200   18.9090 C.ar   80  PHE80      -0.0003
     73  CZ        39.7010   52.8700   20.0760 C.ar   80  PHE80      -0.0000
     74  N         42.1830   47.7380   15.9010 N.am   81  GLU81      -0.1965
     75  CA        43.1450   46.7410   15.4430 C.3    81  GLU81       0.1733
     76  C         43.9890   46.3520   16.6550 C.2    81  GLU81       0.2616
     77  O         44.2910   47.1600   17.5070 O.2    81  GLU81      -0.2715
     78  CB        44.0040   47.3050   14.3170 C.3    81  GLU81       0.0429
     79  CG        44.9380   48.4370   14.7700 C.3    81  GLU81       0.1163
     80  CD        45.9840   48.8290   13.7010 C.2    81  GLU81       0.3649
     81  OE1       46.4720   49.9730   13.7220 O.co2  81  GLU81      -0.2457
     82  OE2       46.3460   47.9810   12.8450 O.co2  81  GLU81      -0.2457
     83  N         44.3740   45.0950   16.7610 N.am   82  PHE82      -0.1960
     84  CA        45.1740   44.6700   17.9090 C.3    82  PHE82       0.1771
     85  C         46.6630   44.9010   17.7180 C.2    82  PHE82       0.2619
     86  O         47.2710   44.4450   16.7490 O.2    82  PHE82      -0.2715
     87  CB        44.9130   43.1850   18.2460 C.3    82  PHE82       0.0574
     88  CG        45.7190   42.6590   19.4050 C.ar   82  PHE82      -0.0200
     89  CD1       46.8050   41.8600   19.1910 C.ar   82  PHE82      -0.0042
     90  CD2       45.4120   43.0270   20.7100 C.ar   82  PHE82      -0.0042
     91  CE1       47.5390   41.3690   20.2430 C.ar   82  PHE82      -0.0003
     92  CE2       46.1570   42.5760   21.7850 C.ar   82  PHE82      -0.0003
     93  CZ        47.2360   41.7440   21.5520 C.ar   82  PHE82      -0.0000
     94  N         47.2770   45.5660   18.6820 N.am   83  LEU83      -0.1963
     95  CA        48.7410   45.6180   18.7280 C.3    83  LEU83       0.1728
     96  C         49.2920   44.8410   19.9270 C.2    83  LEU83       0.2616
     97  O         48.5900   44.6130   20.9080 O.2    83  LEU83      -0.2715
     98  CB        49.2300   47.0700   18.7080 C.3    83  LEU83       0.0311
     99  CG        49.1520   47.7600   17.3390 C.3    83  LEU83       0.0022
    100  CD1       47.9130   48.5940   17.3200 C.3    83  LEU83       0.0001
    101  CD2       50.3310   48.6500   17.1030 C.3    83  LEU83       0.0001
    102  N         50.5510   44.4300   19.8180 N.am   84  HIS84      -0.1959
    103  CA        51.1580   43.4440   20.7280 C.3    84  HIS84       0.1787
    104  C         51.2740   43.8860   22.1890 C.2    84  HIS84       0.2620
    105  O         50.9260   43.1340   23.0940 O.2    84  HIS84      -0.2715
    106  CB        52.5250   43.0030   20.1810 C.3    84  HIS84       0.0785
    107  CG        53.1890   41.9240   20.9870 C.ar   84  HIS84       0.0821
    108  ND1       53.0560   40.5820   20.6960 N.ar   84  HIS84      -0.2267
    109  CD2       53.9890   41.9860   22.0820 C.ar   84  HIS84       0.1154
    110  CE1       53.7500   39.8650   21.5660 C.ar   84  HIS84       0.1986
    111  NE2       54.3220   40.6940   22.4220 N.ar   84  HIS84      -0.2212
    112  N         51.7800   45.0970   22.3910 N.am   85  GLN85      -0.1963
    113  CA        51.8480   45.7470   23.7000 C.3    85  GLN85       0.1733
    114  C         52.1530   47.2340   23.6110 C.2    85  GLN85       0.2616
    115  O         52.3750   47.7630   22.5260 O.2    85  GLN85      -0.2715
    116  CB        52.8990   45.0890   24.5990 C.3    85  GLN85       0.0408
    117  CG        54.3300   45.2950   24.1880 C.3    85  GLN85       0.0908
    118  CD        55.3030   44.6500   25.1850 C.2    85  GLN85       0.2608
    119  OE1       56.4410   44.2460   24.8580 O.2    85  GLN85      -0.2717
    120  NE2       54.8420   44.5690   26.4290 N.am   85  GLN85      -0.0878
    121  N         52.2200   47.8820   24.7710 N.am   86  ASP86      -0.1971
    122  CA        52.5060   49.3020   24.8310 C.3    86  ASP86       0.1709
    123  C         53.9750   49.5740   25.0290 C.2    86  ASP86       0.2293
    124  O         54.7290   48.6670   25.3340 O.2    86  ASP86      -0.2864
    125  CB        51.6790   49.9450   25.9340 C.3    86  ASP86       0.1436
    126  CG        52.1430   49.5720   27.3410 C.2    86  ASP86       0.3671
    127  OD1       53.3650   49.7300   27.6470 O.co2  86  ASP86      -0.2456
    128  OD2       51.2940   49.2480   28.2090 O.co2  86  ASP86      -0.2456
    129  N         55.5770   49.0300   28.8620 N.3    89  LYS89      -0.1245
    130  CA        55.8680   47.6290   29.2320 C.3    89  LYS89       0.1561
    131  C         57.1500   47.1960   28.5650 C.2    89  LYS89       0.2260
    132  O         57.9830   46.5200   29.1700 O.2    89  LYS89      -0.2867
    133  CB        54.7510   46.6520   28.8130 C.3    89  LYS89       0.0271
    134  CG        53.6940   46.3840   29.9060 C.3    89  LYS89       0.0035
    135  CD        52.7780   47.5960   30.1980 C.3    89  LYS89       0.0206
    136  CE        51.9740   47.4270   31.4700 C.3    89  LYS89       0.1093
    137  NZ        51.3370   48.7680   31.7800 N.3    89  LYS89      -0.1314
    138  N         52.5170   54.7410   27.9160 N.3   131  GLN131     -0.1231
    139  CA        51.3660   53.8540   28.0470 C.3   131  GLN131      0.1698
    140  C         50.3850   54.0200   26.9030 C.2   131  GLN131      0.2592
    141  O         49.5640   53.1500   26.6970 O.2   131  GLN131     -0.2718
    142  CB        50.5960   54.1590   29.3480 C.3   131  GLN131      0.0381
    143  CG        51.4690   54.1790   30.6220 C.3   131  GLN131      0.0905
    144  CD        52.0420   55.5670   30.9680 C.2   131  GLN131      0.2608
    145  OE1       51.3180   56.4410   31.4670 O.2   131  GLN131     -0.2717
    146  NE2       53.3490   55.7560   30.7420 N.am  131  GLN131     -0.0878
    147  N         50.4220   55.1350   26.1830 N.am  132  ASN132     -0.1974
    148  CA        49.4810   55.3910   25.0870 C.3   132  ASN132      0.1688
    149  C         50.1010   55.1060   23.7230 C.2   132  ASN132      0.2292
    150  O         49.4600   55.3730   22.6780 O.2   132  ASN132     -0.2864
    151  CB        49.0030   56.8380   25.0810 C.3   132  ASN132      0.1181
    152  CG        47.9330   57.0980   26.0960 C.2   132  ASN132      0.2629
    153  OD1       47.4720   56.1830   26.7770 O.2   132  ASN132     -0.2716
    154  ND2       47.5440   58.3480   26.2290 N.am  132  ASN132     -0.0877
    155  N         51.6620   52.3520   21.1500 N.3   134  LEU134     -0.1245
    156  CA        51.5600   50.8970   20.9810 C.3   134  LEU134      0.1561
    157  C         52.4880   50.3330   19.9340 C.2   134  LEU134      0.2260
    158  O         52.6630   50.8740   18.8650 O.2   134  LEU134     -0.2867
    159  CB        50.1180   50.4610   20.6710 C.3   134  LEU134      0.0270
    160  CG        49.0100   50.8670   21.6640 C.3   134  LEU134      0.0019
    161  CD1       47.6400   50.4730   21.1630 C.3   134  LEU134      0.0001
    162  CD2       49.2350   50.3190   23.0520 C.3   134  LEU134      0.0001
    163  N         47.9930   56.2200   20.1920 N.3   144  ALA144     -0.1231
    164  CA        46.7210   55.6640   20.6400 C.3   144  ALA144      0.1694
    165  C         46.0520   56.4830   21.7190 C.2   144  ALA144      0.2592
    166  O         46.6020   57.4080   22.2630 O.2   144  ALA144     -0.2718
    167  CB        46.9360   54.2680   21.1390 C.3   144  ALA144      0.0304
    168  N         44.8580   56.0810   22.0990 N.am  145  ASP145     -0.1974
    169  CA        44.0700   56.7460   23.1550 C.3   145  ASP145      0.1709
    170  C         43.8330   58.2270   22.8910 C.2   145  ASP145      0.2293
    171  O         44.5100   59.0750   23.4590 O.2   145  ASP145     -0.2864
    172  CB        44.6400   56.5350   24.5470 C.3   145  ASP145      0.1436
    173  CG        43.5730   56.6750   25.6000 C.2   145  ASP145      0.3671
    174  OD1       43.8610   56.2650   26.7530 O.co2 145  ASP145     -0.2456
    175  OD2       42.4400   57.1410   25.2380 O.co2 145  ASP145     -0.2456
    176  N         58.2000   40.0580   23.9800 N.3   297  ARG297     -0.1245
    177  CA        57.7370   38.8780   24.7120 C.3   297  ARG297      0.1563
    178  C         56.5470   38.2150   23.9950 C.2   297  ARG297      0.2260
    179  O         55.8290   38.8240   23.2030 O.2   297  ARG297     -0.2867
    180  CB        57.1220   39.3790   26.0870 C.3   297  ARG297      0.0307
    181  CG        55.9810   40.3540   25.9950 C.3   297  ARG297      0.0489
    182  CD        55.6590   40.8930   27.3970 C.3   297  ARG297      0.2205
    183  NE        54.3980   41.6230   27.4010 N.pl3 297  ARG297     -0.0865
    184  CZ        53.2400   41.1400   27.8480 C.cat 297  ARG297      0.5346
    185  NH1       53.1620   39.9310   28.3950 N.pl3 297  ARG297      0.1354
    186  NH2       52.1550   41.8950   27.7770 N.pl3 297  ARG297      0.1354
@<TRIPOS>BOND
     1    82    80   ar
     2    80    81   ar
     3    80    79    1
     4    78    79    1
     5    78    75    1
     6    59    58    2
     7    58    57    1
     8    75    74    1
     9    75    76    1
    10    56    57    1
    11    57    60    1
    12    74    65   am
    13    76    83   am
    14    76    77    2
    15    65    66    2
    16    65    64    1
    17    86    85    2
    18    83    84    1
    19   101    99    1
    20    60    61    1
    21    60    62    1
    22    64    63    1
    23    64    67    1
    24   100    99    1
    25    99    98    1
    26    85    84    1
    27    85    94   am
    28    84    87    1
    29    50    49    2
    30    87    88    1
    31    67    68    1
    32    70    72   ar
    33    70    68   ar
    34    94    95    1
    35    98    95    1
    36    95    96    1
    37   158   157    2
    38    72    73   ar
    39    68    69   ar
    40    49    48    1
    41    89    88   ar
    42    89    91   ar
    43    33    34    1
    44    88    90   ar
    45   102    96   am
    46   102   103    1
    47    96    97    2
    48   157   156    1
    49    73    71   ar
    50    69    71   ar
    51   106   103    1
    52   106   107    1
    53   163   164    1
    54    48    47    1
    55    48    51    1
    56    91    93   ar
    57    36    35    2
    58   164   167    1
    59   164   165    1
    60   159   156    1
    61   159   160    1
    62    52    51    1
    63    52    53    1
    64   108   107   ar
    65   108   110   ar
    66    90    92   ar
    67   103   104    1
    68    34    37    1
    69    34    35    1
    70   156   155    1
    71   107   109   ar
    72   161   160    1
    73    93    92   ar
    74   110   111   ar
    75   160   162    1
    76   165   168   am
    77   165   166    2
    78    53    55   ar
    79    53    54   ar
    80   109   111   ar
    81   168   169    1
    82   104   112   am
    83   104   105    2
    84   112   113    1
    85   115   114    2
    86   150   149    2
    87   170   169    1
    88   170   171    2
    89    38    39    1
    90   169   172    1
    91   179   178    2
    92   114   113    1
    93   114   121   am
    94   113   116    1
    95    41    40    2
    96   149   148    1
    97    42    39    1
    98    42    43    1
    99   176   177    1
   100   178   177    1
   101   117   116    1
   102   117   118    1
   103    39    40    1
   104     8     6    1
   105    46    45    1
   106   172   173    1
   107    45    44    1
   108    44    43    1
   109   177   180    1
   110   121   122    1
   111   122   123    1
   112   122   125    1
   113   119   118    2
   114    31    30    1
   115   123   124    2
   116   151   148    1
   117   151   152    1
   118   148   147    1
   119   118   120   am
   120   175   173   ar
   121   173   174   ar
   122     6     5    1
   123   125   126    1
   124   181   180    1
   125   181   182    1
   126     7     5    1
   127   152   154   am
   128   152   153    2
   129   147   140   am
   130    30    32    1
   131    30    27    1
   132     5     2    1
   133   141   140    2
   134   140   139    1
   135    27    28    1
   136    27    26    1
   137    28    29    2
   138   126   127   ar
   139   126   128   ar
   140   182   183    1
   141   183   184    2
   142   186   184    1
   143   184   185    1
   144   138   139    1
   145   139   142    1
   146     2     1    1
   147     2     3    1
   148   131   132    2
   149   131   130    1
   150     3     4    2
   151     3     9    1
   152   133   130    1
   153   133   134    1
   154   129   130    1
   155    23    22    1
   156    23    24    1
   157     9    10    2
   158   142   143    1
   159    22    15   am
   160    24    25    2
   161   134   135    1
   162    10    11    1
   163    12    11    2
   164   135   136    1
   165    11    13   am
   166    15    16    2
   167    15    14    1
   168   143   144    1
   169    13    14    1
   170   146   144   am
   171   144   145    2
   172    14    17    1
   173   136   137    1
   174    17    18    1
   175    18    19    1
   176    19    20   ar
   177    19    21   ar
