@<TRIPOS>MOLECULE
tmp/2x1nD00.pdb
 92 87 0 0 0
SMALL
GASTEIGER

@<TRIPOS>ATOM
      1  N         10.2910   78.0530   12.3100 N.3    36  MET36      -0.1245
      2  CA        10.4530   77.2240   13.5230 C.3    36  MET36       0.1570
      3  C         11.9440   76.9990   13.8790 C.2    36  MET36       0.2261
      4  O         12.4090   77.0760   15.0380 O.2    36  MET36      -0.2867
      5  CB         9.7750   75.8630   13.3070 C.3    36  MET36       0.0387
      6  CG         8.2430   75.8760   13.3160 C.3    36  MET36       0.0595
      7  SD         7.4630   74.2530   13.0960 S.3    36  MET36      -0.1393
      8  CE         5.7220   74.5850   12.6500 C.3    36  MET36       0.0692
      9  N         13.4130   80.0440   15.5970 N.3    39  ILE39      -0.1231
     10  CA        13.1020   80.1560   17.0240 C.3    39  ILE39       0.1692
     11  C         14.0250   79.2430   17.8220 C.2    39  ILE39       0.2591
     12  O         14.5130   79.6160   18.8930 O.2    39  ILE39      -0.2718
     13  CB        11.6070   79.7970   17.2790 C.3    39  ILE39       0.0266
     14  CG1       10.6990   80.7560   16.5080 C.3    39  ILE39       0.0019
     15  CG2       11.2100   79.7560   18.7740 C.3    39  ILE39       0.0020
     16  CD1        9.2350   80.3760   16.5650 C.3    39  ILE39       0.0001
     17  N         14.2510   78.0270   17.3110 N.am   40  LEU40      -0.1980
     18  CA        15.1030   77.0170   18.0010 C.3    40  LEU40       0.1596
     19  C         16.5320   77.5050   18.1680 C.2    40  LEU40       0.2287
     20  O         17.0690   77.4590   19.2830 O.2    40  LEU40      -0.2864
     21  CB        15.1430   75.6980   17.2010 C.3    40  LEU40       0.0297
     22  CG        15.9810   74.5420   17.7580 C.3    40  LEU40       0.0022
     23  CD1       15.5060   74.1280   19.1720 C.3    40  LEU40       0.0001
     24  CD2       15.9850   73.2870   16.8930 C.3    40  LEU40       0.0001
     25  N         16.8490   80.3020   20.5990 N.3    43  TRP43      -0.1241
     26  CA        16.7840   79.8020   21.9770 C.3    43  TRP43       0.1605
     27  C         18.1190   79.2210   22.4060 C.2    43  TRP43       0.2264
     28  O         18.5360   79.2820   23.5460 O.2    43  TRP43      -0.2867
     29  CB        15.6950   78.7430   22.0970 C.3    43  TRP43       0.0550
     30  CG        15.7020   78.0120   23.3730 C.ar   43  TRP43       0.0003
     31  CD1       15.3850   78.5020   24.5820 C.ar   43  TRP43       0.0946
     32  CD2       16.0180   76.6190   23.5710 C.ar   43  TRP43       0.0152
     33  NE1       15.6040   77.5440   25.5600 N.ar   43  TRP43      -0.2442
     34  CE2       15.9380   76.3640   24.9530 C.ar   43  TRP43       0.0810
     35  CE3       16.3750   75.5740   22.7170 C.ar   43  TRP43       0.0012
     36  CZ2       16.1800   75.1150   25.4940 C.ar   43  TRP43       0.0191
     37  CZ3       16.6250   74.3420   23.2470 C.ar   43  TRP43       0.0001
     38  CH2       16.5150   74.1090   24.6280 C.ar   43  TRP43       0.0015
     39  N          7.0510   69.0950   15.0910 N.3    76  ARG76      -0.1231
     40  CA         7.3340   70.2990   15.8640 C.3    76  ARG76       0.1694
     41  C          7.5120   70.0890   17.3580 C.2    76  ARG76       0.2592
     42  O          8.3520   70.7050   17.9990 O.2    76  ARG76      -0.2718
     43  CB         6.2050   71.2910   15.6370 C.3    76  ARG76       0.0321
     44  CG         4.8390   70.8130   16.0670 C.3    76  ARG76       0.0489
     45  CD         3.7280   71.7020   15.5080 C.3    76  ARG76       0.2205
     46  NE         3.5710   71.5930   14.0570 N.pl3  76  ARG76      -0.0865
     47  CZ         2.9130   72.4910   13.3320 C.cat  76  ARG76       0.5346
     48  NH1        2.3460   73.5170   13.9390 N.pl3  76  ARG76       0.1354
     49  NH2        2.8280   72.3830   12.0170 N.pl3  76  ARG76       0.1354
     50  N          6.7480   69.1630   17.9130 N.am   77  GLY77      -0.1957
     51  CA         6.8650   68.8370   19.3130 C.3    77  GLY77       0.1869
     52  C          8.1500   68.1560   19.7040 C.2    77  GLY77       0.2309
     53  O          8.4270   67.9910   20.8980 O.2    77  GLY77      -0.2863
     54  N         11.1800   68.9730   17.7320 N.3    79  LEU79      -0.1231
     55  CA        12.2510   69.8100   17.2300 C.3    79  LEU79       0.1693
     56  C         13.1770   70.3300   18.3540 C.2    79  LEU79       0.2591
     57  O         14.3950   70.4870   18.1630 O.2    79  LEU79      -0.2718
     58  CB        11.6490   70.9880   16.4680 C.3    79  LEU79       0.0284
     59  CG        12.5960   71.8540   15.6500 C.3    79  LEU79       0.0019
     60  CD1       13.5410   71.0130   14.8130 C.3    79  LEU79       0.0001
     61  CD2       11.7560   72.7310   14.7260 C.3    79  LEU79       0.0001
     62  N         12.6110   70.6400   19.5190 N.am   80  GLN80      -0.1979
     63  CA        13.4040   71.1460   20.6230 C.3    80  GLN80       0.1601
     64  C         14.2360   70.0430   21.2730 C.2    80  GLN80       0.2287
     65  O         15.2980   70.2970   21.8570 O.2    80  GLN80      -0.2864
     66  CB        12.4970   71.8180   21.6420 C.3    80  GLN80       0.0394
     67  CG        13.2490   72.6450   22.6510 C.3    80  GLN80       0.0908
     68  CD        12.3570   73.3580   23.6380 C.2    80  GLN80       0.2608
     69  OE1       11.1550   73.4110   23.4480 O.2    80  GLN80      -0.2717
     70  NE2       12.9410   73.9250   24.6940 N.am   80  GLN80      -0.0878
     71  N         14.5950   73.0410   29.1840 N.3   108  THR108     -0.1203
     72  CA        13.4140   72.7490   28.3550 C.3   108  THR108      0.1994
     73  C         12.1000   72.8930   29.1120 C.2   108  THR108      0.2617
     74  O         11.0460   72.4760   28.6180 O.2   108  THR108     -0.2717
     75  CB        13.3900   71.3300   27.7640 C.3   108  THR108      0.1784
     76  OG1       13.4930   70.3680   28.8320 O.3   108  THR108     -0.2211
     77  CG2       14.4460   71.1580   26.6450 C.3   108  THR108      0.0376
     78  N         12.1740   73.4520   30.3170 N.am  109  ASP109     -0.1973
     79  CA        10.9870   73.6250   31.1470 C.3   109  ASP109      0.1709
     80  C         10.2850   72.2500   31.3350 C.2   109  ASP109      0.2293
     81  O          9.0600   72.0910   31.3400 O.2   109  ASP109     -0.2864
     82  CB        10.0580   74.6750   30.5350 C.3   109  ASP109      0.1436
     83  CG         9.2690   75.4580   31.5990 C.2   109  ASP109      0.3671
     84  OD1        8.8900   74.8900   32.6680 O.co2 109  ASP109     -0.2456
     85  OD2        8.9720   76.6520   31.3510 O.co2 109  ASP109     -0.2456
     86  N          9.8020   69.8360   29.4410 N.3   111  THR111     -0.1218
     87  CA         9.0160   69.2880   28.3200 C.3   111  THR111      0.1862
     88  C          9.4190   67.8390   28.0220 C.2   111  THR111      0.2287
     89  O          8.5860   67.0430   27.6250 O.2   111  THR111     -0.2866
     90  CB         9.2670   70.0530   27.0140 C.3   111  THR111      0.1770
     91  OG1        9.0890   71.4450   27.2560 O.3   111  THR111     -0.2211
     92  CG2        8.3520   69.6080   25.9330 C.3   111  THR111      0.0375
@<TRIPOS>BOND
     1    49    47    1
     2     1     2    1
     3     8     7    1
     4     7     6    1
     5     5     6    1
     6     5     2    1
     7    47    48    1
     8    47    46    2
     9     2     3    1
    10     3     4    2
    11    46    45    1
    12    61    59    1
    13    60    59    1
    14    39    40    1
    15    45    44    1
    16     9    10    1
    17    43    40    1
    18    43    44    1
    19    59    58    1
    20    40    41    1
    21    58    55    1
    22    14    16    1
    23    14    13    1
    24    24    22    1
    25    10    13    1
    26    10    11    1
    27    21    22    1
    28    21    18    1
    29    55    54    1
    30    55    56    1
    31    13    15    1
    32    17    11   am
    33    17    18    1
    34    41    50   am
    35    41    42    2
    36    22    23    1
    37    11    12    2
    38    50    51    1
    39    18    19    1
    40    57    56    2
    41    19    20    2
    42    56    62   am
    43    51    52    1
    44    62    63    1
    45    52    53    2
    46    25    26    1
    47    63    64    1
    48    63    66    1
    49    64    65    2
    50    66    67    1
    51    26    29    1
    52    26    27    1
    53    29    30    1
    54    27    28    2
    55    67    68    1
    56    35    37   ar
    57    35    32   ar
    58    37    38   ar
    59    30    32   ar
    60    30    31   ar
    61    69    68    2
    62    32    34   ar
    63    68    70   am
    64    31    33   ar
    65    38    36   ar
    66    34    36   ar
    67    34    33   ar
    68    92    90    1
    69    77    75    1
    70    90    91    1
    71    90    87    1
    72    89    88    2
    73    75    72    1
    74    75    76    1
    75    88    87    1
    76    87    86    1
    77    72    73    1
    78    72    71    1
    79    74    73    2
    80    73    78   am
    81    78    79    1
    82    82    79    1
    83    82    83    1
    84    79    80    1
    85    80    81    2
    86    85    83   ar
    87    83    84   ar
