@<TRIPOS>MOLECULE
tmp/2x1rB00.pdb
 104 95 0 0 0
SMALL
GASTEIGER

@<TRIPOS>ATOM
      1  N         15.0080  -17.8670   33.3180 N.3    10  ASN10      -0.1240
      2  CA        14.3710  -16.9970   34.2750 C.3    10  ASN10       0.1653
      3  C         15.0570  -17.1800   35.6230 C.2    10  ASN10       0.2266
      4  O         14.9250  -18.2180   36.2460 O.2    10  ASN10      -0.2867
      5  CB        12.8850  -17.3480   34.3580 C.3    10  ASN10       0.1155
      6  CG        12.0600  -16.2490   34.9930 C.2    10  ASN10       0.2627
      7  OD1       12.1390  -15.0840   34.5970 O.2    10  ASN10      -0.2716
      8  ND2       11.2630  -16.6120   35.9880 N.am   10  ASN10      -0.0877
      9  N         15.6930  -17.1230   39.4300 N.3    12  LYS12      -0.1245
     10  CA        14.9360  -17.0630   40.6760 C.3    12  LYS12       0.1561
     11  C         15.8770  -17.0390   41.8760 C.2    12  LYS12       0.2260
     12  O         16.8970  -17.7370   41.8990 O.2    12  LYS12      -0.2867
     13  CB        13.9460  -18.2270   40.7930 C.3    12  LYS12       0.0271
     14  CG        14.5720  -19.5530   41.1650 C.3    12  LYS12       0.0035
     15  CD        13.5240  -20.5140   41.7190 C.3    12  LYS12       0.0206
     16  CE        12.7420  -19.8790   42.8560 C.3    12  LYS12       0.1093
     17  NZ        12.0630  -20.9000   43.7040 N.3    12  LYS12      -0.1314
     18  N          4.5740  -14.3390   35.3300 N.3    86  HIS86      -0.1241
     19  CA         5.1040  -15.6190   35.7780 C.3    86  HIS86       0.1621
     20  C          4.2760  -16.1390   36.9570 C.2    86  HIS86       0.2264
     21  O          3.7400  -15.3570   37.7380 O.2    86  HIS86      -0.2867
     22  CB         6.5830  -15.4900   36.1640 C.3    86  HIS86       0.0745
     23  CG         7.3150  -16.7940   36.1960 C.ar   86  HIS86       0.0817
     24  ND1        7.6730  -17.4190   37.3710 N.ar   86  HIS86      -0.2268
     25  CD2        7.7420  -17.6020   35.1980 C.ar   86  HIS86       0.1154
     26  CE1        8.2980  -18.5500   37.0970 C.ar   86  HIS86       0.1986
     27  NE2        8.3450  -18.6890   35.7850 N.ar   86  HIS86      -0.2212
     28  N          3.1460  -22.3280   30.8010 N.3   158  GLU158     -0.1245
     29  CA         3.7910  -23.0580   31.8880 C.3   158  GLU158      0.1567
     30  C          2.7560  -23.6000   32.8500 C.2   158  GLU158      0.2260
     31  O          2.1610  -22.8440   33.6150 O.2   158  GLU158     -0.2867
     32  CB         4.7130  -22.1330   32.6730 C.3   158  GLU158      0.0388
     33  CG         5.8580  -21.5470   31.8850 C.3   158  GLU158      0.1160
     34  CD         6.9560  -21.0600   32.8140 C.2   158  GLU158      0.3649
     35  OE1        6.7260  -20.0740   33.5410 O.co2 158  GLU158     -0.2457
     36  OE2        8.0350  -21.6830   32.8340 O.co2 158  GLU158     -0.2457
     37  N          6.3190  -26.4980   37.4380 N.3   163  ILE163     -0.1231
     38  CA         7.3690  -25.5390   37.7470 C.3   163  ILE163      0.1692
     39  C          8.1520  -25.9080   39.0150 C.2   163  ILE163      0.2592
     40  O          7.6310  -25.8110   40.1280 O.2   163  ILE163     -0.2718
     41  CB         6.8040  -24.1140   37.8700 C.3   163  ILE163      0.0266
     42  CG1        6.1200  -23.7110   36.5620 C.3   163  ILE163      0.0019
     43  CG2        7.9160  -23.1270   38.2550 C.3   163  ILE163      0.0020
     44  CD1        5.5090  -22.3500   36.5870 C.3   163  ILE163      0.0001
     45  N          9.4040  -26.3250   38.8280 N.am  164  GLY164     -0.1957
     46  CA        10.2820  -26.6790   39.9310 C.3   164  GLY164      0.1869
     47  C          9.9810  -28.0210   40.5770 C.2   164  GLY164      0.2309
     48  O         10.5780  -28.3710   41.5910 O.2   164  GLY164     -0.2863
     49  N          9.8320  -31.0660   38.8010 N.3   166  GLY166     -0.1225
     50  CA        10.3620  -32.1870   38.0560 C.3   166  GLY166      0.1811
     51  C          9.2980  -32.8960   37.2490 C.2   166  GLY166      0.2280
     52  O          9.5960  -33.8330   36.5010 O.2   166  GLY166     -0.2866
     53  N          8.4110  -25.4570   32.4170 N.3   203  GLY203     -0.1210
     54  CA         8.0040  -26.2730   33.5450 C.3   203  GLY203      0.1956
     55  C          8.7750  -27.5780   33.5700 C.2   203  GLY203      0.2613
     56  O          8.3850  -28.5530   32.9200 O.2   203  GLY203     -0.2717
     57  N          9.8820  -27.5850   34.3070 N.am  204  SER204     -0.1938
     58  CA        10.7210  -28.7710   34.4330 C.3   204  SER204      0.2055
     59  C         11.3440  -29.2140   33.1080 C.2   204  SER204      0.2642
     60  O         11.5880  -30.4040   32.9000 O.2   204  SER204     -0.2714
     61  CB         9.9280  -29.9360   35.0500 C.3   204  SER204      0.2130
     62  OG         9.5770  -29.6580   36.3920 O.3   204  SER204     -0.2179
     63  N         11.6150  -28.2730   32.2110 N.am  205  VAL205     -0.1977
     64  CA        12.3330  -28.6250   30.9810 C.3   205  VAL205      0.1596
     65  C         13.7760  -28.9890   31.3390 C.2   205  VAL205      0.2287
     66  O         14.3590  -28.3760   32.2090 O.2   205  VAL205     -0.2864
     67  CB        12.3530  -27.4550   29.9690 C.3   205  VAL205      0.0276
     68  CG1       13.1130  -27.8480   28.6930 C.3   205  VAL205      0.0022
     69  CG2       10.9210  -26.9800   29.6500 C.3   205  VAL205      0.0022
     70  N         10.9790  -21.8100   28.2770 N.3   223  LEU223     -0.1231
     71  CA        11.3150  -20.9840   29.4270 C.3   223  LEU223      0.1693
     72  C         11.8140  -21.9390   30.5120 C.2   223  LEU223      0.2592
     73  O         11.1610  -22.9390   30.8300 O.2   223  LEU223     -0.2718
     74  CB        10.0850  -20.1960   29.8980 C.3   223  LEU223      0.0284
     75  CG        10.2680  -19.2170   31.0630 C.3   223  LEU223      0.0019
     76  CD1       11.3860  -18.2390   30.7540 C.3   223  LEU223      0.0001
     77  CD2        8.9710  -18.4670   31.3390 C.3   223  LEU223      0.0001
     78  N         12.9970  -21.6680   31.0490 N.am  224  ALA224     -0.1966
     79  CA        13.6030  -22.5930   31.9950 C.3   224  ALA224      0.1728
     80  C         14.3370  -21.8170   33.0530 C.2   224  ALA224      0.2616
     81  O         14.5010  -20.6150   32.9340 O.2   224  ALA224     -0.2715
     82  CB        14.5560  -23.5390   31.2790 C.3   224  ALA224      0.0334
     83  N         14.7840  -22.5140   34.0870 N.am  225  GLY225     -0.1955
     84  CA        15.5420  -21.8860   35.1430 C.3   225  GLY225      0.1869
     85  C         16.9290  -21.5410   34.6430 C.2   225  GLY225      0.2309
     86  O         17.4190  -22.1000   33.6550 O.2   225  GLY225     -0.2863
     87  N         20.3530  -22.0930   34.8980 N.3   227  LYS227     -0.1245
     88  CA        21.2440  -23.1200   35.4230 C.3   227  LYS227      0.1561
     89  C         22.0720  -23.6970   34.2720 C.2   227  LYS227      0.2260
     90  O         21.8340  -23.3480   33.1140 O.2   227  LYS227     -0.2867
     91  CB        20.4340  -24.2070   36.1360 C.3   227  LYS227      0.0271
     92  CG        19.3850  -24.8560   35.2780 C.3   227  LYS227      0.0035
     93  CD        18.4410  -25.7320   36.1120 C.3   227  LYS227      0.0206
     94  CE        17.8060  -24.9380   37.2490 C.3   227  LYS227      0.1093
     95  NZ        16.4940  -25.5040   37.7230 N.3   227  LYS227     -0.1314
     96  N         22.3120  -26.5610   32.6950 N.3   229  GLU229     -0.1245
     97  CA        21.6800  -27.3350   31.6300 C.3   229  GLU229      0.1567
     98  C         20.9190  -26.4470   30.6320 C.2   229  GLU229      0.2260
     99  O         20.4530  -26.9260   29.6090 O.2   229  GLU229     -0.2867
    100  CB        20.7670  -28.4270   32.1940 C.3   229  GLU229      0.0388
    101  CG        19.5450  -27.8990   32.9060 C.3   229  GLU229      0.1160
    102  CD        18.6740  -29.0120   33.4540 C.2   229  GLU229      0.3649
    103  OE1       18.7070  -30.1220   32.8790 O.co2 229  GLU229     -0.2457
    104  OE2       17.9610  -28.7800   34.4570 O.co2 229  GLU229     -0.2457
@<TRIPOS>BOND
     1    70    71    1
     2    68    67    1
     3    71    74    1
     4    71    72    1
     5    99    98    2
     6    69    67    1
     7    74    75    1
     8    67    64    1
     9    72    73    2
    10    72    78   am
    11    98    97    1
    12    76    75    1
    13    28    29    1
    14    64    65    1
    15    64    63    1
    16    78    79    1
    17    75    77    1
    18    82    79    1
    19    65    66    2
    20    97   100    1
    21    97    96    1
    22    33    32    1
    23    33    34    1
    24    29    32    1
    25    29    30    1
    26    79    80    1
    27   100   101    1
    28    63    59   am
    29    53    54    1
    30    34    36   ar
    31    34    35   ar
    32    30    31    2
    33   103   102   ar
    34    60    59    2
    35   101   102    1
    36    56    55    2
    37    81    80    2
    38    80    83   am
    39    59    58    1
    40    90    89    2
    41     1     2    1
    42   102   104   ar
    43    54    55    1
    44    55    57   am
    45    86    85    2
    46    83    84    1
    47    89    88    1
    48     2     5    1
    49     2     3    1
    50    57    58    1
    51     5     6    1
    52    58    61    1
    53     7     6    2
    54    85    84    1
    55    87    88    1
    56     6     8   am
    57    61    62    1
    58    25    27   ar
    59    25    23   ar
    60    92    93    1
    61    92    91    1
    62    18    19    1
    63    88    91    1
    64     3     4    2
    65    19    22    1
    66    19    20    1
    67    27    26   ar
    68    93    94    1
    69    22    23    1
    70    23    24   ar
    71    52    51    2
    72    42    44    1
    73    42    41    1
    74    20    21    2
    75    26    24   ar
    76    94    95    1
    77    51    50    1
    78    37    38    1
    79    38    41    1
    80    38    39    1
    81    41    43    1
    82    50    49    1
    83    45    39   am
    84    45    46    1
    85    39    40    2
    86     9    10    1
    87    46    47    1
    88    47    48    2
    89    10    13    1
    90    10    11    1
    91    13    14    1
    92    14    15    1
    93    15    16    1
    94    11    12    2
    95    16    17    1
