@<TRIPOS>MOLECULE
tmp/2x1sB00.pdb
 91 84 0 0 0
SMALL
GASTEIGER

@<TRIPOS>ATOM
      1  N         15.1770  -17.9900   33.3880 N.3    10  ASN10      -0.1240
      2  CA        14.4610  -17.1400   34.3020 C.3    10  ASN10       0.1653
      3  C         15.1190  -17.1600   35.6670 C.2    10  ASN10       0.2266
      4  O         15.0360  -18.1540   36.3900 O.2    10  ASN10      -0.2867
      5  CB        13.0070  -17.6170   34.3910 C.3    10  ASN10       0.1155
      6  CG        12.1130  -16.6370   35.1210 C.2    10  ASN10       0.2627
      7  OD1       12.0270  -15.4540   34.7730 O.2    10  ASN10      -0.2716
      8  ND2       11.4410  -17.1270   36.1420 N.am   10  ASN10      -0.0877
      9  N         15.8670  -16.9520   39.4390 N.3    12  LYS12      -0.1245
     10  CA        15.0980  -17.2220   40.6500 C.3    12  LYS12       0.1561
     11  C         16.0160  -17.0760   41.8600 C.2    12  LYS12       0.2260
     12  O         17.1820  -17.4640   41.8080 O.2    12  LYS12      -0.2867
     13  CB        14.5560  -18.6490   40.6070 C.3    12  LYS12       0.0271
     14  CG        13.7750  -19.0840   41.8430 C.3    12  LYS12       0.0035
     15  CD        13.4960  -20.5830   41.8070 C.3    12  LYS12       0.0206
     16  CE        12.4880  -21.0010   42.8720 C.3    12  LYS12       0.1093
     17  NZ        13.0120  -20.8440   44.2510 N.3    12  LYS12      -0.1314
     18  N          4.7090  -14.4630   35.4130 N.3    85  HIS85      -0.1241
     19  CA         5.2200  -15.7640   35.8430 C.3    85  HIS85       0.1621
     20  C          4.3850  -16.2860   37.0090 C.2    85  HIS85       0.2264
     21  O          3.8070  -15.5000   37.7600 O.2    85  HIS85      -0.2867
     22  CB         6.6970  -15.6410   36.2490 C.3    85  HIS85       0.0745
     23  CG         7.4440  -16.9400   36.2350 C.ar   85  HIS85       0.0817
     24  ND1        7.8060  -17.6050   37.3870 N.ar   85  HIS85      -0.2268
     25  CD2        7.9060  -17.6890   35.2070 C.ar   85  HIS85       0.1154
     26  CE1        8.4550  -18.7120   37.0670 C.ar   85  HIS85       0.1986
     27  NE2        8.5280  -18.7860   35.7500 N.ar   85  HIS85      -0.2212
     28  N          3.3030  -22.4030   30.8720 N.3   157  GLU157     -0.1245
     29  CA         3.9510  -23.1310   31.9530 C.3   157  GLU157      0.1567
     30  C          2.9460  -23.7070   32.9470 C.2   157  GLU157      0.2260
     31  O          2.3600  -22.9710   33.7430 O.2   157  GLU157     -0.2867
     32  CB         4.8920  -22.1970   32.7110 C.3   157  GLU157      0.0388
     33  CG         6.0830  -21.7030   31.9150 C.3   157  GLU157      0.1160
     34  CD         7.1620  -21.1900   32.8290 C.2   157  GLU157      0.3649
     35  OE1        6.8970  -20.2120   33.5500 O.co2 157  GLU157     -0.2457
     36  OE2        8.2620  -21.7850   32.8590 O.co2 157  GLU157     -0.2457
     37  N          6.5700  -26.4610   37.4870 N.3   162  ILE162     -0.1231
     38  CA         7.6420  -25.5150   37.7530 C.3   162  ILE162      0.1692
     39  C          8.4010  -25.8840   39.0170 C.2   162  ILE162      0.2592
     40  O          7.8800  -25.7420   40.1210 O.2   162  ILE162     -0.2718
     41  CB         7.0960  -24.0780   37.8640 C.3   162  ILE162      0.0266
     42  CG1        6.3920  -23.6780   36.5650 C.3   162  ILE162      0.0019
     43  CG2        8.2160  -23.0930   38.2030 C.3   162  ILE162      0.0020
     44  CD1        5.7450  -22.3180   36.6230 C.3   162  ILE162      0.0001
     45  N          9.6260  -26.3770   38.8460 N.am  163  GLY163     -0.1957
     46  CA        10.5040  -26.6550   39.9640 C.3   163  GLY163      0.1869
     47  C         10.2460  -27.9790   40.6450 C.2   163  GLY163      0.2309
     48  O         10.8590  -28.2850   41.6670 O.2   163  GLY163     -0.2863
     49  N          8.6030  -25.4770   32.5600 N.3   202  GLY202     -0.1210
     50  CA         8.1930  -26.3690   33.6380 C.3   202  GLY202      0.1956
     51  C          8.9830  -27.6670   33.6240 C.2   202  GLY202      0.2613
     52  O          8.6100  -28.6230   32.9410 O.2   202  GLY202     -0.2717
     53  N         10.0920  -27.6820   34.3530 N.am  203  SER203     -0.1938
     54  CA        10.9480  -28.8600   34.4690 C.3   203  SER203      0.2055
     55  C         11.5390  -29.3380   33.1540 C.2   203  SER203      0.2642
     56  O         11.7570  -30.5370   32.9790 O.2   203  SER203     -0.2714
     57  CB        10.2070  -30.0190   35.1390 C.3   203  SER203      0.2130
     58  OG         9.7750  -29.6500   36.4290 O.3   203  SER203     -0.2179
     59  N         11.7990  -28.4170   32.2300 N.am  204  VAL204     -0.1977
     60  CA        12.5460  -28.7710   31.0200 C.3   204  VAL204      0.1596
     61  C         13.9880  -29.0820   31.3980 C.2   204  VAL204      0.2287
     62  O         14.5570  -28.4490   32.2910 O.2   204  VAL204     -0.2864
     63  CB        12.5360  -27.6220   29.9830 C.3   204  VAL204      0.0276
     64  CG1       13.3950  -27.9730   28.7630 C.3   204  VAL204      0.0022
     65  CG2       11.1060  -27.3000   29.5560 C.3   204  VAL204      0.0022
     66  N         11.1410  -21.8790   28.3470 N.3   222  LEU222     -0.1231
     67  CA        11.4740  -21.0690   29.5050 C.3   222  LEU222      0.1693
     68  C         11.9940  -22.0350   30.5720 C.2   222  LEU222      0.2592
     69  O         11.3410  -23.0370   30.9060 O.2   222  LEU222     -0.2718
     70  CB        10.2490  -20.2730   29.9770 C.3   222  LEU222      0.0284
     71  CG        10.4290  -19.2170   31.0680 C.3   222  LEU222      0.0019
     72  CD1       11.4900  -18.1790   30.7080 C.3   222  LEU222      0.0001
     73  CD2        9.1100  -18.5270   31.3730 C.3   222  LEU222      0.0001
     74  N         13.1960  -21.7690   31.0720 N.am  223  ALA223     -0.1966
     75  CA        13.8510  -22.7050   31.9710 C.3   223  ALA223      0.1728
     76  C         14.5850  -21.9720   33.0740 C.2   223  ALA223      0.2616
     77  O         14.6210  -20.7470   33.0910 O.2   223  ALA223     -0.2715
     78  CB        14.8080  -23.5950   31.1990 C.3   223  ALA223      0.0334
     79  N         15.1690  -22.7270   33.9950 N.am  224  GLY224     -0.1955
     80  CA        15.9030  -22.1340   35.0900 C.3   224  GLY224      0.1869
     81  C         17.2440  -21.6310   34.5980 C.2   224  GLY224      0.2309
     82  O         17.7490  -22.0630   33.5620 O.2   224  GLY224     -0.2863
     83  N         20.6110  -22.0210   34.9960 N.3   226  LYS226     -0.1245
     84  CA        21.5370  -23.0100   35.5450 C.3   226  LYS226      0.1561
     85  C         22.3340  -23.6160   34.3920 C.2   226  LYS226      0.2260
     86  O         22.0050  -23.3750   33.2260 O.2   226  LYS226     -0.2867
     87  CB        20.7720  -24.0920   36.3270 C.3   226  LYS226      0.0271
     88  CG        19.8530  -24.9470   35.4830 C.3   226  LYS226      0.0035
     89  CD        18.8740  -25.7560   36.3400 C.3   226  LYS226      0.0206
     90  CE        17.8650  -24.8490   37.0240 C.3   226  LYS226      0.1093
     91  NZ        16.6350  -25.5750   37.4940 N.3   226  LYS226     -0.1314
@<TRIPOS>BOND
     1    66    67    1
     2    64    63    1
     3    67    70    1
     4    67    68    1
     5    65    63    1
     6    70    71    1
     7    63    60    1
     8    68    69    2
     9    68    74   am
    10    72    71    1
    11    28    29    1
    12    60    61    1
    13    60    59    1
    14    71    73    1
    15    74    75    1
    16    78    75    1
    17    61    62    2
    18    33    32    1
    19    33    34    1
    20    29    32    1
    21    29    30    1
    22    75    76    1
    23    59    55   am
    24    49    50    1
    25    34    36   ar
    26    34    35   ar
    27    52    51    2
    28    30    31    2
    29    56    55    2
    30    76    77    2
    31    76    79   am
    32    55    54    1
    33    86    85    2
    34     1     2    1
    35    82    81    2
    36    51    50    1
    37    51    53   am
    38    79    80    1
    39     2     5    1
    40     2     3    1
    41    53    54    1
    42     5     6    1
    43    85    84    1
    44    54    57    1
    45    81    80    1
    46     7     6    2
    47    83    84    1
    48     6     8   am
    49    57    58    1
    50    25    27   ar
    51    25    23   ar
    52    18    19    1
    53    88    87    1
    54    88    89    1
    55    84    87    1
    56     3     4    2
    57    27    26   ar
    58    19    22    1
    59    19    20    1
    60    23    22    1
    61    23    24   ar
    62    89    90    1
    63    42    44    1
    64    42    41    1
    65    20    21    2
    66    90    91    1
    67    26    24   ar
    68    37    38    1
    69    38    41    1
    70    38    39    1
    71    41    43    1
    72    45    39   am
    73    45    46    1
    74    39    40    2
    75     9    10    1
    76    46    47    1
    77    13    10    1
    78    13    14    1
    79    47    48    2
    80    10    11    1
    81    15    14    1
    82    15    16    1
    83    12    11    2
    84    16    17    1
