@<TRIPOS>MOLECULE
tmp/2x1tB00.pdb
 91 84 0 0 0
SMALL
GASTEIGER

@<TRIPOS>ATOM
      1  N         16.0240  -17.7020   33.1910 N.3    10  ASN10      -0.1240
      2  CA        15.4090  -16.7940   34.1410 C.3    10  ASN10       0.1653
      3  C         16.1040  -16.9230   35.4770 C.2    10  ASN10       0.2266
      4  O         16.0590  -17.9860   36.0970 O.2    10  ASN10      -0.2867
      5  CB        13.9190  -17.1080   34.2910 C.3    10  ASN10       0.1155
      6  CG        13.1660  -16.0140   35.0130 C.2    10  ASN10       0.2627
      7  OD1       12.9760  -14.9200   34.4770 O.2    10  ASN10      -0.2716
      8  ND2       12.7350  -16.2990   36.2400 N.am   10  ASN10      -0.0877
      9  N         16.7360  -16.6220   39.3800 N.3    12  LYS12      -0.1245
     10  CA        15.9090  -16.6530   40.5720 C.3    12  LYS12       0.1561
     11  C         16.7900  -16.8490   41.7960 C.2    12  LYS12       0.2260
     12  O         17.8660  -17.4490   41.7230 O.2    12  LYS12      -0.2867
     13  CB        14.8490  -17.7550   40.4860 C.3    12  LYS12       0.0271
     14  CG        15.4130  -19.1540   40.3240 C.3    12  LYS12       0.0035
     15  CD        14.2930  -20.1870   40.3000 C.3    12  LYS12       0.0206
     16  CE        14.8000  -21.5450   39.8390 C.3    12  LYS12       0.1093
     17  NZ        15.3510  -21.4900   38.4560 N.3    12  LYS12      -0.1314
     18  N          5.6970  -14.3200   35.3980 N.3    86  HIS86      -0.1241
     19  CA         6.2690  -15.5960   35.8080 C.3    86  HIS86       0.1621
     20  C          5.4950  -16.1120   37.0270 C.2    86  HIS86       0.2264
     21  O          4.9930  -15.3280   37.8260 O.2    86  HIS86      -0.2867
     22  CB         7.7600  -15.4390   36.1290 C.3    86  HIS86       0.0745
     23  CG         8.5180  -16.7290   36.1420 C.ar   86  HIS86       0.0817
     24  ND1        8.8700  -17.3790   37.3090 N.ar   86  HIS86      -0.2268
     25  CD2        9.0040  -17.4850   35.1300 C.ar   86  HIS86       0.1154
     26  CE1        9.5300  -18.4850   37.0120 C.ar   86  HIS86       0.1986
     27  NE2        9.6290  -18.5710   35.6970 N.ar   86  HIS86      -0.2212
     28  N          4.2110  -22.0290   31.2550 N.3   158  GLU158     -0.1245
     29  CA         4.7780  -22.7390   32.4010 C.3   158  GLU158      0.1567
     30  C          3.7560  -23.6900   33.0030 C.2   158  GLU158      0.2260
     31  O          2.7530  -23.2570   33.5620 O.2   158  GLU158     -0.2867
     32  CB         5.2340  -21.7910   33.5130 C.3   158  GLU158      0.0388
     33  CG         5.5380  -20.3660   33.1400 C.3   158  GLU158      0.1160
     34  CD         6.0500  -19.5960   34.3590 C.2   158  GLU158      0.3649
     35  OE1        7.1200  -19.9750   34.8960 O.co2 158  GLU158     -0.2457
     36  OE2        5.3830  -18.6400   34.7870 O.co2 158  GLU158     -0.2457
     37  N          5.8270  -28.1020   39.2460 N.3   163  ILE163     -0.1245
     38  CA         6.8800  -27.6190   40.1300 C.3   163  ILE163      0.1561
     39  C          6.5360  -27.8560   41.6050 C.2   163  ILE163      0.2260
     40  O          5.6120  -27.2410   42.1410 O.2   163  ILE163     -0.2867
     41  CB         7.1860  -26.1270   39.8750 C.3   163  ILE163      0.0252
     42  CG1        6.9370  -25.7820   38.4050 C.3   163  ILE163      0.0019
     43  CG2        8.6250  -25.8060   40.2510 C.3   163  ILE163      0.0019
     44  CD1        7.7610  -26.5910   37.4270 C.3   163  ILE163      0.0001
     45  N          8.1980  -23.5850   29.4250 N.3   202  GLY202     -0.1210
     46  CA         8.7930  -23.0440   30.6380 C.3   202  GLY202      0.1956
     47  C          8.7250  -23.9440   31.8600 C.2   202  GLY202      0.2612
     48  O          8.7930  -23.4900   33.0060 O.2   202  GLY202     -0.2717
     49  N          8.5940  -25.2340   31.6290 N.am  203  GLY203     -0.1942
     50  CA         8.7420  -26.1720   32.7210 C.3   203  GLY203      0.2014
     51  C         10.2000  -26.5290   32.9060 C.2   203  GLY203      0.2640
     52  O         11.0390  -26.2180   32.0530 O.2   203  GLY203     -0.2714
     53  N         10.5090  -27.1730   34.0270 N.am  204  SER204     -0.1935
     54  CA        11.8580  -27.6570   34.2870 C.3   204  SER204      0.2055
     55  C         12.3620  -28.5360   33.1430 C.2   204  SER204      0.2642
     56  O         11.8000  -29.5830   32.8480 O.2   204  SER204     -0.2714
     57  CB        11.9040  -28.4140   35.6140 C.3   204  SER204      0.2130
     58  OG        11.6630  -27.5280   36.6960 O.3   204  SER204     -0.2179
     59  N         13.4230  -28.0860   32.4920 N.am  205  VAL205     -0.1977
     60  CA        13.9730  -28.7790   31.3340 C.3   205  VAL205      0.1596
     61  C         15.4290  -29.1440   31.6020 C.2   205  VAL205      0.2287
     62  O         16.1120  -28.4610   32.3570 O.2   205  VAL205     -0.2864
     63  CB        13.8710  -27.8790   30.0740 C.3   205  VAL205      0.0276
     64  CG1       14.7790  -28.3710   28.9580 C.3   205  VAL205      0.0022
     65  CG2       12.4250  -27.7870   29.6000 C.3   205  VAL205      0.0022
     66  N         11.9770  -21.2940   28.3920 N.3   223  LEU223     -0.1231
     67  CA        12.2920  -20.3790   29.4830 C.3   223  LEU223      0.1693
     68  C         12.6900  -21.2950   30.6160 C.2   223  LEU223      0.2592
     69  O         11.8750  -22.0690   31.1030 O.2   223  LEU223     -0.2718
     70  CB        11.0890  -19.5290   29.8790 C.3   223  LEU223      0.0284
     71  CG        11.3160  -18.4410   30.9290 C.3   223  LEU223      0.0019
     72  CD1       12.3650  -17.4220   30.4470 C.3   223  LEU223      0.0001
     73  CD2        9.9910  -17.7370   31.2340 C.3   223  LEU223      0.0001
     74  N         13.9560  -21.2300   31.0120 N.am  224  ALA224     -0.1966
     75  CA        14.5190  -22.2430   31.8930 C.3   224  ALA224      0.1728
     76  C         15.3060  -21.5680   32.9930 C.2   224  ALA224      0.2616
     77  O         15.5460  -20.3660   32.9360 O.2   224  ALA224     -0.2715
     78  CB        15.4190  -23.1800   31.0940 C.3   224  ALA224      0.0334
     79  N         15.7160  -22.3440   33.9880 N.am  225  GLY225     -0.1955
     80  CA        16.5320  -21.8270   35.0630 C.3   225  GLY225      0.1869
     81  C         17.9010  -21.4080   34.5630 C.2   225  GLY225      0.2309
     82  O         18.4550  -22.0050   33.6360 O.2   225  GLY225     -0.2863
     83  N         21.3070  -21.7490   34.8640 N.3   227  LYS227     -0.1245
     84  CA        22.1800  -22.7580   35.4520 C.3   227  LYS227      0.1561
     85  C         23.0950  -23.3430   34.3680 C.2   227  LYS227      0.2260
     86  O         22.8960  -23.0850   33.1890 O.2   227  LYS227     -0.2867
     87  CB        21.3200  -23.8530   36.0910 C.3   227  LYS227      0.0271
     88  CG        20.7430  -24.8020   35.0780 C.3   227  LYS227      0.0035
     89  CD        19.3800  -25.3600   35.4860 C.3   227  LYS227      0.0206
     90  CE        18.7120  -26.0080   34.2730 C.3   227  LYS227      0.1093
     91  NZ        17.3340  -26.4970   34.5410 N.3   227  LYS227     -0.1314
@<TRIPOS>BOND
     1    66    67    1
     2    64    63    1
     3    45    46    1
     4    67    70    1
     5    67    68    1
     6    65    63    1
     7    70    71    1
     8    63    60    1
     9    72    71    1
    10    68    74   am
    11    68    69    2
    12    46    47    1
    13    71    73    1
    14    74    75    1
    15    78    75    1
    16    28    29    1
    17    60    61    1
    18    60    59    1
    19    61    62    2
    20    49    47   am
    21    49    50    1
    22    47    48    2
    23    75    76    1
    24    52    51    2
    25    29    30    1
    26    29    32    1
    27    59    55   am
    28    50    51    1
    29    56    55    2
    30    51    53   am
    31    77    76    2
    32    76    79   am
    33    30    31    2
    34    33    32    1
    35    33    34    1
    36    55    54    1
    37    86    85    2
    38     1     2    1
    39    82    81    2
    40    79    80    1
    41    53    54    1
    42     2     5    1
    43     2     3    1
    44    90    91    1
    45    90    89    1
    46    54    57    1
    47     5     6    1
    48    34    36   ar
    49    34    35   ar
    50    85    84    1
    51     7     6    2
    52    81    80    1
    53    83    84    1
    54     6     8   am
    55    88    89    1
    56    88    87    1
    57    25    27   ar
    58    25    23   ar
    59    18    19    1
    60    84    87    1
    61     3     4    2
    62    57    58    1
    63    27    26   ar
    64    19    22    1
    65    19    20    1
    66    22    23    1
    67    23    24   ar
    68    26    24   ar
    69    20    21    2
    70    44    42    1
    71    42    41    1
    72    17    16    1
    73    37    38    1
    74     9    10    1
    75    16    15    1
    76    41    38    1
    77    41    43    1
    78    38    39    1
    79    15    14    1
    80    14    13    1
    81    13    10    1
    82    10    11    1
    83    39    40    2
    84    12    11    2
