@<TRIPOS>MOLECULE
tmp/2x1wF01.pdb
 101 99 0 0 0
SMALL
GASTEIGER

@<TRIPOS>ATOM
      1  N        -28.2470   21.8540  -24.5050 N.3    84  TYR84      -0.1227
      2  CA       -27.2870   22.0210  -25.5930 C.3    84  TYR84       0.1736
      3  C        -27.8830   21.6450  -26.9460 C.2    84  TYR84       0.2595
      4  O        -28.0060   22.4920  -27.8360 O.2    84  TYR84      -0.2718
      5  CB       -26.0010   21.2360  -25.3100 C.3    84  TYR84       0.0548
      6  CG       -25.2750   21.7320  -24.0780 C.ar   84  TYR84      -0.0200
      7  CD1      -24.7890   20.8450  -23.1320 C.ar   84  TYR84      -0.0009
      8  CD2      -25.0980   23.0910  -23.8560 C.ar   84  TYR84      -0.0009
      9  CE1      -24.1340   21.2980  -22.0020 C.ar   84  TYR84       0.0417
     10  CE2      -24.4530   23.5550  -22.7290 C.ar   84  TYR84       0.0417
     11  CZ       -23.9690   22.6520  -21.8020 C.ar   84  TYR84       0.1957
     12  OH       -23.3180   23.0970  -20.6710 O.3    84  TYR84      -0.2866
     13  N        -28.2590   20.3840  -27.1080 N.am   85  ASP85      -0.1960
     14  CA       -28.9460   19.9870  -28.3300 C.3    85  ASP85       0.1840
     15  C        -30.0090   18.9080  -28.1220 C.2    85  ASP85       0.2622
     16  O        -30.0460   18.2360  -27.0910 O.2    85  ASP85      -0.2715
     17  CB       -27.9480   19.5860  -29.4230 C.3    85  ASP85       0.1450
     18  CG       -27.0540   18.4290  -29.0140 C.2    85  ASP85       0.3671
     19  OD1      -26.2280   18.0140  -29.8550 O.co2  85  ASP85      -0.2456
     20  OD2      -27.1700   17.9340  -27.8680 O.co2  85  ASP85      -0.2456
     21  N        -30.8950   18.7860  -29.1050 N.am   86  VAL86      -0.1963
     22  CA       -31.8800   17.7170  -29.1470 C.3    86  VAL86       0.1727
     23  C        -31.7760   17.0600  -30.5160 C.2    86  VAL86       0.2616
     24  O        -31.9000   17.7210  -31.5380 O.2    86  VAL86      -0.2715
     25  CB       -33.3010   18.2490  -28.9130 C.3    86  VAL86       0.0290
     26  CG1      -34.3400   17.1650  -29.1920 C.3    86  VAL86       0.0023
     27  CG2      -33.4340   18.7780  -27.4860 C.3    86  VAL86       0.0023
     28  N        -31.5340   15.7570  -30.5330 N.am   87  VAL87      -0.1963
     29  CA       -31.1240   15.0820  -31.7550 C.3    87  VAL87       0.1727
     30  C        -31.8790   13.7770  -31.9720 C.2    87  VAL87       0.2616
     31  O        -32.0000   12.9600  -31.0560 O.2    87  VAL87      -0.2715
     32  CB       -29.6140   14.8010  -31.7150 C.3    87  VAL87       0.0290
     33  CG1      -29.1940   13.8840  -32.8620 C.3    87  VAL87       0.0023
     34  CG2      -28.8570   16.1120  -31.7590 C.3    87  VAL87       0.0023
     35  N        -32.3900   13.5900  -33.1860 N.am   88  LEU88      -0.1977
     36  CA       -33.1160   12.3660  -33.5200 C.3    88  LEU88       0.1596
     37  C        -32.2170   11.3090  -34.1700 C.2    88  LEU88       0.2287
     38  O        -31.3840   11.6230  -35.0170 O.2    88  LEU88      -0.2864
     39  CB       -34.3120   12.6690  -34.4280 C.3    88  LEU88       0.0297
     40  CG       -35.5780   13.2620  -33.7910 C.3    88  LEU88       0.0022
     41  CD1      -36.6060   13.6360  -34.8540 C.3    88  LEU88       0.0001
     42  CD2      -36.1950   12.3130  -32.7680 C.3    88  LEU88       0.0001
     43  N        -32.1930   10.1410  -38.1100 N.3    91  SER91      -0.1202
     44  CA       -32.5160   11.5500  -38.2920 C.3    91  SER91       0.2020
     45  C        -33.1900   11.8690  -39.6200 C.2    91  SER91       0.2618
     46  O        -33.7090   12.9710  -39.7960 O.2    91  SER91      -0.2717
     47  CB       -31.2530   12.4020  -38.1520 C.3    91  SER91       0.2103
     48  OG       -30.2580   11.9680  -39.0610 O.3    91  SER91      -0.2182
     49  N        -33.1920   10.9270  -40.5560 N.am   92  HIS92      -0.1975
     50  CA       -33.6980   11.2370  -41.8880 C.3    92  HIS92       0.1656
     51  C        -33.6290   10.0320  -42.8270 C.2    92  HIS92       0.2291
     52  O        -32.8370    9.1100  -42.6220 O.2    92  HIS92      -0.2864
     53  CB       -32.8770   12.3790  -42.4840 C.3    92  HIS92       0.0771
     54  CG       -31.4550   12.0030  -42.7430 C.ar   92  HIS92       0.0820
     55  ND1      -30.5380   11.8210  -41.7270 N.ar   92  HIS92      -0.2267
     56  CD2      -30.7990   11.7360  -43.8950 C.ar   92  HIS92       0.1154
     57  CE1      -29.3730   11.4760  -42.2440 C.ar   92  HIS92       0.1986
     58  NE2      -29.5050   11.4140  -43.5570 N.ar   92  HIS92      -0.2212
     59  N        -29.0540   16.6460  -24.6860 N.3   109  ARG109     -0.1245
     60  CA       -27.8590   16.8740  -23.8730 C.3   109  ARG109      0.1563
     61  C        -27.9510   18.2240  -23.1720 C.2   109  ARG109      0.2260
     62  O        -28.2550   19.2400  -23.8030 O.2   109  ARG109     -0.2867
     63  CB       -26.5890   16.7690  -24.7170 C.3   109  ARG109      0.0307
     64  CG       -26.3370   15.3640  -25.2530 C.3   109  ARG109      0.0489
     65  CD       -25.0480   15.2810  -26.0420 C.3   109  ARG109      0.2205
     66  NE       -24.9760   16.3190  -27.0620 N.pl3 109  ARG109     -0.0865
     67  CZ       -23.8950   16.5650  -27.7920 C.cat 109  ARG109      0.5346
     68  NH1      -22.7950   15.8490  -27.6050 N.pl3 109  ARG109      0.1354
     69  NH2      -23.9120   17.5270  -28.7060 N.pl3 109  ARG109      0.1354
     70  N        -35.8400   22.9600  -26.6490 N.3   169  LYS169     -0.1231
     71  CA       -35.3120   22.7370  -27.9880 C.3   169  LYS169      0.1693
     72  C        -35.9910   21.5100  -28.5690 C.2   169  LYS169      0.2592
     73  O        -36.3630   20.6000  -27.8350 O.2   169  LYS169     -0.2718
     74  CB       -33.7960   22.5290  -27.9480 C.3   169  LYS169      0.0285
     75  CG       -32.9940   23.8030  -27.6960 C.3   169  LYS169      0.0035
     76  CD       -31.5110   23.4890  -27.5050 C.3   169  LYS169      0.0206
     77  CE       -30.6290   24.6510  -27.9370 C.3   169  LYS169      0.1093
     78  NZ       -30.5490   24.7460  -29.4370 N.3   169  LYS169     -0.1314
     79  N        -36.1640   21.4800  -29.8830 N.am  170  LYS170     -0.1966
     80  CA       -36.7640   20.3110  -30.5080 C.3   170  LYS170      0.1728
     81  C        -36.0930   19.9180  -31.8160 C.2   170  LYS170      0.2616
     82  O        -35.2920   20.6590  -32.3670 O.2   170  LYS170     -0.2715
     83  CB       -38.2650   20.5150  -30.7100 C.3   170  LYS170      0.0311
     84  CG       -38.6550   21.8670  -31.2550 C.3   170  LYS170      0.0038
     85  CD       -40.0740   22.2180  -30.8150 C.3   170  LYS170      0.0206
     86  CE       -40.5310   23.5490  -31.3920 C.3   170  LYS170      0.1093
     87  NZ       -40.5380   23.5320  -32.8830 N.3   170  LYS170     -0.1314
     88  N        -36.4170   18.7280  -32.2950 N.am  171  ASN171     -0.1958
     89  CA       -35.9440   18.2870  -33.5890 C.3   171  ASN171      0.1819
     90  C        -37.0310   17.4450  -34.2290 C.2   171  ASN171      0.2622
     91  O        -37.9880   17.0410  -33.5540 O.2   171  ASN171     -0.2715
     92  CB       -34.6410   17.5000  -33.4540 C.3   171  ASN171      0.1195
     93  CG       -33.6100   17.8990  -34.4920 C.2   171  ASN171      0.2630
     94  OD1      -33.9290   18.0750  -35.6690 O.2   171  ASN171     -0.2716
     95  ND2      -32.3610   18.0430  -34.0560 N.am  171  ASN171     -0.0877
     96  N        -36.8960   17.1910  -35.5270 N.am  172  SER172     -0.1950
     97  CA       -37.9150   16.4380  -36.2420 C.3   172  SER172      0.1924
     98  C        -37.3510   15.6640  -37.4220 C.2   172  SER172      0.2314
     99  O        -36.1840   15.8160  -37.7910 O.2   172  SER172     -0.2863
    100  CB       -39.0180   17.3730  -36.7200 C.3   172  SER172      0.2116
    101  OG       -38.4950   18.3150  -37.6340 O.3   172  SER172     -0.2180
@<TRIPOS>BOND
     1    56    58   ar
     2    56    54   ar
     3    58    57   ar
     4    51    52    2
     5    51    50    1
     6    54    53    1
     7    54    55   ar
     8    53    50    1
     9    57    55   ar
    10    50    49    1
    11    49    45   am
    12    46    45    2
    13    45    44    1
    14    48    47    1
    15    44    47    1
    16    44    43    1
    17    99    98    2
    18   101   100    1
    19    98    97    1
    20   100    97    1
    21    97    96    1
    22    94    93    2
    23    96    90   am
    24    38    37    2
    25    41    40    1
    26    93    95   am
    27    93    92    1
    28    39    40    1
    29    39    36    1
    30    90    89    1
    31    90    91    2
    32    37    36    1
    33    40    42    1
    34    89    92    1
    35    89    88    1
    36    36    35    1
    37    35    30   am
    38    87    86    1
    39    33    32    1
    40    82    81    2
    41    88    81   am
    42    30    29    1
    43    30    31    2
    44    81    80    1
    45    34    32    1
    46    29    32    1
    47    29    28    1
    48    24    23    2
    49    86    85    1
    50    84    85    1
    51    84    83    1
    52    83    80    1
    53    28    23   am
    54    23    22    1
    55    80    79    1
    56    79    72   am
    57    19    18   ar
    58    78    77    1
    59    17    18    1
    60    17    14    1
    61    26    25    1
    62    22    21    1
    63    22    25    1
    64    21    15   am
    65    18    20   ar
    66    25    27    1
    67    69    67    1
    68    72    71    1
    69    72    73    2
    70    14    15    1
    71    14    13    1
    72    15    16    2
    73    71    74    1
    74    71    70    1
    75    74    75    1
    76    77    76    1
    77     4     3    2
    78    67    68    1
    79    67    66    2
    80    75    76    1
    81    13     3   am
    82    66    65    1
    83     3     2    1
    84    65    64    1
    85     2     5    1
    86     2     1    1
    87     5     6    1
    88    64    63    1
    89    63    60    1
    90    59    60    1
    91     6     8   ar
    92     6     7   ar
    93    60    61    1
    94     8    10   ar
    95    62    61    2
    96     7     9   ar
    97    10    11   ar
    98     9    11   ar
    99    11    12    1
