@<TRIPOS>MOLECULE
tmp/2x21A05.pdb
 168 160 0 0 0
SMALL
GASTEIGER

@<TRIPOS>ATOM
      1  N         -2.2980    7.3750   -0.1160 N.3    29  PHE29      -0.1227
      2  CA        -0.9870    6.9990   -0.7220 C.3    29  PHE29       0.1736
      3  C         -0.6640    5.5080   -0.5890 C.2    29  PHE29       0.2595
      4  O          0.2830    4.9910   -1.2400 O.2    29  PHE29      -0.2718
      5  CB         0.1380    7.9010   -0.2150 C.3    29  PHE29       0.0547
      6  CG        -0.1280    9.3660   -0.4190 C.ar   29  PHE29      -0.0202
      7  CD1       -0.3530    9.8900   -1.7370 C.ar   29  PHE29      -0.0042
      8  CD2       -0.2940   10.2290    0.7060 C.ar   29  PHE29      -0.0042
      9  CE1       -0.6800   11.3010   -1.8650 C.ar   29  PHE29      -0.0003
     10  CE2       -0.5440   11.5910    0.5450 C.ar   29  PHE29      -0.0003
     11  CZ        -0.7630   12.1290   -0.7300 C.ar   29  PHE29      -0.0000
     12  N         -1.4460    4.8070    0.2410 N.am   30  LEU30      -0.1966
     13  CA        -1.2320    3.3940    0.3370 C.3    30  LEU30       0.1728
     14  C         -2.0280    2.6890   -0.8070 C.2    30  LEU30       0.2616
     15  O         -1.7010    1.5210   -1.1750 O.2    30  LEU30      -0.2715
     16  CB        -1.7360    2.9090    1.7060 C.3    30  LEU30       0.0311
     17  CG        -1.2450    1.5050    2.1270 C.3    30  LEU30       0.0022
     18  CD1        0.2800    1.3020    1.9660 C.3    30  LEU30       0.0001
     19  CD2       -1.6030    1.2050    3.5890 C.3    30  LEU30       0.0001
     20  N         -2.9700    3.4010   -1.4310 N.am   31  GLN31      -0.1977
     21  CA        -3.8250    2.8140   -2.4700 C.3    31  GLN31       0.1601
     22  C         -3.0400    2.7240   -3.8030 C.2    31  GLN31       0.2287
     23  O         -2.1320    3.5350   -4.0520 O.2    31  GLN31      -0.2864
     24  CB        -5.0750    3.6210   -2.6960 C.3    31  GLN31       0.0394
     25  CG        -6.0330    3.4450   -1.5880 C.3    31  GLN31       0.0908
     26  CD        -7.2040    4.3560   -1.7780 C.2    31  GLN31       0.2608
     27  OE1       -7.6080    4.6660   -2.9150 O.2    31  GLN31      -0.2717
     28  NE2       -7.7610    4.8260   -0.6720 N.am   31  GLN31      -0.0878
     29  N         -2.4000    3.5080   -7.6130 N.3    33  PRO33      -0.2116
     30  CA        -2.8240    4.7270   -8.2850 C.3    33  PRO33       0.1372
     31  C         -3.8200    4.4020   -9.4460 C.2    33  PRO33       0.2244
     32  O         -3.5170    4.6330  -10.5960 O.2    33  PRO33      -0.2868
     33  CB        -1.4620    5.3340   -8.7400 C.3    33  PRO33       0.0268
     34  CG        -0.6580    4.1520   -9.1460 C.3    33  PRO33       0.0207
     35  CD        -1.0430    3.0920   -8.0290 C.3    33  PRO33       0.0892
     36  N          2.4170   -4.3610  -11.7240 N.3    41  ALA41      -0.1245
     37  CA         3.0480   -3.6750  -10.6330 C.3    41  ALA41       0.1562
     38  C          4.3390   -4.4400  -10.2820 C.2    41  ALA41       0.2260
     39  O          5.3820   -3.8310  -10.0010 O.2    41  ALA41      -0.2867
     40  CB         2.1590   -3.5620   -9.3780 C.3    41  ALA41       0.0290
     41  N          7.1040   -3.1880  -12.4230 N.3    44  ALA44      -0.1231
     42  CA         7.5760   -1.8190  -12.0500 C.3    44  ALA44       0.1694
     43  C          8.4730   -1.9970  -10.8300 C.2    44  ALA44       0.2591
     44  O          9.5800   -1.4650  -10.7710 O.2    44  ALA44      -0.2718
     45  CB         6.4230   -0.9460  -11.6630 C.3    44  ALA44       0.0304
     46  N          8.0710   -2.8670   -9.8780 N.am   45  ILE45      -0.1980
     47  CA         8.9620   -3.0720   -8.7260 C.3    45  ILE45       0.1595
     48  C         10.2700   -3.7440   -9.1530 C.2    45  ILE45       0.2287
     49  O         11.3410   -3.4080   -8.5920 O.2    45  ILE45      -0.2864
     50  CB         8.2640   -3.9350   -7.5820 C.3    45  ILE45       0.0276
     51  CG1        6.9620   -3.2750   -7.0770 C.3    45  ILE45       0.0022
     52  CG2        9.3390   -4.2750   -6.4310 C.3    45  ILE45       0.0022
     53  CD1        7.1000   -1.8750   -6.6020 C.3    45  ILE45       0.0001
     54  N         12.6080   -1.1340  -10.2010 N.3    48  MET48      -0.1245
     55  CA        13.1920   -0.3930   -9.1050 C.3    48  MET48       0.1570
     56  C         14.2340   -1.2430   -8.3980 C.2    48  MET48       0.2261
     57  O         15.2790   -0.6590   -8.0180 O.2    48  MET48      -0.2867
     58  CB        12.1170    0.0390   -8.0680 C.3    48  MET48       0.0387
     59  CG        11.0910    0.9870   -8.7380 C.3    48  MET48       0.0595
     60  SD         9.6530    0.9930   -7.5560 S.3    48  MET48      -0.1393
     61  CE         8.2570    1.5070   -8.5450 C.3    48  MET48       0.0692
     62  N         11.9970    2.6410  -14.6650 N.3   108  VAL108     -0.1231
     63  CA        11.0500    2.7820  -13.5100 C.3   108  VAL108      0.1692
     64  C          9.9240    3.7250  -13.8870 C.2   108  VAL108      0.2592
     65  O          8.7720    3.4240  -13.6780 O.2   108  VAL108     -0.2718
     66  CB        11.7730    3.3490  -12.2960 C.3   108  VAL108      0.0266
     67  CG1       10.7940    3.6590  -11.1520 C.3   108  VAL108      0.0020
     68  CG2       12.8960    2.2320  -11.8670 C.3   108  VAL108      0.0020
     69  N         10.2680    4.8560  -14.5050 N.am  109  TYR109     -0.1976
     70  CA         9.2000    5.8620  -14.8370 C.3   109  TYR109      0.1639
     71  C          8.1430    5.2900  -15.7860 C.2   109  TYR109      0.2290
     72  O          6.9070    5.3930  -15.4900 O.2   109  TYR109     -0.2864
     73  CB         9.8950    7.0050  -15.4670 C.3   109  TYR109      0.0560
     74  CG         9.0300    8.1020  -15.9510 C.ar  109  TYR109     -0.0198
     75  CD1        8.4270    8.9330  -15.0620 C.ar  109  TYR109     -0.0009
     76  CD2        8.8380    8.2780  -17.3290 C.ar  109  TYR109     -0.0009
     77  CE1        7.5680   10.0060  -15.5510 C.ar  109  TYR109      0.0417
     78  CE2        8.0480    9.3100  -17.8170 C.ar  109  TYR109      0.0417
     79  CZ         7.4350   10.1440  -16.9250 C.ar  109  TYR109      0.1957
     80  OH         6.6340   11.1550  -17.4010 O.3   109  TYR109     -0.2866
     81  N          6.0110    2.4700  -14.0390 N.3   112  VAL112     -0.1231
     82  CA         5.0320    2.9920  -13.1040 C.3   112  VAL112      0.1692
     83  C          3.8930    3.7210  -13.8670 C.2   112  VAL112      0.2592
     84  O          2.6800    3.6300  -13.5260 O.2   112  VAL112     -0.2718
     85  CB         5.7170    3.9820  -12.0330 C.3   112  VAL112      0.0266
     86  CG1        4.6180    4.6770  -11.1530 C.3   112  VAL112      0.0020
     87  CG2        6.6990    3.1130  -11.0500 C.3   112  VAL112      0.0020
     88  N          4.2810    4.4630  -14.9010 N.am  113  SER113     -0.1952
     89  CA         3.2510    5.1740  -15.6600 C.3   113  SER113      0.1924
     90  C          2.2260    4.1370  -16.1900 C.2   113  SER113      0.2314
     91  O          0.9940    4.4170  -16.2950 O.2   113  SER113     -0.2863
     92  CB         3.9520    5.8800  -16.8240 C.3   113  SER113      0.2116
     93  OG         2.9810    6.5030  -17.6930 O.3   113  SER113     -0.2180
     94  N          0.8650    1.6300  -14.7650 N.3   115  ILE115     -0.1231
     95  CA        -0.1130    1.2950  -13.8020 C.3   115  ILE115      0.1692
     96  C         -0.8310    2.5020  -13.1770 C.2   115  ILE115      0.2592
     97  O         -1.7310    2.2860  -12.3320 O.2   115  ILE115     -0.2718
     98  CB         0.4060    0.3660  -12.6720 C.3   115  ILE115      0.0266
     99  CG1        1.4260    1.1010  -11.8010 C.3   115  ILE115      0.0019
    100  CG2        1.0870   -0.8780  -13.3240 C.3   115  ILE115      0.0020
    101  CD1        1.7350    0.3750  -10.4460 C.3   115  ILE115      0.0001
    102  N         -0.4890    3.7240  -13.6110 N.am  116  THR116     -0.1953
    103  CA        -1.0710    4.9500  -13.0140 C.3   116  THR116      0.1897
    104  C         -2.2670    5.4130  -13.8950 C.2   116  THR116      0.2313
    105  O         -2.0990    5.7590  -15.0920 O.2   116  THR116     -0.2863
    106  CB        -0.0300    6.0170  -12.9550 C.3   116  THR116      0.1794
    107  OG1        1.0230    5.5140  -12.0960 O.3   116  THR116     -0.2208
    108  CG2       -0.6080    7.3080  -12.3000 C.3   116  THR116      0.0378
    109  N         -5.0970   10.2990  -12.0510 N.3   120  VAL120     -0.1231
    110  CA        -4.3870   10.4170  -10.7260 C.3   120  VAL120      0.1678
    111  C         -3.5930   11.7900  -10.6380 C.2   120  VAL120      0.2434
    112  O         -3.7560   12.5030   -9.6350 O.2   120  VAL120     -0.2733
    113  CB        -3.5510    9.1820  -10.4540 C.3   120  VAL120      0.0265
    114  CG1       -2.5340    9.4940   -9.2990 C.3   120  VAL120      0.0020
    115  CG2       -4.4740    8.0010  -10.0700 C.3   120  VAL120      0.0020
    116  N         -2.8130   12.2080  -11.6680 N.am  121  PRO121     -0.2729
    117  CA        -2.1070   13.4710  -11.4760 C.3   121  PRO121      0.1401
    118  C         -3.0270   14.6620  -11.2550 C.2   121  PRO121      0.2269
    119  O         -2.7890   15.5030  -10.3470 O.2   121  PRO121     -0.2865
    120  CB        -1.3290   13.6780  -12.8130 C.3   121  PRO121      0.0296
    121  CG        -1.0500   12.2230  -13.2430 C.3   121  PRO121      0.0237
    122  CD        -2.3280   11.4820  -12.8810 C.3   121  PRO121      0.0939
    123  N         -4.4830   14.6130   -7.6490 N.3   124  MET124     -0.1245
    124  CA        -3.4600   15.1020   -6.6740 C.3   124  MET124      0.1570
    125  C         -3.2820   16.6370   -6.7430 C.2   124  MET124      0.2261
    126  O         -3.2320   17.3110   -5.7010 O.2   124  MET124     -0.2867
    127  CB        -2.1310   14.4310   -6.9820 C.3   124  MET124      0.0387
    128  CG        -2.0710   12.9080   -6.4780 C.3   124  MET124      0.0595
    129  SD        -2.0910   12.7640   -4.6950 S.3   124  MET124     -0.1393
    130  CE        -3.7290   12.2650   -4.6160 C.3   124  MET124      0.0692
    131  N          2.5960   23.7610  -10.2860 N.3   134  GLU134     -0.1245
    132  CA         3.3100   24.0800  -11.5430 C.3   134  GLU134      0.1567
    133  C          4.7460   24.5690  -11.2970 C.2   134  GLU134      0.2260
    134  O          5.6680   24.1890  -12.0260 O.2   134  GLU134     -0.2867
    135  CB         2.5010   25.0480  -12.4380 C.3   134  GLU134      0.0388
    136  CG         1.2530   24.3140  -12.8670 C.3   134  GLU134      0.1160
    137  CD         0.2480   25.2190  -13.5150 C.2   134  GLU134      0.3649
    138  OE1        0.5940   26.3850  -13.7930 O.co2 134  GLU134     -0.2457
    139  OE2       -0.8490   24.7220  -13.7330 O.co2 134  GLU134     -0.2457
    140  N          6.9730   21.6960  -10.2980 N.3   137  TYR137     -0.1227
    141  CA         7.3750   20.8950  -11.4590 C.3   137  TYR137      0.1736
    142  C          8.3910   21.6210  -12.3080 C.2   137  TYR137      0.2595
    143  O          9.3140   20.9730  -12.8760 O.2   137  TYR137     -0.2718
    144  CB         6.1130   20.4780  -12.2750 C.3   137  TYR137      0.0548
    145  CG         6.4060   19.6210  -13.4530 C.ar  137  TYR137     -0.0200
    146  CD1        6.9160   18.3090  -13.2910 C.ar  137  TYR137     -0.0009
    147  CD2        6.2610   20.1350  -14.7960 C.ar  137  TYR137     -0.0009
    148  CE1        7.1680   17.4980  -14.4680 C.ar  137  TYR137      0.0417
    149  CE2        6.4930   19.3070  -15.8900 C.ar  137  TYR137      0.0417
    150  CZ         7.0070   18.0710  -15.7350 C.ar  137  TYR137      0.1957
    151  OH         7.2760   17.3120  -16.9010 O.3   137  TYR137     -0.2866
    152  N          8.1950   22.9280  -12.5350 N.am  138  GLU138     -0.1979
    153  CA         9.2360   23.6530  -13.3220 C.3   138  GLU138      0.1602
    154  C         10.5800   23.5820  -12.5660 C.2   138  GLU138      0.2287
    155  O         11.6490   23.4550  -13.1720 O.2   138  GLU138     -0.2864
    156  CB         8.7660   25.1080  -13.5370 C.3   138  GLU138      0.0415
    157  CG         7.5770   25.0970  -14.6380 C.3   138  GLU138      0.1163
    158  CD         6.6230   26.2720  -14.5700 C.2   138  GLU138      0.3649
    159  OE1        7.0880   27.3510  -14.0980 O.co2 138  GLU138     -0.2457
    160  OE2        5.4200   26.1290  -15.0120 O.co2 138  GLU138     -0.2457
    161  N         12.1350   20.2950  -13.3160 N.3   141  LEU141     -0.1245
    162  CA        12.7940   20.2250  -14.6540 C.3   141  LEU141      0.1561
    163  C         14.1950   20.8250  -14.6570 C.2   141  LEU141      0.2260
    164  O         15.1230   20.2490  -15.2700 O.2   141  LEU141     -0.2867
    165  CB        11.9200   20.9940  -15.7160 C.3   141  LEU141      0.0270
    166  CG        10.5800   20.2580  -15.9080 C.3   141  LEU141      0.0019
    167  CD1        9.8110   21.0700  -16.8800 C.3   141  LEU141      0.0001
    168  CD2       10.6670   18.8130  -16.5130 C.3   141  LEU141      0.0001
@<TRIPOS>BOND
     1    78    76   ar
     2    78    79   ar
     3    93    92    1
     4    80    79    1
     5    76    74   ar
     6    79    77   ar
     7   151   150    1
     8   167   166    1
     9    92    89    1
    10   168   166    1
    11    91    90    2
    12    90    89    1
    13    74    73    1
    14    74    75   ar
    15   166   165    1
    16   149   150   ar
    17   149   147   ar
    18    71    72    2
    19    71    70    1
    20   150   148   ar
    21   165   162    1
    22    89    88    1
    23    77    75   ar
    24    73    70    1
    25   164   163    2
    26   105   104    2
    27   160   158   ar
    28    88    83   am
    29    70    69    1
    30   147   145   ar
    31    94    95    1
    32    62    63    1
    33   163   162    1
    34   162   161    1
    35   157   158    1
    36   157   156    1
    37   158   159   ar
    38    69    64   am
    39   148   146   ar
    40    81    82    1
    41   104   103    1
    42    64    65    2
    43    64    63    1
    44    83    84    2
    45    83    82    1
    46    95    96    1
    47    95    98    1
    48   138   137   ar
    49   139   137   ar
    50   102    96   am
    51   102   103    1
    52   156   153    1
    53   137   136    1
    54    63    66    1
    55   145   146   ar
    56   145   144    1
    57   100    98    1
    58   153   154    1
    59   153   152    1
    60   121   122    1
    61   121   120    1
    62    96    97    2
    63   155   154    2
    64    82    85    1
    65   103   106    1
    66   106   108    1
    67   106   107    1
    68   122   116    1
    69   143   142    2
    70   136   135    1
    71   120   117    1
    72    98    99    1
    73   152   142   am
    74   135   132    1
    75    41    42    1
    76   142   141    1
    77    66    68    1
    78    66    67    1
    79   144   141    1
    80   109   110    1
    81    42    45    1
    82    42    43    1
    83    85    86    1
    84    85    87    1
    85   134   133    2
    86    99   101    1
    87    36    37    1
    88   116   117    1
    89   116   111   am
    90   132   133    1
    91   132   131    1
    92   117   118    1
    93   141   140    1
    94   118   119    2
    95    43    44    2
    96    43    46   am
    97   110   111    1
    98   110   113    1
    99   111   112    2
   100    37    38    1
   101    37    40    1
   102    32    31    2
   103   113   115    1
   104   113   114    1
   105    38    39    2
   106    54    55    1
   107    46    47    1
   108    31    30    1
   109    48    47    1
   110    48    49    2
   111    34    33    1
   112    34    35    1
   113    55    56    1
   114    55    58    1
   115    33    30    1
   116    59    58    1
   117    59    60    1
   118    47    50    1
   119    61    60    1
   120    56    57    2
   121    30    29    1
   122    35    29    1
   123   123   124    1
   124    50    51    1
   125    50    52    1
   126    51    53    1
   127   127   124    1
   128   127   128    1
   129   125   124    1
   130   125   126    2
   131   128   129    1
   132   129   130    1
   133    23    22    2
   134    22    21    1
   135    27    26    2
   136    24    21    1
   137    24    25    1
   138    21    20    1
   139     9     7   ar
   140     9    11   ar
   141    26    25    1
   142    26    28   am
   143     7     6   ar
   144    20    14   am
   145     4     3    2
   146    15    14    2
   147    14    13    1
   148    11    10   ar
   149     2     3    1
   150     2     5    1
   151     2     1    1
   152     3    12   am
   153     6     5    1
   154     6     8   ar
   155    12    13    1
   156    13    16    1
   157    10     8   ar
   158    16    17    1
   159    18    17    1
   160    17    19    1
