@<TRIPOS>MOLECULE
tmp/2x24B01.pdb
 110 105 0 0 0
SMALL
GASTEIGER

@<TRIPOS>ATOM
      1  N         19.7400    7.7990   69.2200 N.3   425  ALA425     -0.1245
      2  CA        20.6830    7.1280   70.1130 C.3   425  ALA425      0.1562
      3  C         22.1270    7.4320   69.7100 C.2   425  ALA425      0.2260
      4  O         22.4980    7.3150   68.5280 O.2   425  ALA425     -0.2867
      5  CB        20.4410    5.6320   70.0810 C.3   425  ALA425      0.0290
      6  N         25.4720    5.6390   67.1310 N.3   428  VAL428     -0.1245
      7  CA        24.7690    4.9120   66.0740 C.3   428  VAL428      0.1561
      8  C         24.7610    5.7660   64.8320 C.2   428  VAL428      0.2260
      9  O         24.5130    6.9530   64.9220 O.2   428  VAL428     -0.2867
     10  CB        23.3300    4.4460   66.4830 C.3   428  VAL428      0.0252
     11  CG1       22.6590    3.6450   65.3700 C.3   428  VAL428      0.0019
     12  CG2       23.3530    3.6150   67.7670 C.3   428  VAL428      0.0019
     13  N         22.8050    6.6700   61.6420 N.3   430  PHE430     -0.1241
     14  CA        21.4160    6.6990   61.1100 C.3   430  PHE430      0.1605
     15  C         21.5050    7.0690   59.6150 C.2   430  PHE430      0.2264
     16  O         22.5870    7.4510   59.1690 O.2   430  PHE430     -0.2867
     17  CB        20.5540    7.7510   61.8680 C.3   430  PHE430      0.0534
     18  CG        20.1670    7.3490   63.2790 C.ar  430  PHE430     -0.0203
     19  CD1       19.0670    6.5300   63.5120 C.ar  430  PHE430     -0.0042
     20  CD2       20.9320    7.7540   64.3720 C.ar  430  PHE430     -0.0042
     21  CE1       18.7390    6.1260   64.8110 C.ar  430  PHE430     -0.0003
     22  CE2       20.5810    7.3740   65.6760 C.ar  430  PHE430     -0.0003
     23  CZ        19.5010    6.5420   65.8810 C.ar  430  PHE430     -0.0000
     24  N         28.2930    1.7990   67.8920 N.3   458  ARG458     -0.1231
     25  CA        27.7480    0.4850   68.2530 C.3   458  ARG458      0.1694
     26  C         27.3740   -0.2570   66.9590 C.2   458  ARG458      0.2593
     27  O         27.2160   -1.4740   66.9680 O.2   458  ARG458     -0.2718
     28  CB        26.5280    0.6210   69.1790 C.3   458  ARG458      0.0321
     29  CG        26.8260    1.3700   70.4800 C.3   458  ARG458      0.0489
     30  CD        25.5680    1.8200   71.1930 C.3   458  ARG458      0.2205
     31  NE        25.0470    0.7660   72.0760 N.pl3 458  ARG458     -0.0865
     32  CZ        23.9350    0.0690   71.8570 C.cat 458  ARG458      0.5346
     33  NH1       23.1990    0.3020   70.7840 N.pl3 458  ARG458      0.1354
     34  NH2       23.5510   -0.8620   72.7140 N.pl3 458  ARG458      0.1354
     35  N         27.2790    0.4920   65.8620 N.am  459  GLY459     -0.1942
     36  CA        26.9180    0.0100   64.5370 C.3   459  GLY459      0.2014
     37  C         25.8970    0.9350   63.9120 C.2   459  GLY459      0.2639
     38  O         25.7110    2.0520   64.3890 O.2   459  GLY459     -0.2714
     39  N         25.2690    0.5000   62.8110 N.am  460  PHE460     -0.1959
     40  CA        24.2450    1.2730   62.1020 C.3   460  PHE460      0.1771
     41  C         22.8620    0.9490   62.6780 C.2   460  PHE460      0.2620
     42  O         22.6660   -0.1300   63.2470 O.2   460  PHE460     -0.2715
     43  CB        24.2370    0.9170   60.6070 C.3   460  PHE460      0.0574
     44  CG        25.4460    1.3350   59.8130 C.ar  460  PHE460     -0.0200
     45  CD1       26.5520    0.4950   59.7040 C.ar  460  PHE460     -0.0042
     46  CD2       25.4630    2.5470   59.1280 C.ar  460  PHE460     -0.0042
     47  CE1       27.6740    0.8840   58.9660 C.ar  460  PHE460     -0.0003
     48  CE2       26.5970    2.9490   58.4180 C.ar  460  PHE460     -0.0003
     49  CZ        27.6840    2.1000   58.3120 C.ar  460  PHE460     -0.0000
     50  N         21.8860    1.8600   62.4750 N.am  461  SER461     -0.1936
     51  CA        20.5120    1.6440   62.9380 C.3   461  SER461      0.2055
     52  C         19.8630    0.5490   62.0870 C.2   461  SER461      0.2644
     53  O         19.9510    0.5840   60.8690 O.2   461  SER461     -0.2714
     54  CB        19.7120    2.9370   62.9010 C.3   461  SER461      0.2130
     55  OG        19.6650    3.4370   61.5730 O.3   461  SER461     -0.2179
     56  N         19.3050   -0.4570   62.7420 N.am  462  GLY462     -0.1939
     57  CA        18.6890   -1.5970   62.0680 C.3   462  GLY462      0.2014
     58  C         17.1780   -1.6240   62.0380 C.2   462  GLY462      0.2639
     59  O         16.6090   -2.5520   61.4780 O.2   462  GLY462     -0.2714
     60  N         16.5340   -0.6440   62.6660 N.am  463  GLY463     -0.1954
     61  CA        15.0750   -0.5190   62.7080 C.3   463  GLY463      0.1869
     62  C         14.4200   -0.4030   61.3410 C.2   463  GLY463      0.2309
     63  O         15.0650   -0.0100   60.3590 O.2   463  GLY463     -0.2863
     64  N         29.9450   -8.4160   68.0460 N.3   529  LEU529     -0.1231
     65  CA        28.7630   -8.1380   68.8560 C.3   529  LEU529      0.1693
     66  C         29.1580   -7.5910   70.2220 C.2   529  LEU529      0.2591
     67  O         30.2820   -7.8060   70.6720 O.2   529  LEU529     -0.2718
     68  CB        27.9550   -9.4400   69.0870 C.3   529  LEU529      0.0284
     69  CG        27.4270  -10.2310   67.8950 C.3   529  LEU529      0.0019
     70  CD1       26.5460  -11.3540   68.3690 C.3   529  LEU529      0.0001
     71  CD2       26.6320   -9.3310   66.9060 C.3   529  LEU529      0.0001
     72  N         28.2150   -6.9360   70.9040 N.am  530  GLU530     -0.1979
     73  CA        28.3900   -6.4360   72.2620 C.3   530  GLU530      0.1602
     74  C         28.4490   -7.6680   73.1910 C.2   530  GLU530      0.2287
     75  O         27.8990   -8.7060   72.7900 O.2   530  GLU530     -0.2864
     76  CB        27.2110   -5.5090   72.6460 C.3   530  GLU530      0.0415
     77  CG        27.3810   -4.0780   72.1430 C.3   530  GLU530      0.1163
     78  CD        26.1970   -3.1450   72.3140 C.2   530  GLU530      0.3649
     79  OE1       25.5060   -3.2320   73.3550 O.co2 530  GLU530     -0.2457
     80  OE2       25.9800   -2.3010   71.4140 O.co2 530  GLU530     -0.2457
     81  N         26.7900   -8.8880   75.6480 N.3   532  GLU532     -0.1231
     82  CA        25.4060   -9.3360   75.7680 C.3   532  GLU532      0.1699
     83  C         24.9520  -10.1340   74.5460 C.2   532  GLU532      0.2592
     84  O         24.1840  -11.0870   74.6860 O.2   532  GLU532     -0.2718
     85  CB        24.5070   -8.1200   75.9910 C.3   532  GLU532      0.0402
     86  CG        24.8890   -7.2470   77.1850 C.3   532  GLU532      0.1161
     87  CD        26.0160   -6.2410   77.0120 C.2   532  GLU532      0.3649
     88  OE1       26.5380   -6.1030   75.8830 O.co2 532  GLU532     -0.2457
     89  OE2       26.3730   -5.5810   78.0140 O.co2 532  GLU532     -0.2457
     90  N         25.4470   -9.7530   73.3650 N.am  533  GLY533     -0.1957
     91  CA        25.1490  -10.4300   72.1060 C.3   533  GLY533      0.1869
     92  C         25.9230  -11.7250   71.9920 C.2   533  GLY533      0.2309
     93  O         25.3480  -12.7630   71.6540 O.2   533  GLY533     -0.2863
     94  N         24.5610  -14.2250   74.3210 N.3   536  GLU536     -0.1231
     95  CA        23.2420  -14.6860   73.8650 C.3   536  GLU536      0.1699
     96  C         23.2780  -15.8560   72.8990 C.2   536  GLU536      0.2592
     97  O         22.3680  -16.6850   72.9240 O.2   536  GLU536     -0.2718
     98  CB        22.4330  -13.5380   73.2540 C.3   536  GLU536      0.0402
     99  CG        21.1850  -13.1730   74.0500 C.3   536  GLU536      0.1161
    100  CD        19.9970  -14.1200   73.9950 C.2   536  GLU536      0.3649
    101  OE1       19.9340  -14.9800   73.0850 O.co2 536  GLU536     -0.2457
    102  OE2       19.0910  -13.9540   74.8420 O.co2 536  GLU536     -0.2457
    103  N         24.2920  -15.9080   72.0220 N.am  537  ILE537     -0.1980
    104  CA        24.4360  -16.9620   71.0140 C.3   537  ILE537      0.1595
    105  C         25.4560  -18.0190   71.4360 C.2   537  ILE537      0.2287
    106  O         25.1810  -19.2070   71.2990 O.2   537  ILE537     -0.2864
    107  CB        24.7900  -16.3440   69.6180 C.3   537  ILE537      0.0276
    108  CG1       23.6510  -15.4530   69.0900 C.3   537  ILE537      0.0022
    109  CG2       25.1690  -17.4220   68.5670 C.3   537  ILE537      0.0022
    110  CD1       24.1280  -14.1530   68.4990 C.3   537  ILE537      0.0001
@<TRIPOS>BOND
     1    49    48   ar
     2    49    47   ar
     3    48    46   ar
     4    47    45   ar
     5    46    44   ar
     6    16    15    2
     7    15    14    1
     8    45    44   ar
     9    44    43    1
    10    63    62    2
    11    43    40    1
    12    53    52    2
    13    14    13    1
    14    14    17    1
    15    62    61    1
    16    59    58    2
    17    55    54    1
    18    17    18    1
    19    58    57    1
    20    58    60   am
    21    57    56    1
    22    52    56   am
    23    52    51    1
    24    40    41    1
    25    40    39    1
    26    50    41   am
    27    50    51    1
    28    60    61    1
    29    41    42    2
    30    39    37   am
    31    54    51    1
    32    18    19   ar
    33    18    20   ar
    34    19    21   ar
    35    37    38    2
    36    37    36    1
    37    20    22   ar
    38    36    35    1
    39    21    23   ar
    40     8     9    2
    41     8     7    1
    42    11    10    1
    43    22    23   ar
    44    35    26   am
    45     7    10    1
    46     7     6    1
    47    10    12    1
    48    71    69    1
    49    26    27    2
    50    26    25    1
    51    24    25    1
    52    69    70    1
    53    69    68    1
    54    64    65    1
    55    25    28    1
    56   110   108    1
    57     4     3    2
    58   109   107    1
    59    65    68    1
    60    65    66    1
    61   108   107    1
    62    28    29    1
    63     1     2    1
    64   107   104    1
    65     3     2    1
    66     5     2    1
    67    66    67    2
    68    66    72   am
    69    29    30    1
    70    33    32    1
    71    72    73    1
    72   104   105    1
    73   104   103    1
    74    30    31    1
    75   106   105    2
    76    80    78   ar
    77    93    92    2
    78    32    31    2
    79    32    34    1
    80    92    91    1
    81   103    96   am
    82    91    90    1
    83    77    78    1
    84    77    76    1
    85    73    76    1
    86    73    74    1
    87    78    79   ar
    88    75    74    2
    89    96    97    2
    90    96    95    1
    91   101   100   ar
    92    98    95    1
    93    98    99    1
    94    90    83   am
    95    95    94    1
    96   100    99    1
    97   100   102   ar
    98    83    84    2
    99    83    82    1
   100    81    82    1
   101    82    85    1
   102    88    87   ar
   103    85    86    1
   104    87    86    1
   105    87    89   ar
