@<TRIPOS>MOLECULE
tmp/2x24B00.pdb
 77 72 0 0 0
SMALL
GASTEIGER

@<TRIPOS>ATOM
      1  N         19.0510   36.1710   41.1430 N.3   131  SER131     -0.1217
      2  CA        17.6360   35.9400   40.8370 C.3   131  SER131      0.1889
      3  C         17.4130   34.7910   39.8290 C.2   131  SER131      0.2288
      4  O         16.3480   34.6910   39.2410 O.2   131  SER131     -0.2866
      5  CB        16.9780   37.2220   40.3370 C.3   131  SER131      0.2089
      6  OG        17.0370   38.2450   41.3140 O.3   131  SER131     -0.2183
      7  N         18.5520   31.8270   43.8660 N.3   236  LEU236     -0.1245
      8  CA        17.4290   31.3190   43.0860 C.3   236  LEU236      0.1561
      9  C         17.8340   30.4120   41.9180 C.2   236  LEU236      0.2260
     10  O         18.7850   30.7240   41.2080 O.2   236  LEU236     -0.2867
     11  CB        16.7120   32.5380   42.4860 C.3   236  LEU236      0.0270
     12  CG        15.3460   32.8940   43.0220 C.3   236  LEU236      0.0019
     13  CD1       15.4650   33.9310   44.1410 C.3   236  LEU236      0.0001
     14  CD2       14.4550   33.3890   41.9000 C.3   236  LEU236      0.0001
     15  N         14.4810   27.1330   45.0260 N.3   259  LEU259     -0.1231
     16  CA        14.3250   26.7700   43.6040 C.3   259  LEU259      0.1693
     17  C         13.1810   27.5460   42.9510 C.2   259  LEU259      0.2593
     18  O         13.2710   27.8940   41.7680 O.2   259  LEU259     -0.2718
     19  CB        14.1520   25.2660   43.3530 C.3   259  LEU259      0.0284
     20  CG        15.3060   24.3640   43.7140 C.3   259  LEU259      0.0019
     21  CD1       14.8610   22.9300   43.7390 C.3   259  LEU259      0.0001
     22  CD2       16.5100   24.5600   42.7660 C.3   259  LEU259      0.0001
     23  N         12.1000   27.7900   43.7220 N.am  260  THR260     -0.1939
     24  CA        10.8990   28.5440   43.3390 C.3   260  THR260      0.2028
     25  C         10.3470   29.3040   44.5720 C.2   260  THR260      0.2642
     26  O         10.1900   28.6950   45.6470 O.2   260  THR260     -0.2714
     27  CB         9.8390   27.5850   42.7780 C.3   260  THR260      0.1808
     28  OG1       10.4670   26.7020   41.8520 O.3   260  THR260     -0.2208
     29  CG2        8.6740   28.3210   42.1020 C.3   260  THR260      0.0379
     30  N         10.0190   30.5890   44.3830 N.am  261  GLY261     -0.1954
     31  CA         9.4440   31.4570   45.4090 C.3   261  GLY261      0.1869
     32  C          8.0820   31.0110   45.9380 C.2   261  GLY261      0.2309
     33  O          7.3500   30.2980   45.2490 O.2   261  GLY261     -0.2863
     34  N          5.2800   32.7090   46.4410 N.3   263  THR263     -0.1203
     35  CA         4.1890   33.2690   45.6530 C.3   263  THR263      0.1994
     36  C          3.8200   32.3600   44.4770 C.2   263  THR263      0.2618
     37  O          2.6420   31.9960   44.3310 O.2   263  THR263     -0.2717
     38  CB         4.4910   34.7350   45.3260 C.3   263  THR263      0.1784
     39  OG1        4.3490   35.4850   46.5350 O.3   263  THR263     -0.2211
     40  CG2        3.5640   35.3140   44.2580 C.3   263  THR263      0.0376
     41  N          4.8370   31.9420   43.6920 N.am  264  ALA264     -0.1965
     42  CA         4.6690   31.0650   42.5340 C.3   264  ALA264      0.1728
     43  C          4.1550   29.6720   42.9360 C.2   264  ALA264      0.2616
     44  O          3.3590   29.0980   42.2060 O.2   264  ALA264     -0.2715
     45  CB         5.9760   30.9620   41.7680 C.3   264  ALA264      0.0334
     46  N          4.5960   29.1500   44.0920 N.am  265  LEU265     -0.1977
     47  CA         4.1980   27.8320   44.6170 C.3   265  LEU265      0.1596
     48  C          2.7780   27.8310   45.1170 C.2   265  LEU265      0.2287
     49  O          2.0650   26.8330   44.9540 O.2   265  LEU265     -0.2864
     50  CB         5.1580   27.3150   45.7360 C.3   265  LEU265      0.0297
     51  CG         6.6020   26.9750   45.3420 C.3   265  LEU265      0.0022
     52  CD1        7.3960   26.4620   46.5410 C.3   265  LEU265      0.0001
     53  CD2        6.6490   25.9590   44.2480 C.3   265  LEU265      0.0001
     54  N          0.4540   29.9060   43.9760 N.3   267  LYS267     -0.1231
     55  CA        -0.3140   29.9870   42.7290 C.3   267  LYS267      0.1693
     56  C         -0.4480   28.5850   42.0910 C.2   267  LYS267      0.2592
     57  O         -1.5460   28.2000   41.6740 O.2   267  LYS267     -0.2718
     58  CB         0.3330   30.9710   41.7430 C.3   267  LYS267      0.0285
     59  CG         0.0270   32.4300   42.0580 C.3   267  LYS267      0.0035
     60  CD        -0.4270   33.1880   40.8120 C.3   267  LYS267      0.0206
     61  CE        -1.5280   34.1840   41.0980 C.3   267  LYS267      0.1093
     62  NZ        -2.8660   33.5340   41.1930 N.3   267  LYS267     -0.1314
     63  N          0.6660   27.8120   42.0760 N.am  268  VAL268     -0.1966
     64  CA         0.7390   26.4440   41.5370 C.3   268  VAL268      0.1727
     65  C         -0.1490   25.4920   42.3560 C.2   268  VAL268      0.2616
     66  O         -0.9130   24.7280   41.7600 O.2   268  VAL268     -0.2715
     67  CB         2.2020   25.9190   41.3840 C.3   268  VAL268      0.0290
     68  CG1        2.2320   24.5010   40.8110 C.3   268  VAL268      0.0023
     69  CG2        3.0400   26.8460   40.5040 C.3   268  VAL268      0.0023
     70  N         -0.0640   25.5560   43.7160 N.am  269  LEU269     -0.1977
     71  CA        -0.8550   24.7060   44.6220 C.3   269  LEU269      0.1596
     72  C         -2.3390   25.0680   44.6100 C.2   269  LEU269      0.2287
     73  O         -3.1800   24.1980   44.8420 O.2   269  LEU269     -0.2864
     74  CB        -0.3390   24.8350   46.0690 C.3   269  LEU269      0.0297
     75  CG         0.7650   23.8850   46.6130 C.3   269  LEU269      0.0022
     76  CD1        1.4450   23.0660   45.5330 C.3   269  LEU269      0.0001
     77  CD2        1.7630   24.6440   47.4660 C.3   269  LEU269      0.0001
@<TRIPOS>BOND
     1     4     3    2
     2     3     2    1
     3     5     2    1
     4     5     6    1
     5    69    67    1
     6    68    67    1
     7    60    61    1
     8    60    59    1
     9     2     1    1
    10    61    62    1
    11    10     9    2
    12    67    64    1
    13    64    63    1
    14    64    65    1
    15    57    56    2
    16    58    59    1
    17    58    55    1
    18    66    65    2
    19    45    42    1
    20    18    17    2
    21    28    27    1
    22    14    12    1
    23     9     8    1
    24    63    56   am
    25    56    55    1
    26    29    27    1
    27    44    43    2
    28    65    70   am
    29    11    12    1
    30    11     8    1
    31    42    43    1
    32    42    41    1
    33    55    54    1
    34    22    20    1
    35    27    24    1
    36    43    46   am
    37    17    16    1
    38    17    23   am
    39    12    13    1
    40     8     7    1
    41    24    23    1
    42    24    25    1
    43    19    16    1
    44    19    20    1
    45    16    15    1
    46    41    36   am
    47    20    21    1
    48    70    71    1
    49    46    47    1
    50    53    51    1
    51    40    38    1
    52    37    36    2
    53    30    25   am
    54    30    31    1
    55    36    35    1
    56    25    26    2
    57    72    71    1
    58    72    73    2
    59    47    48    1
    60    47    50    1
    61    71    74    1
    62    49    48    2
    63    33    32    2
    64    38    35    1
    65    38    39    1
    66    51    50    1
    67    51    52    1
    68    31    32    1
    69    76    75    1
    70    35    34    1
    71    74    75    1
    72    75    77    1
