@<TRIPOS>MOLECULE
tmp/2x2fB00.pdb
 183 176 0 0 0
SMALL
GASTEIGER

@<TRIPOS>ATOM
      1  N        -14.8710   -5.9690   56.3260 N.3    32  GLN32      -0.1231
      2  CA       -16.0140   -6.6860   56.8700 C.3    32  GLN32       0.1698
      3  C        -15.8000   -8.1960   56.7750 C.2    32  GLN32       0.2593
      4  O        -15.3010   -8.6960   55.7650 O.2    32  GLN32      -0.2718
      5  CB       -17.2840   -6.3150   56.1050 C.3    32  GLN32       0.0381
      6  CG       -18.4910   -7.1440   56.5150 C.3    32  GLN32       0.0905
      7  CD       -19.7920   -6.5390   56.0390 C.2    32  GLN32       0.2608
      8  OE1      -20.1330   -5.3930   56.3880 O.2    32  GLN32      -0.2717
      9  NE2      -20.5510   -7.3160   55.2720 N.am   32  GLN32      -0.0878
     10  N        -16.1130   -8.8780   57.8780 N.am   33  SER33      -0.1938
     11  CA       -16.0080  -10.3280   57.9820 C.3    33  SER33       0.2055
     12  C        -14.5990  -10.8980   57.7820 C.2    33  SER33       0.2643
     13  O        -14.4360  -12.0490   57.3720 O.2    33  SER33      -0.2714
     14  CB       -17.0550  -11.0140   57.0790 C.3    33  SER33       0.2130
     15  OG       -18.3790  -10.7910   57.5800 O.3    33  SER33      -0.2179
     16  N        -13.5810  -10.0940   58.0960 N.am   34  ALA34      -0.1963
     17  CA       -12.1940  -10.5580   58.0260 C.3    34  ALA34       0.1728
     18  C        -11.9360  -11.6070   59.1210 C.2    34  ALA34       0.2617
     19  O        -10.9760  -12.3740   59.0390 O.2    34  ALA34      -0.2715
     20  CB       -11.2240   -9.3780   58.2250 C.3    34  ALA34       0.0334
     21  N        -12.7300  -11.5760   60.1870 N.am   35  GLY35      -0.1940
     22  CA       -12.5430  -12.5290   61.2600 C.3    35  GLY35       0.2014
     23  C        -12.0990  -11.8750   62.5580 C.2    35  GLY35       0.2639
     24  O        -11.6400  -12.5460   63.4610 O.2    35  GLY35      -0.2714
     25  N        -12.3210  -10.5710   62.6650 N.am   36  LYS36      -0.1963
     26  CA       -11.9720   -9.7740   63.8420 C.3    36  LYS36       0.1728
     27  C        -12.6070  -10.2060   65.1760 C.2    36  LYS36       0.2617
     28  O        -11.8980  -10.4190   66.1520 O.2    36  LYS36      -0.2715
     29  CB       -12.3050   -8.3080   63.5660 C.3    36  LYS36       0.0311
     30  CG       -11.5790   -7.7280   62.3560 C.3    36  LYS36       0.0038
     31  CD       -11.9890   -6.2500   62.0660 C.3    36  LYS36       0.0206
     32  CE       -13.5130   -6.0660   61.8660 C.3    36  LYS36       0.1093
     33  NZ       -14.1120   -6.8490   60.7310 N.3    36  LYS36      -0.1314
     34  N        -13.9370  -10.2950   65.2300 N.am   37  SER37      -0.1936
     35  CA       -14.6100  -10.6860   66.4550 C.3    37  SER37       0.2055
     36  C        -14.1660  -12.1030   66.8310 C.2    37  SER37       0.2643
     37  O        -13.9850  -12.4030   67.9990 O.2    37  SER37      -0.2714
     38  CB       -16.1400  -10.5910   66.3000 C.3    37  SER37       0.2130
     39  OG       -16.5670   -9.2430   66.1030 O.3    37  SER37      -0.2179
     40  N        -13.9850  -12.9690   65.8370 N.am   38  SER38      -0.1949
     41  CA       -13.5420  -14.3370   66.1040 C.3    38  SER38       0.1924
     42  C        -12.1710  -14.3100   66.7960 C.2    38  SER38       0.2314
     43  O        -11.9390  -15.0710   67.7380 O.2    38  SER38      -0.2863
     44  CB       -13.4940  -15.1530   64.8140 C.3    38  SER38       0.2116
     45  OG       -14.7880  -15.2840   64.2690 O.3    38  SER38      -0.2180
     46  N        -20.9120  -11.6960   69.1510 N.3    50  PRO50      -0.2102
     47  CA       -21.6720  -12.0450   67.9510 C.3    50  PRO50       0.1504
     48  C        -20.6800  -12.0910   66.7690 C.2    50  PRO50       0.2576
     49  O        -19.8800  -11.1480   66.5730 O.2    50  PRO50      -0.2718
     50  CB       -22.6410  -10.8690   67.8200 C.3    50  PRO50       0.0282
     51  CG       -22.8490  -10.4400   69.2300 C.3    50  PRO50       0.0208
     52  CD       -21.4350  -10.4530   69.7500 C.3    50  PRO50       0.0893
     53  N        -20.6720  -13.2110   66.0480 N.am   51  ARG51      -0.1966
     54  CA       -19.7850  -13.3910   64.8980 C.3    51  ARG51       0.1729
     55  C        -20.6130  -13.9200   63.7420 C.2    51  ARG51       0.2617
     56  O        -21.6770  -14.5120   63.9710 O.2    51  ARG51      -0.2715
     57  CB       -18.6950  -14.4160   65.2330 C.3    51  ARG51       0.0348
     58  CG       -17.7080  -13.9770   66.3050 C.3    51  ARG51       0.0492
     59  CD       -17.1140  -15.1860   67.0530 C.3    51  ARG51       0.2205
     60  NE       -18.1130  -15.8160   67.9100 N.pl3  51  ARG51      -0.0865
     61  CZ       -18.2460  -17.1290   68.0900 C.cat  51  ARG51       0.5346
     62  NH1      -17.4370  -17.9910   67.4780 N.pl3  51  ARG51       0.1354
     63  NH2      -19.1950  -17.5750   68.8980 N.pl3  51  ARG51       0.1354
     64  N        -20.1390  -13.6980   62.5170 N.am   52  GLY52      -0.1940
     65  CA       -20.8260  -14.1890   61.3420 C.3    52  GLY52       0.2014
     66  C        -20.5060  -13.4390   60.0700 C.2    52  GLY52       0.2640
     67  O        -19.8930  -12.3380   60.1100 O.2    52  GLY52      -0.2714
     68  N        -20.8700  -14.0420   58.9350 N.am   53  SER53      -0.1935
     69  CA       -20.6510  -13.4140   57.6440 C.3    53  SER53       0.2055
     70  C        -21.7340  -12.3360   57.5470 C.2    53  SER53       0.2643
     71  O        -22.7050  -12.3480   58.3120 O.2    53  SER53      -0.2714
     72  CB       -20.7510  -14.4300   56.4980 C.3    53  SER53       0.2130
     73  OG       -21.9620  -15.1630   56.5710 O.3    53  SER53      -0.2179
     74  N        -21.5740  -11.3940   56.6320 N.am   54  GLY54      -0.1954
     75  CA       -22.5470  -10.3200   56.5880 C.3    54  GLY54       0.1869
     76  C        -22.1670   -9.3760   57.7330 C.2    54  GLY54       0.2309
     77  O        -21.2710   -9.6830   58.5400 O.2    54  GLY54      -0.2863
     78  N        -22.2040   -7.9270   61.1890 N.3    56  VAL56      -0.1231
     79  CA       -22.6390   -8.3660   62.5160 C.3    56  VAL56       0.1692
     80  C        -22.2500   -7.3250   63.5640 C.2    56  VAL56       0.2592
     81  O        -23.1140   -6.7610   64.2300 O.2    56  VAL56      -0.2718
     82  CB       -22.0680   -9.7850   62.8390 C.3    56  VAL56       0.0266
     83  CG1      -22.4230  -10.2130   64.2350 C.3    56  VAL56       0.0020
     84  CG2      -22.6250  -10.7850   61.8280 C.3    56  VAL56       0.0020
     85  N        -20.9530   -7.0930   63.7490 N.am   57  THR57      -0.1953
     86  CA       -20.5230   -6.0740   64.6940 C.3    57  THR57       0.1897
     87  C        -20.9280   -4.7430   64.0840 C.2    57  THR57       0.2313
     88  O        -20.5610   -4.4520   62.9350 O.2    57  THR57      -0.2863
     89  CB       -19.0170   -6.0670   64.8490 C.3    57  THR57       0.1794
     90  OG1      -18.5710   -7.3870   65.1720 O.3    57  THR57      -0.2208
     91  CG2      -18.6120   -5.0880   65.9680 C.3    57  THR57       0.0378
     92  N        -16.2390   -3.9760   60.5330 N.3   131  GLY131     -0.1225
     93  CA       -15.2410   -3.9900   59.4840 C.3   131  GLY131      0.1811
     94  C        -15.5780   -2.9760   58.4010 C.2   131  GLY131      0.2280
     95  O        -16.7500   -2.6460   58.1950 O.2   131  GLY131     -0.2866
     96  N         -5.9710  -14.2730   59.0720 N.3   194  THR194     -0.1203
     97  CA        -6.9900  -15.2670   59.3950 C.3   194  THR194      0.1994
     98  C         -7.3430  -16.1250   58.1840 C.2   194  THR194      0.2617
     99  O         -6.7770  -15.9620   57.1170 O.2   194  THR194     -0.2717
    100  CB        -8.2860  -14.5570   59.8140 C.3   194  THR194      0.1784
    101  OG1       -8.7320  -13.7470   58.7180 O.3   194  THR194     -0.2211
    102  CG2       -8.0420  -13.6580   61.0140 C.3   194  THR194      0.0376
    103  N         -8.2590  -17.0740   58.3820 N.am  195  LYS195     -0.1979
    104  CA        -8.7660  -17.8940   57.2920 C.3   195  LYS195      0.1596
    105  C         -7.7050  -18.5810   56.4350 C.2   195  LYS195      0.2287
    106  O         -7.8990  -18.7860   55.2410 O.2   195  LYS195     -0.2864
    107  CB        -9.7010  -17.0260   56.4300 C.3   195  LYS195      0.0298
    108  CG       -10.8810  -16.4430   57.2440 C.3   195  LYS195      0.0038
    109  CD       -11.7450  -15.5100   56.3900 C.3   195  LYS195      0.0206
    110  CE       -13.0510  -15.1410   57.1200 C.3   195  LYS195      0.1093
    111  NZ       -14.0350  -14.5570   56.1580 N.3   195  LYS195     -0.1314
    112  N         -7.0210  -21.5720   56.4540 N.3   197  ASP197     -0.1225
    113  CA        -7.6440  -22.8270   56.0350 C.3   197  ASP197      0.1805
    114  C         -8.5370  -22.6740   54.7810 C.2   197  ASP197      0.2597
    115  O         -8.9420  -23.6630   54.1640 O.2   197  ASP197     -0.2718
    116  CB        -8.4450  -23.4350   57.2110 C.3   197  ASP197      0.1424
    117  CG        -9.5890  -22.5290   57.7000 C.2   197  ASP197      0.3668
    118  OD1      -10.6890  -23.0470   57.9850 O.co2 197  ASP197     -0.2456
    119  OD2       -9.3820  -21.3080   57.8360 O.co2 197  ASP197     -0.2456
    120  N         -8.8220  -21.4400   54.3790 N.am  198  LEU198     -0.1979
    121  CA        -9.6770  -21.2090   53.2170 C.3   198  LEU198      0.1596
    122  C         -8.9590  -20.8510   51.9110 C.2   198  LEU198      0.2287
    123  O         -9.6120  -20.5680   50.9130 O.2   198  LEU198     -0.2864
    124  CB       -10.7280  -20.1260   53.5350 C.3   198  LEU198      0.0297
    125  CG       -11.6770  -20.3590   54.7300 C.3   198  LEU198      0.0022
    126  CD1      -12.7310  -19.2000   54.7850 C.3   198  LEU198      0.0001
    127  CD2      -12.3780  -21.7180   54.5660 C.3   198  LEU198      0.0001
    128  N         -3.6240  -17.3230   62.0840 N.3   222  VAL222     -0.1231
    129  CA        -4.5480  -18.0430   62.9430 C.3   222  VAL222      0.1692
    130  C         -5.5740  -18.7710   62.0820 C.2   222  VAL222      0.2592
    131  O         -5.7610  -18.4470   60.9060 O.2   222  VAL222     -0.2718
    132  CB        -5.3160  -17.0870   63.9360 C.3   222  VAL222      0.0266
    133  CG1       -4.3350  -16.3660   64.8940 C.3   222  VAL222      0.0020
    134  CG2       -6.1640  -16.0740   63.1650 C.3   222  VAL222      0.0020
    135  N         -6.2480  -19.7530   62.6730 N.am  223  VAL223     -0.1966
    136  CA        -7.2790  -20.5010   61.9780 C.3   223  VAL223      0.1727
    137  C         -8.4470  -20.6330   62.9480 C.2   223  VAL223      0.2616
    138  O         -8.4080  -21.4040   63.9140 O.2   223  VAL223     -0.2715
    139  CB        -6.8130  -21.8940   61.5480 C.3   223  VAL223      0.0290
    140  CG1       -7.9880  -22.6770   60.9850 C.3   223  VAL223      0.0023
    141  CG2       -5.7330  -21.7620   60.4890 C.3   223  VAL223      0.0023
    142  N         -9.4440  -19.7970   62.7360 N.am  224  ASN224     -0.1958
    143  CA       -10.6030  -19.8100   63.5820 C.3   224  ASN224      0.1819
    144  C        -11.7400  -20.6240   63.0420 C.2   224  ASN224      0.2621
    145  O        -11.6550  -21.1480   61.9230 O.2   224  ASN224     -0.2715
    146  CB       -10.9930  -18.3840   63.9310 C.3   224  ASN224      0.1195
    147  CG       -10.0310  -17.8040   64.9480 C.2   224  ASN224      0.2630
    148  OD1       -9.6410  -18.4960   65.8970 O.2   224  ASN224     -0.2716
    149  ND2       -9.5530  -16.6030   64.7020 N.am  224  ASN224     -0.0877
    150  N        -12.7720  -20.7840   63.8680 N.am  225  ARG225     -0.1963
    151  CA       -13.9360  -21.5800   63.5040 C.3   225  ARG225      0.1729
    152  C        -14.7180  -21.0340   62.3200 C.2   225  ARG225      0.2617
    153  O        -14.9750  -19.8200   62.2130 O.2   225  ARG225     -0.2715
    154  CB       -14.8700  -21.7190   64.7220 C.3   225  ARG225      0.0348
    155  CG       -14.3480  -22.6770   65.7720 C.3   225  ARG225      0.0492
    156  CD       -15.0930  -22.5300   67.0580 C.3   225  ARG225      0.2205
    157  NE       -14.7820  -21.2460   67.6710 N.pl3 225  ARG225     -0.0865
    158  CZ       -15.3530  -20.7870   68.7800 C.cat 225  ARG225      0.5346
    159  NH1      -16.2840  -21.5000   69.4060 N.pl3 225  ARG225      0.1354
    160  NH2      -14.9460  -19.6360   69.2980 N.pl3 225  ARG225      0.1354
    161  N        -15.1260  -21.9500   61.4530 N.am  226  SER226     -0.1936
    162  CA       -15.9140  -21.6420   60.2620 C.3   226  SER226      0.2055
    163  C        -17.3540  -21.3600   60.7200 C.2   226  SER226      0.2642
    164  O        -17.6760  -21.5650   61.8960 O.2   226  SER226     -0.2714
    165  CB       -15.9410  -22.8880   59.3740 C.3   226  SER226      0.2130
    166  OG       -16.5940  -23.9490   60.0920 O.3   226  SER226     -0.2179
    167  N        -18.2160  -20.9020   59.8110 N.am  227  GLN227     -0.1976
    168  CA       -19.6140  -20.6620   60.1600 C.3   227  GLN227      0.1601
    169  C        -20.2750  -21.9980   60.5410 C.2   227  GLN227      0.2287
    170  O        -21.0600  -22.0480   61.4740 O.2   227  GLN227     -0.2864
    171  CB       -20.3760  -20.0050   59.0090 C.3   227  GLN227      0.0394
    172  CG       -21.7680  -19.5260   59.3890 C.3   227  GLN227      0.0908
    173  CD       -21.7590  -18.5530   60.5620 C.2   227  GLN227      0.2608
    174  OE1      -22.4420  -18.7630   61.5550 O.2   227  GLN227     -0.2717
    175  NE2      -20.9640  -17.5000   60.4590 N.am  227  GLN227     -0.0878
    176  N        -19.3130  -22.6780   64.0410 N.3   230  ILE230     -0.1245
    177  CA       -20.0250  -21.7860   64.9450 C.3   230  ILE230      0.1561
    178  C        -21.4290  -22.3340   65.1810 C.2   230  ILE230      0.2260
    179  O        -21.8730  -22.4730   66.3200 O.2   230  ILE230     -0.2867
    180  CB       -20.1500  -20.3440   64.3660 C.3   230  ILE230      0.0252
    181  CG1      -18.8250  -19.5900   64.5100 C.3   230  ILE230      0.0019
    182  CG2      -21.2910  -19.5630   65.0550 C.3   230  ILE230      0.0019
    183  CD1      -18.8860  -18.1710   63.9520 C.3   230  ILE230      0.0001
@<TRIPOS>BOND
     1   123   122    2
     2   122   121    1
     3   121   124    1
     4   121   120    1
     5   124   125    1
     6   115   114    2
     7   120   114   am
     8   127   125    1
     9   125   126    1
    10   114   113    1
    11   106   105    2
    12     9     7   am
    13     4     3    2
    14   113   112    1
    15   113   116    1
    16     7     8    2
    17     7     6    1
    18     5     6    1
    19     5     2    1
    20   111   110    1
    21     1     2    1
    22   109   110    1
    23   109   108    1
    24   107   108    1
    25   107   104    1
    26   105   104    1
    27    72    73    1
    28    72    69    1
    29    75    74    1
    30    75    76    1
    31    74    70   am
    32     3     2    1
    33     3    10   am
    34    14    15    1
    35    14    11    1
    36    99    98    2
    37   116   117    1
    38   104   103    1
    39    13    12    2
    40    70    69    1
    41    70    71    2
    42    69    68    1
    43   117   119   ar
    44   117   118   ar
    45    76    77    2
    46    12    11    1
    47    12    16   am
    48    10    11    1
    49    17    16    1
    50    17    20    1
    51    17    18    1
    52    98   103   am
    53    98    97    1
    54    95    94    2
    55    94    93    1
    56   101   100    1
    57    68    66   am
    58   171   172    1
    59   171   168    1
    60    19    18    2
    61    96    97    1
    62    18    21   am
    63   165   166    1
    64   165   162    1
    65   172   173    1
    66    97   100    1
    67    93    92    1
    68   167   168    1
    69   167   163   am
    70   100   102    1
    71    66    67    2
    72    66    65    1
    73   168   169    1
    74    21    22    1
    75   162   163    1
    76   162   161    1
    77   175   173   am
    78   141   139    1
    79   169   170    2
    80   173   174    2
    81   163   164    2
    82    33    32    1
    83   131   130    2
    84   140   139    1
    85    78    79    1
    86    22    23    1
    87    65    64    1
    88   161   152   am
    89   139   136    1
    90    84    82    1
    91    32    31    1
    92   145   144    2
    93   136   135    1
    94   136   137    1
    95    31    30    1
    96   130   135   am
    97   130   129    1
    98   128   129    1
    99   153   152    2
   100   152   151    1
   101    30    29    1
   102    79    82    1
   103    79    80    1
   104    64    55   am
   105    23    25   am
   106    23    24    2
   107    25    26    1
   108   142   137   am
   109   142   143    1
   110    82    83    1
   111    88    87    2
   112   129   132    1
   113   137   138    2
   114   144   143    1
   115   144   150   am
   116   134   132    1
   117   151   150    1
   118   151   154    1
   119    80    85   am
   120    80    81    2
   121    29    26    1
   122   143   146    1
   123    55    56    2
   124    55    54    1
   125    85    86    1
   126    26    27    1
   127   146   147    1
   128   132   133    1
   129   183   181    1
   130   176   177    1
   131    87    86    1
   132    45    44    1
   133   180   181    1
   134   180   177    1
   135   180   182    1
   136    86    89    1
   137   149   147   am
   138   154   155    1
   139    44    41    1
   140    89    90    1
   141    89    91    1
   142    54    57    1
   143    54    53    1
   144   177   178    1
   145   147   148    2
   146    27    34   am
   147    27    28    2
   148   178   179    2
   149    34    35    1
   150    57    58    1
   151   155   156    1
   152    40    41    1
   153    40    36   am
   154    53    48   am
   155    39    38    1
   156    41    42    1
   157    38    35    1
   158    58    59    1
   159    35    36    1
   160    49    48    2
   161    48    47    1
   162    42    43    2
   163    36    37    2
   164    59    60    1
   165   156   157    1
   166    62    61    1
   167   157   158    2
   168    50    47    1
   169    50    51    1
   170    60    61    2
   171    47    46    1
   172    61    63    1
   173   158   160    1
   174   158   159    1
   175    46    52    1
   176    51    52    1
