@<TRIPOS>MOLECULE
tmp/2x2kA00.pdb
 145 137 0 0 0
SMALL
GASTEIGER

@<TRIPOS>ATOM
      1  N        -14.6810   15.8420    2.8890 N.3    26  LYS26      -0.1245
      2  CA       -13.2310   15.8420    2.8460 C.3    26  LYS26       0.1561
      3  C        -12.5910   14.4930    3.2290 C.2    26  LYS26       0.2260
      4  O        -13.1860   13.6720    3.9270 O.2    26  LYS26      -0.2867
      5  CB       -12.6870   16.9830    3.7160 C.3    26  LYS26       0.0271
      6  CG       -12.7310   16.6860    5.1880 C.3    26  LYS26       0.0035
      7  CD       -12.2580   17.8450    6.0440 C.3    26  LYS26       0.0206
      8  CE       -12.4640   17.5070    7.5210 C.3    26  LYS26       0.1093
      9  NZ       -11.6810   18.4410    8.3700 N.3    26  LYS26      -0.1314
     10  N        -10.1150   12.2080    5.2820 N.3    28  LEU28      -0.1231
     11  CA        -9.6120   12.2580    6.6260 C.3    28  LEU28       0.1693
     12  C         -8.2500   11.5490    6.7360 C.2    28  LEU28       0.2592
     13  O         -7.5020   11.7770    7.7010 O.2    28  LEU28      -0.2718
     14  CB       -10.6390   11.6420    7.5900 C.3    28  LEU28       0.0284
     15  CG       -11.9640   12.3800    7.7760 C.3    28  LEU28       0.0019
     16  CD1      -12.9430   11.5100    8.5430 C.3    28  LEU28       0.0001
     17  CD2      -11.7510   13.7070    8.4750 C.3    28  LEU28       0.0001
     18  N         -7.9430   10.6990    5.7520 N.am   29  GLY29      -0.1957
     19  CA        -6.7590    9.8610    5.7910 C.3    29  GLY29       0.1869
     20  C         -6.8220    8.6350    4.8830 C.2    29  GLY29       0.2309
     21  O         -7.8910    8.2620    4.3830 O.2    29  GLY29      -0.2863
     22  N        -10.4540    7.0130    3.9940 N.3    36  VAL36      -0.1245
     23  CA       -11.5900    7.3720    4.8660 C.3    36  VAL36       0.1561
     24  C        -12.0100    8.8120    4.5710 C.2    36  VAL36       0.2260
     25  O        -11.1580    9.7060    4.6410 O.2    36  VAL36      -0.2867
     26  CB       -11.2400    7.2430    6.3580 C.3    36  VAL36       0.0252
     27  CG1      -12.4330    7.5760    7.1910 C.3    36  VAL36       0.0019
     28  CG2      -10.7740    5.8370    6.6820 C.3    36  VAL36       0.0019
     29  N        -18.2120    8.5020    9.1880 N.3    54  ALA54      -0.1245
     30  CA       -17.0140    8.3450    8.3880 C.3    54  ALA54       0.1562
     31  C        -17.2830    7.2250    7.3810 C.2    54  ALA54       0.2260
     32  O        -18.0320    6.2970    7.6790 O.2    54  ALA54      -0.2867
     33  CB       -15.7850    8.0570    9.2730 C.3    54  ALA54       0.0290
     34  N        -15.4480    4.5090    4.6490 N.3    56  LYS56      -0.1245
     35  CA       -14.2770    3.7850    4.1530 C.3    56  LYS56       0.1561
     36  C        -14.5380    3.2530    2.7380 C.2    56  LYS56       0.2260
     37  O        -15.5580    2.6420    2.4870 O.2    56  LYS56      -0.2867
     38  CB       -13.9350    2.6150    5.0810 C.3    56  LYS56       0.0271
     39  CG       -12.7070    2.8640    5.9340 C.3    56  LYS56       0.0035
     40  CD       -12.1160    1.5550    6.4270 C.3    56  LYS56       0.0206
     41  CE       -10.6940    1.3890    5.9560 C.3    56  LYS56       0.1093
     42  NZ        -9.9030    1.2400    7.1980 N.3    56  LYS56      -0.1314
     43  N        -13.0380   -6.5100    6.3010 N.3    73  GLU73      -0.1245
     44  CA       -13.3970   -5.5050    7.3050 C.3    73  GLU73       0.1567
     45  C        -14.9200   -5.4070    7.5180 C.2    73  GLU73       0.2260
     46  O        -15.4140   -5.4430    8.6440 O.2    73  GLU73      -0.2867
     47  CB       -12.8310   -4.1560    6.8710 C.3    73  GLU73       0.0388
     48  CG       -13.3660   -2.9610    7.6120 C.3    73  GLU73       0.1160
     49  CD       -12.2790   -1.9490    7.8760 C.2    73  GLU73       0.3649
     50  OE1      -11.5860   -1.6020    6.9050 O.co2  73  GLU73      -0.2457
     51  OE2      -12.0860   -1.5270    9.0450 O.co2  73  GLU73      -0.2457
     52  N        -14.7680    0.5710   16.9340 N.3    86  ILE86      -0.1245
     53  CA       -15.5070    1.4280   15.9960 C.3    86  ILE86       0.1561
     54  C        -16.8200    0.7720   15.5130 C.2    86  ILE86       0.2260
     55  O        -16.8510   -0.4200   15.2290 O.2    86  ILE86      -0.2867
     56  CB       -14.5760    1.9130   14.8360 C.3    86  ILE86       0.0252
     57  CG1      -15.0270    3.2610   14.2940 C.3    86  ILE86       0.0019
     58  CG2      -14.4880    0.9110   13.7330 C.3    86  ILE86       0.0019
     59  CD1      -14.6960    4.3750   15.2120 C.3    86  ILE86       0.0001
     60  N        -19.2150    4.1000    8.7310 N.3   102  VAL102     -0.1231
     61  CA       -18.7960    3.7920   10.0810 C.3   102  VAL102      0.1692
     62  C        -18.8810    5.0220   10.9910 C.2   102  VAL102      0.2592
     63  O        -19.0340    6.1600   10.5330 O.2   102  VAL102     -0.2718
     64  CB       -17.3120    3.2310   10.1190 C.3   102  VAL102      0.0266
     65  CG1      -17.2000    1.9180    9.3720 C.3   102  VAL102      0.0020
     66  CG2      -16.2980    4.2510    9.5810 C.3   102  VAL102      0.0020
     67  N        -18.7680    4.7550   12.2850 N.am  103  GLU103     -0.1966
     68  CA       -18.6200    5.7370   13.3320 C.3   103  GLU103      0.1733
     69  C        -17.5130    6.7650   13.0840 C.2   103  GLU103      0.2616
     70  O        -16.3680    6.4110   12.7840 O.2   103  GLU103     -0.2715
     71  CB       -18.3420    4.9940   14.6490 C.3   103  GLU103      0.0429
     72  CG       -18.1880    5.8840   15.8680 C.3   103  GLU103      0.1163
     73  CD       -18.2300    5.0890   17.1480 C.2   103  GLU103      0.3649
     74  OE1      -18.2690    3.8460   17.0600 O.co2 103  GLU103     -0.2457
     75  OE2      -18.2160    5.7040   18.2410 O.co2 103  GLU103     -0.2457
     76  N        -17.8760    8.0360   13.2530 N.am  104  TYR104     -0.1960
     77  CA       -16.9590    9.1600   13.2200 C.3   104  TYR104      0.1771
     78  C        -16.3980    9.4440   14.6320 C.2   104  TYR104      0.2619
     79  O        -17.1550    9.6470   15.5880 O.2   104  TYR104     -0.2715
     80  CB       -17.7090   10.3740   12.6640 C.3   104  TYR104      0.0574
     81  CG       -16.9400   11.6690   12.6540 C.ar  104  TYR104     -0.0198
     82  CD1      -15.9290   11.8830   11.7260 C.ar  104  TYR104     -0.0009
     83  CD2      -17.2500   12.7030   13.5590 C.ar  104  TYR104     -0.0009
     84  CE1      -15.2020   13.0800   11.7010 C.ar  104  TYR104      0.0417
     85  CE2      -16.5170   13.9240   13.5470 C.ar  104  TYR104      0.0417
     86  CZ       -15.4990   14.0900   12.6080 C.ar  104  TYR104      0.1957
     87  OH       -14.7790   15.2500   12.5500 O.3   104  TYR104     -0.2866
     88  N        -15.0720    9.4290   14.7570 N.am  105  ALA105     -0.1963
     89  CA       -14.4070    9.8240   15.9630 C.3   105  ALA105      0.1728
     90  C        -13.8420   11.2170   15.7440 C.2   105  ALA105      0.2616
     91  O        -12.8920   11.4170   15.0050 O.2   105  ALA105     -0.2715
     92  CB       -13.3330    8.8700   16.2800 C.3   105  ALA105      0.0334
     93  N        -14.4850   12.1830   16.3860 N.am  106  LYS106     -0.1963
     94  CA       -14.1640   13.6140   16.3460 C.3   106  LYS106      0.1728
     95  C        -12.6740   14.0710   16.4640 C.2   106  LYS106      0.2616
     96  O        -12.2870   15.0710   15.8630 O.2   106  LYS106     -0.2715
     97  CB       -15.0520   14.2500   17.4110 C.3   106  LYS106      0.0311
     98  CG       -14.6270   15.5150   18.0370 C.3   106  LYS106      0.0038
     99  CD       -15.5540   15.7510   19.2270 C.3   106  LYS106      0.0206
    100  CE       -15.5420   17.2290   19.6290 C.3   106  LYS106      0.1093
    101  NZ       -16.5920   17.5060   20.6670 N.3   106  LYS106     -0.1314
    102  N        -11.8460   13.3450   17.2150 N.am  107  TYR107     -0.1960
    103  CA       -10.4520   13.7640   17.4470 C.3   107  TYR107      0.1771
    104  C         -9.4010   13.1130   16.5250 C.2   107  TYR107      0.2620
    105  O         -8.2010   13.3930   16.6250 O.2   107  TYR107     -0.2715
    106  CB       -10.0850   13.6400   18.9450 C.3   107  TYR107      0.0574
    107  CG       -10.9510   14.5400   19.8070 C.ar  107  TYR107     -0.0198
    108  CD1      -11.8910   13.9970   20.6920 C.ar  107  TYR107     -0.0009
    109  CD2      -10.8550   15.9460   19.7060 C.ar  107  TYR107     -0.0009
    110  CE1      -12.7020   14.8140   21.4740 C.ar  107  TYR107      0.0417
    111  CE2      -11.6690   16.7790   20.4640 C.ar  107  TYR107      0.0417
    112  CZ       -12.5930   16.2050   21.3490 C.ar  107  TYR107      0.1957
    113  OH       -13.4140   17.0180   22.1040 O.3   107  TYR107     -0.2866
    114  N         -9.8590   12.2720   15.6110 N.am  108  GLY108     -0.1940
    115  CA        -8.9710   11.5710   14.7160 C.3   108  GLY108      0.2014
    116  C         -8.2500   10.4000   15.3630 C.2   108  GLY108      0.2639
    117  O         -8.7260    9.8030   16.3230 O.2   108  GLY108     -0.2714
    118  N         -7.0750   10.0940   14.8270 N.am  109  SER109     -0.1949
    119  CA        -6.3320    8.9550   15.2670 C.3   109  SER109      0.1924
    120  C         -5.6380    9.2450   16.5980 C.2   109  SER109      0.2314
    121  O         -5.3530   10.3990   16.9330 O.2   109  SER109     -0.2863
    122  CB        -5.3330    8.5530   14.1870 C.3   109  SER109      0.2116
    123  OG        -4.1900    9.3860   14.2370 O.3   109  SER109     -0.2180
    124  N         -8.8360    5.2470   17.2470 N.3   158  LEU158     -0.1245
    125  CA        -9.4270    6.5850   17.0930 C.3   158  LEU158      0.1561
    126  C         -9.8990    7.1720   18.4270 C.2   158  LEU158      0.2260
    127  O        -10.1310    6.4390   19.3920 O.2   158  LEU158     -0.2867
    128  CB       -10.5590    6.5910   16.0750 C.3   158  LEU158      0.0270
    129  CG       -10.2250    6.0050   14.6990 C.3   158  LEU158      0.0019
    130  CD1      -11.4890    5.4700   14.1060 C.3   158  LEU158      0.0001
    131  CD2       -9.5660    7.0220   13.7720 C.3   158  LEU158      0.0001
    132  N         -9.9300    0.5530   15.4850 N.3   168  SER168     -0.1202
    133  CA       -10.3330    0.5160   14.0560 C.3   168  SER168      0.2020
    134  C         -9.4060   -0.3150   13.1640 C.2   168  SER168      0.2618
    135  O         -8.5500   -1.0290   13.6610 O.2   168  SER168     -0.2717
    136  CB       -10.4420    1.9300   13.4930 C.3   168  SER168      0.2103
    137  OG        -9.1530    2.5120   13.4190 O.3   168  SER168     -0.2182
    138  N         -9.5790   -0.1220   11.8470 N.am  169  ASP169     -0.1973
    139  CA        -8.9110   -0.8760   10.7850 C.3   169  ASP169      0.1709
    140  C         -8.9780   -2.3890   10.9990 C.2   169  ASP169      0.2293
    141  O         -8.0810   -2.9680   11.5920 O.2   169  ASP169     -0.2864
    142  CB        -7.4810   -0.3720   10.5790 C.3   169  ASP169      0.1436
    143  CG        -7.4330    1.0970   10.1320 C.2   169  ASP169      0.3671
    144  OD1       -7.8980    1.9780   10.9020 O.co2 169  ASP169     -0.2456
    145  OD2       -6.9160    1.3740    9.0170 O.co2 169  ASP169     -0.2456
@<TRIPOS>BOND
     1    37    36    2
     2    36    35    1
     3     2     1    1
     4     2     3    1
     5     2     5    1
     6     3     4    2
     7     5     6    1
     8    22    23    1
     9    35    34    1
    10    35    38    1
    11    21    20    2
    12    24    25    2
    13    24    23    1
    14    23    26    1
    15    20    19    1
    16    38    39    1
    17     6     7    1
    18    10    11    1
    19    18    19    1
    20    18    12   am
    21    39    40    1
    22    41    40    1
    23    41    42    1
    24     7     8    1
    25    43    44    1
    26    26    28    1
    27    26    27    1
    28    11    12    1
    29    11    14    1
    30    12    13    2
    31    47    44    1
    32    47    48    1
    33    50    49   ar
    34    44    45    1
    35    31    32    2
    36    31    30    1
    37    45    46    2
    38     8     9    1
    39    14    15    1
    40    48    49    1
    41    15    17    1
    42    15    16    1
    43    49    51   ar
    44    30    29    1
    45    30    33    1
    46    60    61    1
    47   145   143   ar
    48    65    64    1
    49    66    64    1
    50    61    64    1
    51    61    62    1
    52   143   142    1
    53   143   144   ar
    54    63    62    2
    55   142   139    1
    56   139   140    1
    57   139   138    1
    58    62    67   am
    59   140   141    2
    60    84    82   ar
    61    84    86   ar
    62    82    81   ar
    63   138   134   am
    64    67    68    1
    65    87    86    1
    66    86    85   ar
    67    81    80    1
    68    81    83   ar
    69    80    77    1
    70    70    69    2
    71    69    76   am
    72    69    68    1
    73   134   135    2
    74   134   133    1
    75    77    76    1
    76    77    78    1
    77    68    71    1
    78   137   136    1
    79   136   133    1
    80    85    83   ar
    81    58    56    1
    82   131   129    1
    83   133   132    1
    84   130   129    1
    85   122   123    1
    86   122   119    1
    87    57    56    1
    88    57    59    1
    89    78    88   am
    90    78    79    2
    91    71    72    1
    92   129   128    1
    93   115   116    1
    94   115   114    1
    95    88    89    1
    96   118   119    1
    97   118   116   am
    98    56    53    1
    99    91    90    2
   100    55    54    2
   101   119   120    1
   102   116   117    2
   103    54    53    1
   104   114   104   am
   105    90    89    1
   106    90    93   am
   107    96    95    2
   108    72    73    1
   109    89    92    1
   110    53    52    1
   111   128   125    1
   112    94    93    1
   113    94    95    1
   114    94    97    1
   115    95   102   am
   116   104   105    2
   117   104   103    1
   118   120   121    2
   119    74    73   ar
   120   125   124    1
   121   125   126    1
   122    73    75   ar
   123   102   103    1
   124    97    98    1
   125   103   106    1
   126    98    99    1
   127   126   127    2
   128   106   107    1
   129    99   100    1
   130   100   101    1
   131   109   107   ar
   132   109   111   ar
   133   107   108   ar
   134   111   112   ar
   135   108   110   ar
   136   112   110   ar
   137   112   113    1
