@<TRIPOS>MOLECULE
tmp/2x2lA00.pdb
 156 147 0 0 0
SMALL
GASTEIGER

@<TRIPOS>ATOM
      1  N        -14.9960  -19.4590    3.0150 N.3    27  LYS27      -0.1245
      2  CA       -13.5280  -19.4710    2.9160 C.3    27  LYS27       0.1561
      3  C        -12.8980  -20.8070    3.2710 C.2    27  LYS27       0.2260
      4  O        -13.4900  -21.6350    3.9840 O.2    27  LYS27      -0.2867
      5  CB       -12.9060  -18.3430    3.7450 C.3    27  LYS27       0.0271
      6  CG       -13.1190  -18.5210    5.2280 C.3    27  LYS27       0.0035
      7  CD       -12.5300  -17.4140    6.0260 C.3    27  LYS27       0.0206
      8  CE       -12.5440  -17.8050    7.5060 C.3    27  LYS27       0.1093
      9  NZ       -11.9770  -16.7120    8.3360 N.3    27  LYS27      -0.1314
     10  N        -10.4840  -23.0760    5.2870 N.3    29  LEU29      -0.1231
     11  CA        -9.9720  -23.0340    6.6360 C.3    29  LEU29       0.1693
     12  C         -8.6290  -23.7420    6.7120 C.2    29  LEU29       0.2592
     13  O         -7.7680  -23.3870    7.5110 O.2    29  LEU29      -0.2718
     14  CB       -10.9570  -23.7070    7.5870 C.3    29  LEU29       0.0284
     15  CG       -12.3230  -23.0310    7.7090 C.3    29  LEU29       0.0019
     16  CD1      -13.1800  -23.8820    8.6100 C.3    29  LEU29       0.0001
     17  CD2      -12.1340  -21.6120    8.2790 C.3    29  LEU29       0.0001
     18  N         -8.4620  -24.7540    5.8740 N.am   30  GLY30      -0.1957
     19  CA        -7.2870  -25.6040    5.9700 C.3    30  GLY30       0.1869
     20  C         -7.1880  -26.5690    4.8280 C.2    30  GLY30       0.2309
     21  O         -8.1890  -26.9340    4.2140 O.2    30  GLY30      -0.2863
     22  N        -10.7060  -28.2900    3.8390 N.3    37  VAL37      -0.1245
     23  CA       -11.8330  -27.9740    4.7460 C.3    37  VAL37       0.1561
     24  C        -12.2270  -26.5160    4.5620 C.2    37  VAL37       0.2260
     25  O        -11.3780  -25.6660    4.6940 O.2    37  VAL37      -0.2867
     26  CB       -11.4840  -28.2750    6.2030 C.3    37  VAL37       0.0252
     27  CG1      -12.5290  -27.6910    7.1830 C.3    37  VAL37       0.0019
     28  CG2      -11.3930  -29.7560    6.3710 C.3    37  VAL37       0.0019
     29  N        -18.4050  -26.9560    9.0750 N.3    55  ALA55      -0.1245
     30  CA       -17.2190  -27.1260    8.2590 C.3    55  ALA55       0.1562
     31  C        -17.4980  -28.2440    7.3100 C.2    55  ALA55       0.2260
     32  O        -18.2740  -29.1660    7.6070 O.2    55  ALA55      -0.2867
     33  CB       -15.9140  -27.3690    9.0950 C.3    55  ALA55       0.0290
     34  N        -15.5860  -30.8040    4.6340 N.3    57  LYS57      -0.1245
     35  CA       -14.3890  -31.5310    4.1730 C.3    57  LYS57       0.1561
     36  C        -14.6550  -32.0880    2.7670 C.2    57  LYS57       0.2260
     37  O        -15.6730  -32.7540    2.5280 O.2    57  LYS57      -0.2867
     38  CB       -14.1310  -32.6620    5.1680 C.3    57  LYS57       0.0271
     39  CG       -12.7320  -33.1770    5.1380 C.3    57  LYS57       0.0035
     40  CD       -12.2370  -33.5400    6.5330 C.3    57  LYS57       0.0206
     41  CE       -10.7900  -33.7060    6.4650 C.3    57  LYS57       0.1093
     42  NZ       -10.3700  -35.0320    6.9580 N.3    57  LYS57      -0.1314
     43  N        -13.2880  -41.9130    6.3290 N.3    74  GLU74      -0.1245
     44  CA       -13.5290  -40.9330    7.3690 C.3    74  GLU74       0.1567
     45  C        -15.0470  -40.8080    7.5480 C.2    74  GLU74       0.2260
     46  O        -15.5180  -40.7530    8.6720 O.2    74  GLU74      -0.2867
     47  CB       -12.9180  -39.5640    7.0440 C.3    74  GLU74       0.0388
     48  CG       -13.5010  -38.4470    7.9450 C.3    74  GLU74       0.1160
     49  CD       -12.4990  -37.3520    8.2790 C.2    74  GLU74       0.3649
     50  OE1      -11.8710  -36.9180    7.2760 O.co2  74  GLU74      -0.2457
     51  OE2      -12.3500  -36.9450    9.5000 O.co2  74  GLU74      -0.2457
     52  N        -14.9420  -34.9030   16.9550 N.3    87  ILE87      -0.1245
     53  CA       -15.6600  -34.1350   15.9550 C.3    87  ILE87       0.1561
     54  C        -16.9860  -34.7980   15.5620 C.2    87  ILE87       0.2260
     55  O        -17.0620  -36.0090   15.3890 O.2    87  ILE87      -0.2867
     56  CB       -14.7610  -33.8990   14.6980 C.3    87  ILE87       0.0252
     57  CG1      -15.2430  -32.7020   13.8940 C.3    87  ILE87       0.0019
     58  CG2      -14.6600  -35.1280   13.8680 C.3    87  ILE87       0.0019
     59  CD1      -14.9470  -31.4200   14.6520 C.3    87  ILE87       0.0001
     60  N        -19.2630  -31.3750    8.7100 N.3   103  VAL103     -0.1231
     61  CA       -18.8500  -31.6500   10.0750 C.3   103  VAL103      0.1692
     62  C        -18.9330  -30.4000   10.9360 C.2   103  VAL103      0.2592
     63  O        -19.1190  -29.3020   10.4220 O.2   103  VAL103     -0.2718
     64  CB       -17.4020  -32.1960   10.1050 C.3   103  VAL103      0.0266
     65  CG1      -17.3050  -33.6010    9.3350 C.3   103  VAL103      0.0020
     66  CG2      -16.3880  -31.1540    9.5780 C.3   103  VAL103      0.0020
     67  N        -18.7470  -30.6100   12.2500 N.am  104  GLU104     -0.1966
     68  CA       -18.6530  -29.6040   13.2570 C.3   104  GLU104      0.1733
     69  C        -17.5920  -28.5140   13.0010 C.2   104  GLU104      0.2616
     70  O        -16.4100  -28.7910   12.7750 O.2   104  GLU104     -0.2715
     71  CB       -18.3680  -30.3140   14.5930 C.3   104  GLU104      0.0429
     72  CG       -18.2860  -29.4050   15.7980 C.3   104  GLU104      0.1163
     73  CD       -18.1100  -30.1900   17.0750 C.2   104  GLU104      0.3649
     74  OE1      -18.1930  -29.5960   18.1770 O.co2 104  GLU104     -0.2457
     75  OE2      -17.9140  -31.4100   16.9730 O.co2 104  GLU104     -0.2457
     76  N        -18.0290  -27.2690   13.1060 N.am  105  TYR105     -0.1960
     77  CA       -17.1380  -26.1410   12.9630 C.3   105  TYR105      0.1771
     78  C        -16.5260  -25.8070   14.3410 C.2   105  TYR105      0.2619
     79  O        -17.2630  -25.7220   15.3650 O.2   105  TYR105     -0.2715
     80  CB       -17.8950  -24.9420   12.3550 C.3   105  TYR105      0.0574
     81  CG       -17.0960  -23.6860   12.4080 C.ar  105  TYR105     -0.0198
     82  CD1      -15.9830  -23.4940   11.5710 C.ar  105  TYR105     -0.0009
     83  CD2      -17.4380  -22.6760   13.3060 C.ar  105  TYR105     -0.0009
     84  CE1      -15.2270  -22.3230   11.6520 C.ar  105  TYR105      0.0417
     85  CE2      -16.7050  -21.5210   13.3890 C.ar  105  TYR105      0.0417
     86  CZ       -15.5920  -21.3540   12.5790 C.ar  105  TYR105      0.1957
     87  OH       -14.8610  -20.1720   12.6980 O.3   105  TYR105     -0.2866
     88  N        -15.2010  -25.6110   14.3690 N.am  106  ALA106     -0.1963
     89  CA       -14.5240  -25.3190   15.6260 C.3   106  ALA106      0.1728
     90  C        -14.0260  -23.8870   15.6140 C.2   106  ALA106      0.2616
     91  O        -13.0620  -23.5680   14.9440 O.2   106  ALA106     -0.2715
     92  CB       -13.3900  -26.3070   15.8830 C.3   106  ALA106      0.0334
     93  N        -14.7480  -23.0310   16.3370 N.am  107  LYS107     -0.1963
     94  CA       -14.4610  -21.5970   16.5250 C.3   107  LYS107      0.1728
     95  C        -12.9850  -21.2030   16.6400 C.2   107  LYS107      0.2616
     96  O        -12.6050  -20.1100   16.2230 O.2   107  LYS107     -0.2715
     97  CB       -15.2030  -21.1260   17.7810 C.3   107  LYS107      0.0311
     98  CG       -15.2210  -19.6400   18.0700 C.3   107  LYS107      0.0038
     99  CD       -15.8500  -19.4090   19.4490 C.3   107  LYS107      0.0206
    100  CE       -15.9310  -17.9200   19.7860 C.3   107  LYS107      0.1093
    101  NZ       -16.2530  -17.7060   21.2410 N.3   107  LYS107     -0.1314
    102  N        -12.1420  -22.0600   17.2070 N.am  108  TYR108     -0.1960
    103  CA       -10.7530  -21.6370   17.4070 C.3   108  TYR108      0.1771
    104  C         -9.7120  -22.2900   16.4750 C.2   108  TYR108      0.2620
    105  O         -8.5090  -22.0500   16.6300 O.2   108  TYR108     -0.2715
    106  CB       -10.3540  -21.7380   18.8850 C.3   108  TYR108      0.0574
    107  CG       -11.2380  -20.9180   19.8230 C.ar  108  TYR108     -0.0198
    108  CD1      -12.1620  -21.5440   20.6400 C.ar  108  TYR108     -0.0009
    109  CD2      -11.1550  -19.5240   19.8680 C.ar  108  TYR108     -0.0009
    110  CE1      -12.9940  -20.8310   21.4810 C.ar  108  TYR108      0.0417
    111  CE2      -11.9880  -18.7790   20.7310 C.ar  108  TYR108      0.0417
    112  CZ       -12.9020  -19.4540   21.5360 C.ar  108  TYR108      0.1957
    113  OH       -13.7460  -18.7730   22.3980 O.3   108  TYR108     -0.2866
    114  N        -10.1530  -23.0700   15.4870 N.am  109  GLY109     -0.1940
    115  CA        -9.1830  -23.7260   14.5890 C.3   109  GLY109      0.2014
    116  C         -8.4260  -24.9080   15.2120 C.2   109  GLY109      0.2639
    117  O         -8.8440  -25.4380   16.2330 O.2   109  GLY109     -0.2714
    118  N         -7.3100  -25.3060   14.6000 N.am  110  SER110     -0.1949
    119  CA        -6.5500  -26.4580   15.0640 C.3   110  SER110      0.1924
    120  C         -5.8570  -26.1610   16.3890 C.2   110  SER110      0.2314
    121  O         -5.5150  -25.0140   16.7020 O.2   110  SER110     -0.2863
    122  CB        -5.4850  -26.8520   14.0500 C.3   110  SER110      0.2116
    123  OG        -4.5220  -25.8190   13.8660 O.3   110  SER110     -0.2180
    124  N         -2.1760  -30.7440   15.0420 N.3   156  ARG156     -0.1245
    125  CA        -2.8350  -30.2420   13.8080 C.3   156  ARG156      0.1563
    126  C         -4.1320  -30.9800   13.5200 C.2   156  ARG156      0.2260
    127  O         -4.9680  -30.5050   12.7460 O.2   156  ARG156     -0.2867
    128  CB        -1.8920  -30.3080   12.5910 C.3   156  ARG156      0.0307
    129  CG        -1.3200  -31.7060   12.3650 C.3   156  ARG156      0.0489
    130  CD        -0.7490  -31.9840   10.9660 C.3   156  ARG156      0.2205
    131  NE        -0.7070  -33.4390   10.8400 N.pl3 156  ARG156     -0.0865
    132  CZ         0.2750  -34.2170   11.3040 C.cat 156  ARG156      0.5346
    133  NH1        1.3650  -33.6950   11.8630 N.pl3 156  ARG156      0.1354
    134  NH2        0.1640  -35.5320   11.1780 N.pl3 156  ARG156      0.1354
    135  N         -9.0460  -30.1340   17.0610 N.3   159  LEU159     -0.1245
    136  CA        -9.6840  -28.8320   16.9740 C.3   159  LEU159      0.1561
    137  C        -10.0910  -28.2930   18.3360 C.2   159  LEU159      0.2260
    138  O        -10.5050  -29.0260   19.2410 O.2   159  LEU159     -0.2867
    139  CB       -10.8990  -28.8950   16.0720 C.3   159  LEU159      0.0270
    140  CG       -10.5860  -29.3970   14.6510 C.3   159  LEU159      0.0019
    141  CD1      -11.8290  -30.0060   14.0800 C.3   159  LEU159      0.0001
    142  CD2       -9.9810  -28.3260   13.7550 C.3   159  LEU159      0.0001
    143  N        -10.1820  -34.8790   15.3610 N.3   169  SER169     -0.1202
    144  CA       -10.6140  -34.9340   13.9980 C.3   169  SER169      0.2020
    145  C         -9.7050  -35.7640   13.1130 C.2   169  SER169      0.2618
    146  O         -8.7710  -36.4680   13.5750 O.2   169  SER169     -0.2717
    147  CB       -10.7180  -33.5090   13.4510 C.3   169  SER169      0.2103
    148  OG        -9.4990  -32.8640   13.7660 O.3   169  SER169     -0.2182
    149  N         -9.9940  -35.6790   11.8120 N.am  170  ASP170     -0.1973
    150  CA        -9.1880  -36.3190   10.7690 C.3   170  ASP170      0.1709
    151  C         -9.1030  -37.8340   10.9150 C.2   170  ASP170      0.2293
    152  O         -8.0590  -38.4170   11.2870 O.2   170  ASP170     -0.2864
    153  CB        -7.8520  -35.6230   10.6400 C.3   170  ASP170      0.1436
    154  CG        -8.0240  -34.1470   10.2990 C.2   170  ASP170      0.3671
    155  OD1       -8.1330  -33.8180    9.0870 O.co2 170  ASP170     -0.2456
    156  OD2       -8.0980  -33.3090   11.2500 O.co2 170  ASP170     -0.2456
@<TRIPOS>BOND
     1    37    36    2
     2    36    35    1
     3     2     1    1
     4     2     3    1
     5     2     5    1
     6     3     4    2
     7     5     6    1
     8    22    23    1
     9    35    34    1
    10    35    38    1
    11    21    20    2
    12    24    25    2
    13    24    23    1
    14    23    26    1
    15    20    19    1
    16    39    38    1
    17    39    40    1
    18     6     7    1
    19    10    11    1
    20    18    19    1
    21    18    12   am
    22     7     8    1
    23    26    28    1
    24    26    27    1
    25    43    44    1
    26    41    40    1
    27    41    42    1
    28    11    12    1
    29    11    14    1
    30    12    13    2
    31    47    44    1
    32    47    48    1
    33    50    49   ar
    34    31    32    2
    35    31    30    1
    36    44    45    1
    37     8     9    1
    38    45    46    2
    39    14    15    1
    40    15    17    1
    41    15    16    1
    42    48    49    1
    43    30    29    1
    44    30    33    1
    45    49    51   ar
    46    60    61    1
    47   155   154   ar
    48    65    64    1
    49    66    64    1
    50    61    64    1
    51    61    62    1
    52   154   153    1
    53   154   156   ar
    54    63    62    2
    55   153   150    1
    56   150   151    1
    57   150   149    1
    58   131   130    1
    59   131   132    2
    60   151   152    2
    61    62    67   am
    62   130   129    1
    63   134   132    1
    64   132   133    1
    65    82    84   ar
    66    82    81   ar
    67    84    86   ar
    68   149   145   am
    69    67    68    1
    70    80    81    1
    71    80    77    1
    72   129   128    1
    73    81    83   ar
    74    86    87    1
    75    86    85   ar
    76   128   125    1
    77   127   126    2
    78    70    69    2
    79    77    76    1
    80    77    78    1
    81    69    76   am
    82    69    68    1
    83   145   146    2
    84   145   144    1
    85    68    71    1
    86    83    85   ar
    87   147   148    1
    88   147   144    1
    89   126   125    1
    90   142   140    1
    91   125   124    1
    92   123   122    1
    93    58    56    1
    94    57    59    1
    95    57    56    1
    96   144   143    1
    97   122   119    1
    98   141   140    1
    99    78    88   am
   100    78    79    2
   101    88    89    1
   102   115   116    1
   103   115   114    1
   104    71    72    1
   105   118   119    1
   106   118   116   am
   107   140   139    1
   108    56    53    1
   109    91    90    2
   110   119   120    1
   111   116   117    2
   112    55    54    2
   113   114   104   am
   114    54    53    1
   115    90    89    1
   116    90    93   am
   117    89    92    1
   118    72    73    1
   119    53    52    1
   120   139   136    1
   121    96    95    2
   122    93    94    1
   123   120   121    2
   124   104   105    2
   125   104   103    1
   126    94    95    1
   127    94    97    1
   128    95   102   am
   129    75    73   ar
   130   136   135    1
   131   136   137    1
   132    73    74   ar
   133   102   103    1
   134   103   106    1
   135    97    98    1
   136    98    99    1
   137   137   138    2
   138   106   107    1
   139    99   100    1
   140   100   101    1
   141   107   109   ar
   142   107   108   ar
   143   109   111   ar
   144   108   110   ar
   145   111   112   ar
   146   110   112   ar
   147   112   113    1
