@<TRIPOS>MOLECULE
tmp/2x2rB01.pdb
 153 146 0 0 0
SMALL
GASTEIGER

@<TRIPOS>ATOM
      1  N          8.0790   23.7340    0.9550 N.3    96  THR96      -0.1218
      2  CA         8.4650   23.9560    2.3430 C.3    96  THR96       0.1862
      3  C          7.9300   25.2990    2.8190 C.2    96  THR96       0.2287
      4  O          7.4380   25.4030    3.9430 O.2    96  THR96      -0.2866
      5  CB         9.9890   23.8470    2.5440 C.3    96  THR96       0.1770
      6  OG1       10.3940   22.5230    2.1850 O.3    96  THR96      -0.2211
      7  CG2       10.3740   24.1150    4.0200 C.3    96  THR96       0.0375
      8  N          5.8240   24.7390    6.0920 N.3   100  GLU100     -0.1231
      9  CA         6.5200   25.2010    7.2910 C.3   100  GLU100      0.1699
     10  C          6.5650   26.7040    7.3400 C.2   100  GLU100      0.2593
     11  O          6.2090   27.3160    8.3550 O.2   100  GLU100     -0.2718
     12  CB         7.9510   24.6670    7.3210 C.3   100  GLU100      0.0402
     13  CG         7.9950   23.1900    7.5490 C.3   100  GLU100      0.1161
     14  CD         9.3970   22.6760    7.7450 C.2   100  GLU100      0.3649
     15  OE1       10.3530   23.4860    7.6570 O.co2 100  GLU100     -0.2457
     16  OE2        9.5310   21.4570    7.9840 O.co2 100  GLU100     -0.2457
     17  N          7.0080   27.2970    6.2370 N.am  101  GLY101     -0.1942
     18  CA         7.1770   28.7270    6.1740 C.3   101  GLY101      0.2014
     19  C          8.5940   29.0910    6.5660 C.2   101  GLY101      0.2639
     20  O          9.5040   28.2490    6.6050 O.2   101  GLY101     -0.2714
     21  N          8.7750   30.3690    6.8610 N.am  102  GLU102     -0.1963
     22  CA        10.0810   30.9120    7.1580 C.3   102  GLU102      0.1733
     23  C          9.9090   31.9290    8.2660 C.2   102  GLU102      0.2616
     24  O          8.7990   32.3690    8.5510 O.2   102  GLU102     -0.2715
     25  CB        10.6760   31.5850    5.9090 C.3   102  GLU102      0.0429
     26  CG        11.0980   30.6080    4.8000 C.3   102  GLU102      0.1163
     27  CD        11.3770   31.3020    3.4590 C.2   102  GLU102      0.3649
     28  OE1       11.4510   32.5520    3.4260 O.co2 102  GLU102     -0.2457
     29  OE2       11.5090   30.5940    2.4360 O.co2 102  GLU102     -0.2457
     30  N         11.0220   32.3030    8.8750 N.am  103  ARG103     -0.1977
     31  CA        11.0490   33.2890    9.9360 C.3   103  ARG103      0.1597
     32  C         11.3820   34.6420    9.3090 C.2   103  ARG103      0.2287
     33  O         12.3700   34.7500    8.6000 O.2   103  ARG103     -0.2864
     34  CB        12.1490   32.8620   10.9200 C.3   103  ARG103      0.0334
     35  CG        12.0390   33.3770   12.3300 C.3   103  ARG103      0.0492
     36  CD        10.8400   32.8120   13.0530 C.3   103  ARG103      0.2205
     37  NE         9.7710   33.7930   13.0770 N.pl3 103  ARG103     -0.0865
     38  CZ         9.6150   34.7160   14.0230 C.cat 103  ARG103      0.5346
     39  NH1       10.4500   34.7810   15.0520 N.pl3 103  ARG103      0.1354
     40  NH2        8.6030   35.5670   13.9350 N.pl3 103  ARG103      0.1354
     41  N          6.5460   34.3800   16.6270 N.3   111  TRP111     -0.1241
     42  CA         6.3580   33.3110   15.6650 C.3   111  TRP111      0.1605
     43  C          4.8770   33.1310   15.3040 C.2   111  TRP111      0.2264
     44  O          4.5610   32.7210   14.1930 O.2   111  TRP111     -0.2867
     45  CB         7.0030   32.0040   16.1580 C.3   111  TRP111      0.0550
     46  CG         6.3650   31.4040   17.3720 C.ar  111  TRP111      0.0003
     47  CD1        6.7100   31.6190   18.6840 C.ar  111  TRP111      0.0946
     48  CD2        5.2780   30.4670   17.3900 C.ar  111  TRP111      0.0152
     49  NE1        5.8940   30.8780   19.5060 N.ar  111  TRP111     -0.2442
     50  CE2        5.0150   30.1680   18.7450 C.ar  111  TRP111      0.0810
     51  CE3        4.5030   29.8660   16.3960 C.ar  111  TRP111      0.0012
     52  CZ2        4.0040   29.2810   19.1220 C.ar  111  TRP111      0.0191
     53  CZ3        3.5120   28.9890   16.7710 C.ar  111  TRP111      0.0001
     54  CH2        3.2650   28.7070   18.1250 C.ar  111  TRP111      0.0015
     55  N          4.1610   35.9960   12.7000 N.3   114  ASP114     -0.1239
     56  CA         5.0670   36.1480   11.5710 C.3   114  ASP114      0.1674
     57  C          4.2800   35.8660   10.2930 C.2   114  ASP114      0.2266
     58  O          3.6570   34.8140   10.1860 O.2   114  ASP114     -0.2867
     59  CB         6.2290   35.1650   11.7110 C.3   114  ASP114      0.1410
     60  CG         7.3940   35.5200   10.8310 C.2   114  ASP114      0.3668
     61  OD1        7.1670   36.0230    9.7100 O.co2 114  ASP114     -0.2456
     62  OD2        8.5460   35.2920   11.2570 O.co2 114  ASP114     -0.2456
     63  N          5.2620   32.6680    8.4710 N.3   117  ALA117     -0.1245
     64  CA         4.9840   31.3630    9.0970 C.3   117  ALA117      0.1562
     65  C          4.0600   30.5350    8.2000 C.2   117  ALA117      0.2260
     66  O          3.1290   31.0800    7.6050 O.2   117  ALA117     -0.2867
     67  CB         4.3300   31.5540   10.4560 C.3   117  ALA117      0.0290
     68  N          2.4460   24.4350    9.5140 N.3   120  ILE120     -0.1231
     69  CA         2.7780   23.7150   10.7460 C.3   120  ILE120      0.1678
     70  C          2.6850   24.5890   12.0100 C.2   120  ILE120      0.2434
     71  O          1.9690   24.2320   12.9470 O.2   120  ILE120     -0.2733
     72  CB         4.1450   22.9650   10.6440 C.3   120  ILE120      0.0265
     73  CG1        3.9880   21.7340    9.7510 C.3   120  ILE120      0.0019
     74  CG2        4.6760   22.5720   12.0590 C.3   120  ILE120      0.0020
     75  CD1        5.3220   21.0860    9.2970 C.3   120  ILE120      0.0001
     76  N          3.3800   25.7390   12.0310 N.am  121  PRO121     -0.2729
     77  CA         3.2930   26.6180   13.2150 C.3   121  PRO121      0.1401
     78  C          1.8830   27.1850   13.4540 C.2   121  PRO121      0.2269
     79  O          1.4170   27.1600   14.6000 O.2   121  PRO121     -0.2865
     80  CB         4.2810   27.7480   12.9010 C.3   121  PRO121      0.0296
     81  CG         4.5670   27.6220   11.3750 C.3   121  PRO121      0.0237
     82  CD         4.4090   26.1850   11.0710 C.3   121  PRO121      0.0939
     83  N          8.3880   14.5710   14.0690 N.3   144  LEU144     -0.1245
     84  CA         8.8660   15.0300   12.7740 C.3   144  LEU144      0.1561
     85  C          9.9640   14.0780   12.3080 C.2   144  LEU144      0.2260
     86  O         11.0660   14.0710   12.8540 O.2   144  LEU144     -0.2867
     87  CB         9.3840   16.4730   12.8720 C.3   144  LEU144      0.0270
     88  CG        10.0760   17.1230   11.6640 C.3   144  LEU144      0.0019
     89  CD1        9.2980   16.8700   10.3740 C.3   144  LEU144      0.0001
     90  CD2       10.3230   18.6220   11.8900 C.3   144  LEU144      0.0001
     91  N          7.7960   26.7940   19.7440 N.3   195  TYR195     -0.1241
     92  CA         8.8640   27.3110   18.9100 C.3   195  TYR195      0.1605
     93  C         10.2040   26.6010   19.0960 C.2   195  TYR195      0.2264
     94  O         10.8730   26.2730   18.1200 O.2   195  TYR195     -0.2867
     95  CB         9.0400   28.8080   19.1110 C.3   195  TYR195      0.0534
     96  CG         9.9180   29.4200   18.0490 C.ar  195  TYR195     -0.0201
     97  CD1       11.2570   29.6980   18.3000 C.ar  195  TYR195     -0.0009
     98  CD2        9.4090   29.6930   16.7770 C.ar  195  TYR195     -0.0009
     99  CE1       12.0750   30.2590   17.3050 C.ar  195  TYR195      0.0417
    100  CE2       10.2080   30.2540   15.7840 C.ar  195  TYR195      0.0417
    101  CZ        11.5410   30.5330   16.0490 C.ar  195  TYR195      0.1957
    102  OH        12.3310   31.0830   15.0600 O.3   195  TYR195     -0.2866
    103  N         10.2480   23.1900   17.3250 N.3   198  LEU198     -0.1231
    104  CA        10.4010   23.3210   15.8700 C.3   198  LEU198      0.1693
    105  C         11.7950   23.8330   15.5240 C.2   198  LEU198      0.2591
    106  O         12.4220   23.4020   14.5460 O.2   198  LEU198     -0.2718
    107  CB         9.3430   24.2650   15.3040 C.3   198  LEU198      0.0284
    108  CG         7.8910   23.8650   15.5840 C.3   198  LEU198      0.0019
    109  CD1        6.9250   24.8680   14.9910 C.3   198  LEU198      0.0001
    110  CD2        7.6060   22.4830   15.0400 C.3   198  LEU198      0.0001
    111  N         12.2850   24.7490   16.3490 N.am  199  GLU199     -0.1979
    112  CA        13.6050   25.3200   16.1470 C.3   199  GLU199      0.1602
    113  C         14.7160   24.2650   16.1970 C.2   199  GLU199      0.2287
    114  O         15.6400   24.2910   15.3900 O.2   199  GLU199     -0.2864
    115  CB        13.8680   26.4040   17.1830 C.3   199  GLU199      0.0415
    116  CG        14.9350   27.3760   16.7630 C.3   199  GLU199      0.1163
    117  CD        15.2950   28.3440   17.8730 C.2   199  GLU199      0.3649
    118  OE1       15.8750   29.4000   17.5520 O.co2 199  GLU199     -0.2457
    119  OE2       15.0010   28.0500   19.0570 O.co2 199  GLU199     -0.2457
    120  N         14.5480   21.9750   13.1190 N.3   202  ALA202     -0.1245
    121  CA        15.1240   22.6280   11.9600 C.3   202  ALA202      0.1562
    122  C         16.6570   22.6500   12.0160 C.2   202  ALA202      0.2260
    123  O         17.3220   22.4820   10.9850 O.2   202  ALA202     -0.2867
    124  CB        14.5520   24.0260   11.7860 C.3   202  ALA202      0.0290
    125  N         17.8380   19.3040   10.9450 N.3   205  ARG205     -0.1231
    126  CA        17.7440   19.1930    9.4860 C.3   205  ARG205      0.1694
    127  C         18.9310   19.8870    8.8510 C.2   205  ARG205      0.2592
    128  O         19.5710   19.3290    7.9670 O.2   205  ARG205     -0.2718
    129  CB        16.4480   19.7820    8.9290 C.3   205  ARG205      0.0321
    130  CG        16.3200   19.6360    7.3920 C.3   205  ARG205      0.0489
    131  CD        14.8610   19.7360    6.9510 C.3   205  ARG205      0.2205
    132  NE        14.2590   20.9500    7.4530 N.pl3 205  ARG205     -0.0865
    133  CZ        13.0420   21.0450    7.9830 C.cat 205  ARG205      0.5346
    134  NH1       12.2400   19.9950    8.0810 N.pl3 205  ARG205      0.1354
    135  NH2       12.6210   22.2190    8.4040 N.pl3 205  ARG205      0.1354
    136  N         19.2420   21.0860    9.3190 N.am  206  THR206     -0.1953
    137  CA        20.3980   21.8280    8.7980 C.3   206  THR206      0.1897
    138  C         21.6780   20.9930    8.8620 C.2   206  THR206      0.2313
    139  O         22.4550   20.9310    7.8930 O.2   206  THR206     -0.2863
    140  CB        20.5980   23.1190    9.5880 C.3   206  THR206      0.1794
    141  OG1       19.4240   23.9200    9.4680 O.3   206  THR206     -0.2208
    142  CG2       21.8080   23.9000    9.0740 C.3   206  THR206      0.0378
    143  N          5.5930   15.5930    9.1750 N.3   223  PHE223     -0.1241
    144  CA         5.2030   16.1260   10.4700 C.3   223  PHE223      0.1605
    145  C          3.8220   15.5960   10.9110 C.2   223  PHE223      0.2264
    146  O          2.8490   15.6600   10.1570 O.2   223  PHE223     -0.2867
    147  CB         5.2150   17.6590   10.4610 C.3   223  PHE223      0.0534
    148  CG         4.9310   18.2740   11.8250 C.ar  223  PHE223     -0.0203
    149  CD1        3.6380   18.3510   12.3100 C.ar  223  PHE223     -0.0042
    150  CD2        5.9600   18.7700   12.6110 C.ar  223  PHE223     -0.0042
    151  CE1        3.3770   18.9090   13.5600 C.ar  223  PHE223     -0.0003
    152  CE2        5.7040   19.3190   13.8640 C.ar  223  PHE223     -0.0003
    153  CZ         4.4050   19.3840   14.3340 C.ar  223  PHE223     -0.0000
@<TRIPOS>BOND
     1     1     2    1
     2     6     5    1
     3     2     5    1
     4     2     3    1
     5    29    27   ar
     6     5     7    1
     7     3     4    2
     8    28    27   ar
     9    27    26    1
    10    26    25    1
    11    25    22    1
    12     8     9    1
    13    18    17    1
    14    18    19    1
    15    17    10   am
    16    19    20    2
    17    19    21   am
    18    21    22    1
    19   131   130    1
    20   131   132    1
    21    22    23    1
    22     9    12    1
    23     9    10    1
    24    12    13    1
    25    10    11    2
    26   130   129    1
    27   132   133    2
    28    13    14    1
    29    66    65    2
    30    15    14   ar
    31    14    16   ar
    32   139   138    2
    33   128   127    2
    34   133   134    1
    35   133   135    1
    36    65    64    1
    37    23    24    2
    38    23    30   am
    39    63    64    1
    40    33    32    2
    41   137   138    1
    42   137   136    1
    43   137   140    1
    44   127   136   am
    45   127   126    1
    46    30    31    1
    47   129   126    1
    48   142   140    1
    49    64    67    1
    50   143   144    1
    51    75    73    1
    52    32    31    1
    53   141   140    1
    54   126   125    1
    55    68    69    1
    56    61    60   ar
    57    73    72    1
    58    31    34    1
    59   146   145    2
    60    58    57    2
    61    57    56    1
    62    89    88    1
    63   147   144    1
    64   147   148    1
    65   144   145    1
    66    72    69    1
    67    72    74    1
    68    69    70    1
    69    60    62   ar
    70    60    59    1
    71    34    35    1
    72   123   122    2
    73    82    81    1
    74    82    76    1
    75    81    80    1
    76    56    59    1
    77    56    55    1
    78    88    90    1
    79    88    87    1
    80   124   121    1
    81   148   149   ar
    82   148   150   ar
    83   121   122    1
    84   121   120    1
    85    70    76   am
    86    70    71    2
    87    76    77    1
    88    85    84    1
    89    85    86    2
    90   149   151   ar
    91    35    36    1
    92   150   152   ar
    93    84    87    1
    94    84    83    1
    95    80    77    1
    96    36    37    1
    97    37    38    2
    98    77    78    1
    99    78    79    2
   100   151   153   ar
   101   152   153   ar
   102    40    38    1
   103    38    39    1
   104    44    43    2
   105   106   105    2
   106   109   108    1
   107   110   108    1
   108   102   101    1
   109   107   108    1
   110   107   104    1
   111    43    42    1
   112   114   113    2
   113   105   104    1
   114   105   111   am
   115    42    45    1
   116    42    41    1
   117   100   101   ar
   118   100    98   ar
   119   104   103    1
   120   101    99   ar
   121   112   113    1
   122   112   111    1
   123   112   115    1
   124    45    46    1
   125    51    53   ar
   126    51    48   ar
   127   116   115    1
   128   116   117    1
   129    53    54   ar
   130    98    96   ar
   131    99    97   ar
   132    46    48   ar
   133    46    47   ar
   134    48    50   ar
   135   118   117   ar
   136   117   119   ar
   137    96    97   ar
   138    96    95    1
   139    94    93    2
   140    54    52   ar
   141    47    49   ar
   142    50    52   ar
   143    50    49   ar
   144    92    93    1
   145    92    95    1
   146    92    91    1
