@<TRIPOS>MOLECULE
tmp/2x2wA00.pdb
 120 112 0 0 0
SMALL
GASTEIGER

@<TRIPOS>ATOM
      1  N          8.6950   64.8030  113.6040 N.3     8  LYS8       -0.1231
      2  CA         9.8460   65.6000  113.1910 C.3     8  LYS8        0.1693
      3  C         10.8050   65.7770  114.3760 C.2     8  LYS8        0.2592
      4  O         10.3880   66.1710  115.4810 O.2     8  LYS8       -0.2718
      5  CB         9.3830   66.9520  112.6630 C.3     8  LYS8        0.0285
      6  CG        10.4770   67.8060  112.0500 C.3     8  LYS8        0.0035
      7  CD        11.1000   68.7550  113.0360 C.3     8  LYS8        0.0206
      8  CE        12.3030   69.4530  112.4240 C.3     8  LYS8        0.1093
      9  NZ        12.8060   70.5390  113.3010 N.3     8  LYS8       -0.1314
     10  N         12.0830   65.5160  114.1430 N.am    9  LEU9       -0.1966
     11  CA        13.0940   65.5670  115.2090 C.3     9  LEU9        0.1728
     12  C         14.0070   66.7640  115.0190 C.2     9  LEU9        0.2617
     13  O         14.6350   66.9030  113.9780 O.2     9  LEU9       -0.2715
     14  CB        13.9480   64.3060  115.1980 C.3     9  LEU9        0.0311
     15  CG        13.2290   62.9780  115.3010 C.3     9  LEU9        0.0022
     16  CD1       14.2820   61.8770  115.4200 C.3     9  LEU9        0.0001
     17  CD2       12.2490   62.9780  116.4820 C.3     9  LEU9        0.0001
     18  N         14.0860   67.6120  116.0300 N.am   10  GLY10      -0.1940
     19  CA        14.9230   68.8130  115.9580 C.3    10  GLY10       0.2014
     20  C         16.3510   68.5720  116.3990 C.2    10  GLY10       0.2639
     21  O         16.6380   67.5810  117.0620 O.2    10  GLY10      -0.2714
     22  N         17.2270   69.5090  116.0300 N.am   11  GLY11      -0.1954
     23  CA        18.6590   69.4970  116.3530 C.3    11  GLY11       0.1869
     24  C         19.1080   68.9880  117.7150 C.2    11  GLY11       0.2309
     25  O         19.8840   68.0370  117.7910 O.2    11  GLY11      -0.2863
     26  N         16.1980   67.1480  110.6300 N.3    43  GLY43      -0.1210
     27  CA        17.2500   68.0040  110.1270 C.3    43  GLY43       0.1956
     28  C         18.5810   67.4910  110.6410 C.2    43  GLY43       0.2612
     29  O         18.7610   66.2980  110.8580 O.2    43  GLY43      -0.2717
     30  N         19.5190   68.3970  110.8320 N.am   44  GLY44      -0.1942
     31  CA        20.7430   68.0710  111.5410 C.3    44  GLY44       0.2014
     32  C         21.0570   69.2270  112.4270 C.2    44  GLY44       0.2639
     33  O         20.7980   69.1880  113.6280 O.2    44  GLY44      -0.2714
     34  N         21.5770   70.2850  111.8160 N.am   45  GLY45      -0.1954
     35  CA        21.9840   71.4630  112.5540 C.3    45  GLY45       0.1869
     36  C         23.3740   71.2690  113.1080 C.2    45  GLY45       0.2309
     37  O         24.3540   71.7450  112.5230 O.2    45  GLY45      -0.2863
     38  N         26.0950   69.3400  111.0730 N.3    48  VAL48      -0.1231
     39  CA        26.4770   70.2260  109.9720 C.3    48  VAL48       0.1692
     40  C         27.4280   71.3200  110.4560 C.2    48  VAL48       0.2592
     41  O         28.4720   71.5500  109.8500 O.2    48  VAL48      -0.2718
     42  CB        25.2550   70.8840  109.2990 C.3    48  VAL48       0.0266
     43  CG1       25.7060   71.8150  108.1780 C.3    48  VAL48       0.0020
     44  CG2       24.3040   69.8210  108.7670 C.3    48  VAL48       0.0020
     45  N         27.0640   71.9810  111.5510 N.am   49  ASP49      -0.1974
     46  CA        27.8810   73.0540  112.1120 C.3    49  ASP49       0.1709
     47  C         29.2430   72.5590  112.5980 C.2    49  ASP49       0.2293
     48  O         30.2420   73.2450  112.4310 O.2    49  ASP49      -0.2864
     49  CB        27.1260   73.7570  113.2430 C.3    49  ASP49       0.1436
     50  CG        25.9680   74.5860  112.7310 C.2    49  ASP49       0.3671
     51  OD1       26.2110   75.4640  111.8720 O.co2  49  ASP49      -0.2456
     52  OD2       24.8210   74.3570  113.1760 O.co2  49  ASP49      -0.2456
     53  N         19.9810   80.9430  106.2590 N.3    66  ARG66      -0.1245
     54  CA        21.2450   80.2990  105.8710 C.3    66  ARG66       0.1563
     55  C         21.5140   80.4340  104.3720 C.2    66  ARG66       0.2260
     56  O         20.5960   80.6270  103.5720 O.2    66  ARG66      -0.2867
     57  CB        21.2620   78.8080  106.2850 C.3    66  ARG66       0.0307
     58  CG        22.2580   77.9250  105.5020 C.3    66  ARG66       0.0489
     59  CD        22.4770   76.5510  106.1210 C.3    66  ARG66       0.2205
     60  NE        23.6450   76.5080  107.0040 N.pl3  66  ARG66      -0.0865
     61  CZ        24.0950   75.4120  107.6150 C.cat  66  ARG66       0.5346
     62  NH1       23.4830   74.2470  107.4450 N.pl3  66  ARG66       0.1354
     63  NH2       25.1640   75.4790  108.4020 N.pl3  66  ARG66       0.1354
     64  N         23.9260   65.9340  106.7080 N.3    80  LEU80      -0.1245
     65  CA        22.4980   65.7930  106.9730 C.3    80  LEU80       0.1561
     66  C         21.9380   64.4820  106.4300 C.2    80  LEU80       0.2260
     67  O         21.4400   63.6500  107.1790 O.2    80  LEU80      -0.2867
     68  CB        21.7230   66.9420  106.3230 C.3    80  LEU80       0.0270
     69  CG        21.6050   68.3020  106.9980 C.3    80  LEU80       0.0019
     70  CD1       20.4120   69.0810  106.4340 C.3    80  LEU80       0.0001
     71  CD2       21.4520   68.1490  108.4800 C.3    80  LEU80       0.0001
     72  N         19.4220   76.4940   98.7320 N.3   122  VAL122     -0.1245
     73  CA        18.3640   76.3690   99.7240 C.3   122  VAL122      0.1561
     74  C         17.0460   76.1360   98.9840 C.2   122  VAL122      0.2260
     75  O         16.7010   76.8790   98.0640 O.2   122  VAL122     -0.2867
     76  CB        18.2720   77.6320  100.6110 C.3   122  VAL122      0.0252
     77  CG1       17.0830   77.5400  101.5720 C.3   122  VAL122      0.0019
     78  CG2       19.5810   77.8310  101.3810 C.3   122  VAL122      0.0019
     79  N         16.1290   66.1390  105.4530 N.3   147  SER147     -0.1217
     80  CA        15.5810   67.3500  104.8510 C.3   147  SER147      0.1889
     81  C         16.4170   67.9060  103.6890 C.2   147  SER147      0.2288
     82  O         16.2980   69.0760  103.3470 O.2   147  SER147     -0.2866
     83  CB        15.3540   68.4170  105.9210 C.3   147  SER147      0.2089
     84  OG        16.5460   68.7340  106.6140 O.3   147  SER147     -0.2183
     85  N         19.1740   72.1850  100.3060 N.3   158  ASN158     -0.1225
     86  CA        18.9940   72.1100  101.7510 C.3   158  ASN158      0.1785
     87  C         17.6520   72.7690  102.1170 C.2   158  ASN158      0.2597
     88  O         17.4220   73.9270  101.7920 O.2   158  ASN158     -0.2718
     89  CB        20.1650   72.8380  102.4100 C.3   158  ASN158      0.1169
     90  CG        20.1910   72.6760  103.8960 C.2   158  ASN158      0.2627
     91  OD1       19.5570   71.7850  104.4410 O.2   158  ASN158     -0.2716
     92  ND2       20.9370   73.5350  104.5610 N.am  158  ASN158     -0.0877
     93  N         16.7650   72.0260  102.7790 N.am  159  VAL159     -0.1966
     94  CA        15.4150   72.4950  103.0540 C.3   159  VAL159      0.1727
     95  C         15.1660   72.5940  104.5540 C.2   159  VAL159      0.2616
     96  O         15.5470   71.6990  105.3040 O.2   159  VAL159     -0.2715
     97  CB        14.3700   71.5410  102.4390 C.3   159  VAL159      0.0290
     98  CG1       12.9420   72.0300  102.7100 C.3   159  VAL159      0.0023
     99  CG2       14.6110   71.3900  100.9270 C.3   159  VAL159      0.0023
    100  N         14.4930   73.6640  104.9800 N.am  160  ASN160     -0.1958
    101  CA        14.0580   73.7790  106.3760 C.3   160  ASN160      0.1819
    102  C         13.2780   72.5220  106.7710 C.2   160  ASN160      0.2621
    103  O         12.3370   72.1310  106.0810 O.2   160  ASN160     -0.2715
    104  CB        13.2180   75.0430  106.5790 C.3   160  ASN160      0.1195
    105  CG        12.6380   75.1490  107.9920 C.2   160  ASN160      0.2630
    106  OD1       11.6470   74.4930  108.3270 O.2   160  ASN160     -0.2716
    107  ND2       13.2530   75.9800  108.8180 N.am  160  ASN160     -0.0877
    108  N         13.6900   71.8820  107.8580 N.am  161  ALA161     -0.1963
    109  CA        13.1450   70.5760  108.2480 C.3   161  ALA161      0.1728
    110  C         11.6800   70.6320  108.7080 C.2   161  ALA161      0.2616
    111  O         10.9320   69.7080  108.4460 O.2   161  ALA161     -0.2715
    112  CB        14.0140   69.9370  109.3360 C.3   161  ALA161      0.0334
    113  N         11.3040   71.6930  109.4240 N.am  162  ASP162     -0.1971
    114  CA         9.9100   71.9190  109.8120 C.3   162  ASP162      0.1709
    115  C          9.0210   72.0210  108.5620 C.2   162  ASP162      0.2293
    116  O          7.9670   71.3980  108.4780 O.2   162  ASP162     -0.2864
    117  CB         9.7590   73.2010  110.6340 C.3   162  ASP162      0.1436
    118  CG        10.3690   73.0990  112.0460 C.2   162  ASP162      0.3671
    119  OD1       10.4060   72.0040  112.6330 O.co2 162  ASP162     -0.2456
    120  OD2       10.8070   74.1390  112.5700 O.co2 162  ASP162     -0.2456
@<TRIPOS>BOND
     1    75    74    2
     2    72    73    1
     3    74    73    1
     4    73    76    1
     5    85    86    1
     6    76    78    1
     7    76    77    1
     8    99    97    1
     9    86    87    1
    10    86    89    1
    11    88    87    2
    12    87    93   am
    13    89    90    1
    14    97    98    1
    15    97    94    1
    16    93    94    1
    17    94    95    1
    18    82    81    2
    19    56    55    2
    20    81    80    1
    21    90    91    2
    22    90    92   am
    23    55    54    1
    24    95   100   am
    25    95    96    2
    26    80    79    1
    27    80    83    1
    28   100   101    1
    29    58    59    1
    30    58    57    1
    31    54    53    1
    32    54    57    1
    33    83    84    1
    34   103   102    2
    35    59    60    1
    36    68    65    1
    37    68    69    1
    38   101   104    1
    39   101   102    1
    40    66    65    1
    41    66    67    2
    42    70    69    1
    43   104   105    1
    44    64    65    1
    45   102   108   am
    46    69    71    1
    47    60    61    2
    48    62    61    1
    49    61    63    1
    50   108   109    1
    51   105   106    2
    52   105   107   am
    53    43    42    1
    54   109   110    1
    55   109   112    1
    56   111   110    2
    57   116   115    2
    58   115   114    1
    59   110   113   am
    60    44    42    1
    61    42    39    1
    62   113   114    1
    63   114   117    1
    64    41    40    2
    65    39    40    1
    66    39    38    1
    67    27    26    1
    68    27    28    1
    69    40    45   am
    70   117   118    1
    71    28    30   am
    72    28    29    2
    73    30    31    1
    74    31    32    1
    75    45    46    1
    76    34    32   am
    77    34    35    1
    78    51    50   ar
    79   118   120   ar
    80   118   119   ar
    81     6     5    1
    82     6     7    1
    83    46    47    1
    84    46    49    1
    85     8     7    1
    86     8     9    1
    87    32    33    2
    88    48    47    2
    89    37    36    2
    90    35    36    1
    91     5     2    1
    92    50    52   ar
    93    50    49    1
    94     2     1    1
    95     2     3    1
    96    13    12    2
    97    10     3   am
    98    10    11    1
    99     3     4    2
   100    12    11    1
   101    12    18   am
   102    14    11    1
   103    14    15    1
   104    15    16    1
   105    15    17    1
   106    19    18    1
   107    19    20    1
   108    22    23    1
   109    22    20   am
   110    23    24    1
   111    20    21    2
   112    24    25    2
