@<TRIPOS>MOLECULE
tmp/2x38A00.pdb
 179 174 0 0 0
SMALL
GASTEIGER

@<TRIPOS>ATOM
      1  N         -1.5690   -7.8600    8.1100 N.3   512  LYS512     -0.1245
      2  CA        -1.3590   -6.7370    9.0360 C.3   512  LYS512      0.1561
      3  C          0.0230   -6.0730    8.9240 C.2   512  LYS512      0.2260
      4  O          0.0920   -4.8570    8.8300 O.2   512  LYS512     -0.2867
      5  CB        -1.6670   -7.0990   10.5000 C.3   512  LYS512      0.0271
      6  CG        -0.9990   -6.1310   11.4900 C.3   512  LYS512      0.0035
      7  CD        -1.7470   -5.9780   12.7920 C.3   512  LYS512      0.0206
      8  CE        -1.2330   -4.7810   13.5540 C.3   512  LYS512      0.1093
      9  NZ        -1.7920   -4.7390   14.9200 N.3   512  LYS512     -0.1314
     10  N          0.3330    2.1470   14.5900 N.3   554  THR554     -0.1203
     11  CA        -0.1970    0.8990   14.0500 C.3   554  THR554      0.1994
     12  C         -1.7080    0.9980   14.0210 C.2   554  THR554      0.2618
     13  O         -2.2520    2.1000   14.0640 O.2   554  THR554     -0.2717
     14  CB         0.3520   -0.3770   14.8060 C.3   554  THR554      0.1784
     15  OG1       -0.1480   -1.5720   14.1780 O.3   554  THR554     -0.2211
     16  CG2       -0.0210   -0.3700   16.2990 C.3   554  THR554      0.0376
     17  N         -2.3820   -0.1390   13.9380 N.am  555  PHE555     -0.1961
     18  CA        -3.8270   -0.1770   13.9690 C.3   555  PHE555      0.1771
     19  C         -4.2770   -1.4980   14.5410 C.2   555  PHE555      0.2619
     20  O         -3.5460   -2.4930   14.4830 O.2   555  PHE555     -0.2715
     21  CB        -4.4450    0.0210   12.5730 C.3   555  PHE555      0.0574
     22  CG        -4.2720   -1.1700   11.6340 C.ar  555  PHE555     -0.0200
     23  CD1       -5.3490   -1.9900   11.3260 C.ar  555  PHE555     -0.0042
     24  CD2       -3.0320   -1.4710   11.0730 C.ar  555  PHE555     -0.0042
     25  CE1       -5.2050   -3.0830   10.4460 C.ar  555  PHE555     -0.0003
     26  CE2       -2.8760   -2.5670   10.2100 C.ar  555  PHE555     -0.0003
     27  CZ        -3.9710   -3.3680    9.8930 C.ar  555  PHE555     -0.0000
     28  N         -5.4880   -1.4940   15.0910 N.am  556  MET556     -0.1977
     29  CA        -6.1460   -2.7320   15.4680 C.3   556  MET556      0.1605
     30  C         -6.7960   -3.3920   14.2640 C.2   556  MET556      0.2287
     31  O         -7.7790   -2.8810   13.6960 O.2   556  MET556     -0.2864
     32  CB        -7.1770   -2.4800   16.5610 C.3   556  MET556      0.0413
     33  CG        -7.8200   -3.7480   17.0750 C.3   556  MET556      0.0598
     34  SD        -8.3210   -3.6180   18.8050 S.3   556  MET556     -0.1393
     35  CE        -9.8670   -2.7070   18.6490 C.3   556  MET556      0.0692
     36  N         -9.3810    0.9240   14.4230 N.3   562  PRO562     -0.2102
     37  CA        -8.9020    2.1740   14.9830 C.3   562  PRO562      0.1504
     38  C         -7.3930    2.2910   14.9050 C.2   562  PRO562      0.2576
     39  O         -6.6830    1.2930   14.9140 O.2   562  PRO562     -0.2718
     40  CB        -9.3620    2.1090   16.4580 C.3   562  PRO562      0.0282
     41  CG        -9.5130    0.6760   16.7540 C.3   562  PRO562      0.0208
     42  CD       -10.0480    0.1030   15.4530 C.3   562  PRO562      0.0893
     43  N         -6.9180    3.5230   14.8560 N.am  563  LEU563     -0.1966
     44  CA        -5.4970    3.8090   14.7420 C.3   563  LEU563      0.1728
     45  C         -4.8690    4.1000   16.0990 C.2   563  LEU563      0.2616
     46  O         -5.4850    4.7160   16.9590 O.2   563  LEU563     -0.2715
     47  CB        -5.2780    5.0070   13.7960 C.3   563  LEU563      0.0311
     48  CG        -5.9590    4.9930   12.4130 C.3   563  LEU563      0.0022
     49  CD1       -5.3620    6.0680   11.5590 C.3   563  LEU563      0.0001
     50  CD2       -5.8270    3.6670   11.6980 C.3   563  LEU563      0.0001
     51  N         -3.6290    3.6580   16.2610 N.am  564  TRP564     -0.1974
     52  CA        -2.8340    3.8970   17.4360 C.3   564  TRP564      0.1640
     53  C         -1.7080    4.8270   17.0110 C.2   564  TRP564      0.2290
     54  O         -0.8170    4.4290   16.2570 O.2   564  TRP564     -0.2864
     55  CB        -2.2920    2.5580   17.9370 C.3   564  TRP564      0.0576
     56  CG        -1.4320    2.5690   19.1810 C.ar  564  TRP564      0.0006
     57  CD1       -0.0790    2.8360   19.2540 C.ar  564  TRP564      0.0946
     58  CD2       -1.8410    2.2030   20.5260 C.ar  564  TRP564      0.0152
     59  NE1        0.3630    2.6730   20.5610 N.ar  564  TRP564     -0.2442
     60  CE2       -0.6950    2.2910   21.3550 C.ar  564  TRP564      0.0810
     61  CE3       -3.0670    1.8270   21.1050 C.ar  564  TRP564      0.0012
     62  CZ2       -0.7400    2.0120   22.7470 C.ar  564  TRP564      0.0191
     63  CZ3       -3.1090    1.5510   22.4880 C.ar  564  TRP564      0.0001
     64  CH2       -1.9460    1.6410   23.2860 C.ar  564  TRP564      0.0015
     65  N         -5.7790    7.5200   20.1470 N.3   581  ILE581     -0.1245
     66  CA        -6.4280    6.4800   19.3960 C.3   581  ILE581      0.1561
     67  C         -7.4200    7.2520   18.5630 C.2   581  ILE581      0.2260
     68  O         -8.1550    8.1010   19.0940 O.2   581  ILE581     -0.2867
     69  CB        -7.1290    5.4630   20.3030 C.3   581  ILE581      0.0252
     70  CG1       -6.1050    4.5630   20.9860 C.3   581  ILE581      0.0019
     71  CG2       -8.0920    4.5740   19.5320 C.3   581  ILE581      0.0019
     72  CD1       -6.6680    3.9490   22.3140 C.3   581  ILE581      0.0001
     73  N         -9.1890    8.6140   31.6560 N.3   617  TYR617     -0.1241
     74  CA        -8.5540    8.9850   30.3790 C.3   617  TYR617      0.1605
     75  C         -9.5530    9.7350   29.4330 C.2   617  TYR617      0.2264
     76  O        -10.7700    9.4870   29.4480 O.2   617  TYR617     -0.2867
     77  CB        -7.9650    7.7420   29.7240 C.3   617  TYR617      0.0534
     78  CG        -9.0170    6.6900   29.3750 C.ar  617  TYR617     -0.0201
     79  CD1       -9.6910    6.7040   28.1330 C.ar  617  TYR617     -0.0009
     80  CD2       -9.3400    5.6790   30.2760 C.ar  617  TYR617     -0.0009
     81  CE1      -10.6430    5.7270   27.8130 C.ar  617  TYR617      0.0417
     82  CE2      -10.2930    4.7000   29.9630 C.ar  617  TYR617      0.0417
     83  CZ       -10.9460    4.7210   28.7490 C.ar  617  TYR617      0.1957
     84  OH       -11.9090    3.7290   28.4950 O.3   617  TYR617     -0.2866
     85  N         -9.5180    8.8630   21.5720 N.3   629  ILE629     -0.1231
     86  CA        -9.4090    8.2730   22.9030 C.3   629  ILE629      0.1692
     87  C         -7.9450    8.4280   23.3510 C.2   629  ILE629      0.2592
     88  O         -7.0270    8.2140   22.5540 O.2   629  ILE629     -0.2718
     89  CB        -9.8350    6.7810   22.9500 C.3   629  ILE629      0.0266
     90  CG1      -11.3470    6.6170   22.7040 C.3   629  ILE629      0.0019
     91  CG2       -9.5580    6.1780   24.3250 C.3   629  ILE629      0.0020
     92  CD1      -11.7070    5.8010   21.5240 C.3   629  ILE629      0.0001
     93  N         -7.7380    8.8240   24.6070 N.am  630  GLU630     -0.1966
     94  CA        -6.4000    8.9850   25.1510 C.3   630  GLU630      0.1733
     95  C         -5.7890    7.6170   25.4420 C.2   630  GLU630      0.2616
     96  O         -6.4400    6.7490   26.0400 O.2   630  GLU630     -0.2715
     97  CB        -6.4360    9.8210   26.4350 C.3   630  GLU630      0.0429
     98  CG        -5.0510   10.0750   27.0720 C.3   630  GLU630      0.1163
     99  CD        -5.1570   10.6930   28.4680 C.2   630  GLU630      0.3649
    100  OE1       -6.2830   10.8710   28.9560 O.co2 630  GLU630     -0.2457
    101  OE2       -4.1220   11.0540   29.0500 O.co2 630  GLU630     -0.2457
    102  N         -4.5490    7.4210   24.9950 N.am  631  VAL631     -0.1963
    103  CA        -3.8670    6.1740   25.2400 C.3   631  VAL631      0.1727
    104  C         -3.3840    6.1170   26.6930 C.2   631  VAL631      0.2616
    105  O         -2.7410    7.0420   27.1640 O.2   631  VAL631     -0.2715
    106  CB        -2.6690    5.9450   24.2360 C.3   631  VAL631      0.0290
    107  CG1       -1.7140    4.9050   24.7790 C.3   631  VAL631      0.0023
    108  CG2       -3.1950    5.5070   22.8320 C.3   631  VAL631      0.0023
    109  N         -3.7160    5.0250   27.3900 N.am  632  VAL632     -0.1977
    110  CA        -3.0690    4.7210   28.6680 C.3   632  VAL632      0.1596
    111  C         -1.9560    3.7120   28.3670 C.2   632  VAL632      0.2287
    112  O         -2.2130    2.5400   28.0470 O.2   632  VAL632     -0.2864
    113  CB        -4.0730    4.1560   29.7160 C.3   632  VAL632      0.0276
    114  CG1       -3.3670    3.8650   31.0320 C.3   632  VAL632      0.0022
    115  CG2       -5.2580    5.1450   29.9280 C.3   632  VAL632      0.0022
    116  N         -0.1450   -0.6540   29.7700 N.3   635  SER635     -0.1202
    117  CA        -1.3300   -1.3640   30.1770 C.3   635  SER635      0.2020
    118  C         -1.6280   -2.4180   29.1680 C.2   635  SER635      0.2619
    119  O         -1.3140   -2.2790   27.9910 O.2   635  SER635     -0.2717
    120  CB        -2.5560   -0.4220   30.3820 C.3   635  SER635      0.2103
    121  OG        -3.0200    0.1970   29.1910 O.3   635  SER635     -0.2182
    122  N         -2.2290   -3.4910   29.6520 N.am  636  ASP636     -0.1959
    123  CA        -2.6510   -4.5560   28.8040 C.3   636  ASP636      0.1840
    124  C         -4.0400   -4.9420   29.2570 C.2   636  ASP636      0.2622
    125  O         -4.4410   -4.5830   30.3760 O.2   636  ASP636     -0.2715
    126  CB        -1.6910   -5.7330   28.9700 C.3   636  ASP636      0.1450
    127  CG        -1.6120   -6.5590   27.7440 C.2   636  ASP636      0.3671
    128  OD1       -2.4830   -6.3870   26.8820 O.co2 636  ASP636     -0.2456
    129  OD2       -0.6860   -7.3810   27.6290 O.co2 636  ASP636     -0.2456
    130  N         -4.7670   -5.6730   28.4100 N.am  637  THR637     -0.1951
    131  CA        -6.0750   -6.2290   28.7960 C.3   637  THR637      0.1897
    132  C         -5.9100   -7.4800   29.6460 C.2   637  THR637      0.2313
    133  O         -4.9430   -8.2650   29.4730 O.2   637  THR637     -0.2863
    134  CB        -6.9200   -6.6680   27.5650 C.3   637  THR637      0.1794
    135  OG1       -6.1720   -7.6260   26.8160 O.3   637  THR637     -0.2208
    136  CG2       -7.3070   -5.4660   26.6580 C.3   637  THR637      0.0378
    137  N         -5.5470  -10.5260   27.3680 N.3   640  ASN640     -0.1240
    138  CA        -4.1830  -10.7700   26.9140 C.3   640  ASN640      0.1653
    139  C         -3.3440  -11.4430   28.0090 C.2   640  ASN640      0.2266
    140  O         -2.7030  -12.4630   27.7920 O.2   640  ASN640     -0.2867
    141  CB        -3.5360   -9.4850   26.4210 C.3   640  ASN640      0.1155
    142  CG        -2.6770   -9.7190   25.2180 C.2   640  ASN640      0.2627
    143  OD1       -3.1760  -10.1140   24.1660 O.2   640  ASN640     -0.2716
    144  ND2       -1.3690   -9.5180   25.3660 N.am  640  ASN640     -0.0877
    145  N         -8.8270   -3.3750   31.4500 N.3   704  MET704     -0.1196
    146  CA        -7.3630   -3.3010   31.3750 C.3   704  MET704      0.1786
    147  C         -6.7010   -3.1080   32.7380 C.2   704  MET704      0.2306
    148  O         -7.3350   -2.7240   33.7370 O.2   704  MET704     -0.2863
    149  CB        -6.8980   -2.1990   30.3990 C.2   704  MET704      0.0070
    150  CG        -7.4310   -2.3240   28.9590 C.2   704  MET704      0.0282
    151  SD        -6.6780   -1.1850   27.7500 S.3   704  MET704     -0.1125
    152  CE        -5.1230   -2.0340   27.4950 C.3   704  MET704      0.0742
    153  N         -8.7850   -0.5940   34.9980 N.3   712  PHE712     -0.1241
    154  CA        -9.7290    0.3610   34.3770 C.3   712  PHE712      0.1605
    155  C        -10.5580   -0.2530   33.2270 C.2   712  PHE712      0.2264
    156  O        -10.3340   -1.3870   32.7810 O.2   712  PHE712     -0.2867
    157  CB        -9.0400    1.6890   33.9650 C.3   712  PHE712      0.0534
    158  CG        -8.0560    1.5490   32.8200 C.ar  712  PHE712     -0.0203
    159  CD1       -8.4550    1.8210   31.5030 C.ar  712  PHE712     -0.0042
    160  CD2       -6.7470    1.0980   33.0450 C.ar  712  PHE712     -0.0042
    161  CE1       -7.5530    1.6850   30.4490 C.ar  712  PHE712     -0.0003
    162  CE2       -5.8380    0.9490   31.9900 C.ar  712  PHE712     -0.0003
    163  CZ        -6.2400    1.2480   30.6910 C.ar  712  PHE712     -0.0000
    164  N        -12.5710   -0.1310   29.3550 N.3   714  ILE714     -0.1231
    165  CA       -12.5750    0.4090   27.9970 C.3   714  ILE714      0.1692
    166  C        -13.8420   -0.0200   27.2430 C.2   714  ILE714      0.2592
    167  O        -14.5850   -0.8770   27.7250 O.2   714  ILE714     -0.2718
    168  CB       -11.2670    0.0240   27.2450 C.3   714  ILE714      0.0266
    169  CG1      -11.1000   -1.4870   27.2130 C.3   714  ILE714      0.0019
    170  CG2      -10.0530    0.6800   27.9250 C.3   714  ILE714      0.0020
    171  CD1      -10.1530   -2.0020   26.1340 C.3   714  ILE714      0.0001
    172  N        -14.1000    0.5990   26.0920 N.am  715  ASP715     -0.1974
    173  CA       -15.1950    0.2000   25.1900 C.3   715  ASP715      0.1709
    174  C        -16.5450   -0.0180   25.8880 C.2   715  ASP715      0.2293
    175  O        -17.0570   -1.1320   25.9720 O.2   715  ASP715     -0.2864
    176  CB       -14.8000   -1.0490   24.4090 C.3   715  ASP715      0.1436
    177  CG       -13.4900   -0.8790   23.6470 C.2   715  ASP715      0.3671
    178  OD1      -13.1220    0.2780   23.3290 O.co2 715  ASP715     -0.2456
    179  OD2      -12.8310   -1.9110   23.3700 O.co2 715  ASP715     -0.2456
@<TRIPOS>BOND
     1     1     2    1
     2     4     3    2
     3     3     2    1
     4     2     5    1
     5    27    26   ar
     6    27    25   ar
     7    26    24   ar
     8    25    23   ar
     9     5     6    1
    10    24    22   ar
    11    23    22   ar
    12     6     7    1
    13    49    48    1
    14    22    21    1
    15    50    48    1
    16    48    47    1
    17    21    18    1
    18     7     8    1
    19     8     9    1
    20    31    30    2
    21    47    44    1
    22    17    18    1
    23    17    12   am
    24    18    19    1
    25    12    11    1
    26    12    13    2
    27    11    10    1
    28    11    14    1
    29    15    14    1
    30    30    29    1
    31    36    37    1
    32    36    42    1
    33    20    19    2
    34    19    28   am
    35    44    43    1
    36    44    45    1
    37    14    16    1
    38    43    38   am
    39    38    39    2
    40    38    37    1
    41    37    40    1
    42    28    29    1
    43    42    41    1
    44    29    32    1
    45    45    51   am
    46    45    46    2
    47    54    53    2
    48    51    52    1
    49    40    41    1
    50    32    33    1
    51    53    52    1
    52    33    34    1
    53    52    55    1
    54    55    56    1
    55    67    68    2
    56    67    66    1
    57    35    34    1
    58    56    57   ar
    59    56    58   ar
    60    57    59   ar
    61    66    65    1
    62    66    69    1
    63    71    69    1
    64    69    70    1
    65    58    61   ar
    66    58    60   ar
    67    59    60   ar
    68    70    72    1
    69    61    63   ar
    70    60    62   ar
    71    92    90    1
    72    85    86    1
    73    63    64   ar
    74    88    87    2
    75    90    89    1
    76    62    64   ar
    77   108   106    1
    78    86    89    1
    79    86    87    1
    80    89    91    1
    81   178   177   ar
    82    87    93   am
    83   179   177   ar
    84   177   176    1
    85   143   142    2
    86   106   107    1
    87   106   103    1
    88   176   173    1
    89    93    94    1
    90   102   103    1
    91   102    95   am
    92    94    95    1
    93    94    97    1
    94   173   174    1
    95   173   172    1
    96   142   144   am
    97   142   141    1
    98   103   104    1
    99    95    96    2
   100   174   175    2
   101   172   166   am
   102   171   169    1
   103   141   138    1
   104    97    98    1
   105   136   134    1
   106   104   105    2
   107   104   109   am
   108   135   134    1
   109   128   127   ar
   110   138   137    1
   111   138   139    1
   112    98    99    1
   113   169   168    1
   114   166   167    2
   115   166   165    1
   116   168   170    1
   117   168   165    1
   118   109   110    1
   119   152   151    1
   120   134   131    1
   121   129   127   ar
   122   127   126    1
   123   151   150    1
   124   140   139    2
   125    81    79   ar
   126    81    83   ar
   127   119   118    2
   128   165   164    1
   129   112   111    2
   130    79    78   ar
   131   111   110    1
   132   130   131    1
   133   130   124   am
   134    99   100   ar
   135    99   101   ar
   136    84    83    1
   137   110   113    1
   138    83    82   ar
   139   131   132    1
   140   123   126    1
   141   123   124    1
   142   123   122    1
   143   150   149    2
   144   118   122   am
   145   118   117    1
   146   121   120    1
   147   124   125    2
   148    78    77    1
   149    78    80   ar
   150    75    76    2
   151    75    74    1
   152   133   132    2
   153   113   115    1
   154   113   114    1
   155    77    74    1
   156   116   117    1
   157    82    80   ar
   158   117   120    1
   159    74    73    1
   160   149   146    1
   161   161   163   ar
   162   161   159   ar
   163   163   162   ar
   164   146   145    1
   165   146   147    1
   166   159   158   ar
   167   162   160   ar
   168   147   148    2
   169   156   155    2
   170   158   160   ar
   171   158   157    1
   172   155   154    1
   173   157   154    1
   174   154   153    1
