@<TRIPOS>MOLECULE
tmp/2x39A01.pdb
 190 181 0 0 0
SMALL
GASTEIGER

@<TRIPOS>ATOM
      1  N         50.3990   32.1580  107.3810 N.3    13  LEU13      -0.1231
      2  CA        50.2440   32.1510  108.8370 C.3    13  LEU13       0.1693
      3  C         49.4720   30.9190  109.3210 C.2    13  LEU13       0.2593
      4  O         49.6200   30.4860  110.4690 O.2    13  LEU13      -0.2718
      5  CB        49.4950   33.4010  109.2650 C.3    13  LEU13       0.0284
      6  CG        50.1610   34.7350  108.9860 C.3    13  LEU13       0.0019
      7  CD1       49.1220   35.8350  109.1570 C.3    13  LEU13       0.0001
      8  CD2       51.3710   34.9480  109.9030 C.3    13  LEU13       0.0001
      9  N         48.5760   30.4130  108.4820 N.am   14  GLY14      -0.1942
     10  CA        47.7650   29.2510  108.8430 C.3    14  GLY14       0.2014
     11  C         47.1100   28.6600  107.6090 C.2    14  GLY14       0.2639
     12  O         47.0010   29.3320  106.5690 O.2    14  GLY14      -0.2714
     13  N         46.6490   27.4180  107.7110 N.am   15  LYS15      -0.1963
     14  CA        46.1570   26.7000  106.5300 C.3    15  LYS15       0.1728
     15  C         45.2280   25.5590  106.9050 C.2    15  LYS15       0.2616
     16  O         45.7070   24.4860  107.2520 O.2    15  LYS15      -0.2715
     17  CB        47.3470   26.1630  105.7200 C.3    15  LYS15       0.0311
     18  CG        46.9870   25.4510  104.4150 C.3    15  LYS15       0.0038
     19  CD        47.8900   24.2470  104.1520 C.3    15  LYS15       0.0206
     20  CE        47.3480   23.3740  103.0170 C.3    15  LYS15       0.1093
     21  NZ        47.9290   22.0090  103.0340 N.3    15  LYS15      -0.1314
     22  N         43.9120   25.8070  106.8360 N.am   16  GLY16      -0.1955
     23  CA        42.8700   24.7710  106.9970 C.3    16  GLY16       0.1869
     24  C         42.5650   23.9970  105.7090 C.2    16  GLY16       0.2309
     25  O         43.2390   24.1580  104.6810 O.2    16  GLY16      -0.2863
     26  N         39.5800   24.3110  104.2450 N.3    18  PHE18      -0.1227
     27  CA        38.7490   25.2370  103.4710 C.3    18  PHE18       0.1740
     28  C         39.4020   26.5860  103.1760 C.2    18  PHE18       0.2635
     29  O         38.7190   27.4990  102.7170 O.2    18  PHE18      -0.2714
     30  CB        37.3880   25.4140  104.1580 C.3    18  PHE18       0.0548
     31  CG        36.5900   24.1320  104.2570 C.ar   18  PHE18      -0.0202
     32  CD1       36.2280   23.6050  105.4910 C.ar   18  PHE18      -0.0042
     33  CD2       36.2200   23.4390  103.1070 C.ar   18  PHE18      -0.0042
     34  CE1       35.4960   22.4220  105.5740 C.ar   18  PHE18      -0.0003
     35  CE2       35.4910   22.2410  103.1850 C.ar   18  PHE18      -0.0003
     36  CZ        35.1330   21.7370  104.4150 C.ar   18  PHE18      -0.0000
     37  N         40.7110   26.7140  103.4180 N.am   19  GLY19      -0.1718
     38  CA        41.4220   27.9450  103.0710 C.2    19  GLY19       0.1480
     39  C         42.7620   28.1490  103.7490 C.2    19  GLY19       0.2820
     40  O         43.2390   27.2840  104.4750 O.2    19  GLY19      -0.2669
     41  N         43.3640   29.3090  103.4900 N.am   20  LYS20      -0.1929
     42  CA        44.6380   29.6750  104.0670 C.3    20  LYS20       0.1731
     43  C         44.6270   31.1130  104.5570 C.2    20  LYS20       0.2616
     44  O         43.7830   31.9140  104.1490 O.2    20  LYS20      -0.2715
     45  CB        45.7800   29.4300  103.0720 C.3    20  LYS20       0.0312
     46  CG        45.6660   30.1300  101.7300 C.3    20  LYS20       0.0038
     47  CD        46.7150   29.6320  100.6960 C.3    20  LYS20       0.0206
     48  CE        46.7020   28.1040  100.5490 C.3    20  LYS20       0.1093
     49  NZ        47.2160   27.6280   99.2270 N.3    20  LYS20      -0.1314
     50  N         45.5180   31.4210  105.4940 N.am   21  VAL21      -0.1977
     51  CA        45.6340   32.7820  105.9970 C.3    21  VAL21       0.1596
     52  C         47.0480   33.2220  105.6890 C.2    21  VAL21       0.2287
     53  O         48.0160   32.5060  105.9750 O.2    21  VAL21      -0.2864
     54  CB        45.2380   32.9380  107.4720 C.3    21  VAL21       0.0276
     55  CG1       45.3560   34.3870  107.9030 C.3    21  VAL21       0.0022
     56  CG2       43.7820   32.4480  107.7050 C.3    21  VAL21       0.0022
     57  N         45.8720   40.2540  108.0490 N.3    34  ALA34      -0.1245
     58  CA        45.8030   38.8410  107.8310 C.3    34  ALA34       0.1562
     59  C         44.6490   38.6390  106.8200 C.2    34  ALA34       0.2260
     60  O         43.5230   39.0790  107.0370 O.2    34  ALA34      -0.2867
     61  CB        45.5350   38.1070  109.1820 C.3    34  ALA34       0.0290
     62  N         42.3480   35.9110  104.9550 N.3    36  LYS36      -0.1245
     63  CA        41.8550   34.5470  104.7810 C.3    36  LYS36       0.1561
     64  C         41.3640   34.3810  103.3530 C.2    36  LYS36       0.2260
     65  O         40.5140   35.1380  102.9070 O.2    36  LYS36      -0.2867
     66  CB        40.7350   34.2210  105.7870 C.3    36  LYS36       0.0271
     67  CG        40.2520   32.7880  105.7630 C.3    36  LYS36       0.0035
     68  CD        38.9890   32.5750  106.6160 C.3    36  LYS36       0.0206
     69  CE        39.2970   32.6160  108.0950 C.3    36  LYS36       0.1093
     70  NZ        38.1660   32.0810  108.9540 N.3    36  LYS36      -0.1314
     71  N         39.7050   31.8270  100.6750 N.3    38  LEU38      -0.1245
     72  CA        38.9260   30.5850  100.4910 C.3    38  LEU38       0.1561
     73  C         38.6640   30.4080   99.0070 C.2    38  LEU38       0.2260
     74  O         38.4750   31.3990   98.3090 O.2    38  LEU38      -0.2867
     75  CB        37.5640   30.6930  101.1730 C.3    38  LEU38       0.0270
     76  CG        37.4390   31.2200  102.5910 C.3    38  LEU38       0.0019
     77  CD1       35.9680   31.2100  102.9470 C.3    38  LEU38       0.0001
     78  CD2       38.2190   30.3780  103.5730 C.3    38  LEU38       0.0001
     79  N         38.8630   39.9520  116.4200 N.3    68  THR68      -0.1218
     80  CA        39.5580   40.4360  115.2750 C.3    68  THR68       0.1862
     81  C         38.5370   41.1790  114.3750 C.2    68  THR68       0.2287
     82  O         37.4770   40.6460  114.0450 O.2    68  THR68      -0.2866
     83  CB        40.2890   39.3100  114.4970 C.3    68  THR68       0.1770
     84  OG1       39.3290   38.4310  113.9260 O.3    68  THR68      -0.2211
     85  CG2       41.2340   38.5030  115.4460 C.3    68  THR68       0.0375
     86  N         41.6230   41.0370  107.6130 N.3    84  MET84      -0.1230
     87  CA        41.3730   41.2340  109.0220 C.3    84  MET84       0.1702
     88  C         42.5990   41.7570  109.7390 C.2    84  MET84       0.2592
     89  O         43.7250   41.6970  109.2260 O.2    84  MET84      -0.2718
     90  CB        40.9610   39.8840  109.6550 C.3    84  MET84       0.0401
     91  CG        39.7650   39.2440  108.9880 C.3    84  MET84       0.0596
     92  SD        39.4790   37.5690  109.5710 S.3    84  MET84      -0.1393
     93  CE        40.8450   36.7600  108.7570 C.3    84  MET84       0.0692
     94  N         42.3630   42.2920  110.9140 N.am   85  GLU85      -0.1966
     95  CA        43.4200   42.7430  111.7810 C.3    85  GLU85       0.1733
     96  C         44.3770   41.5720  111.9790 C.2    85  GLU85       0.2616
     97  O         43.9190   40.4470  112.2520 O.2    85  GLU85      -0.2715
     98  CB        42.8580   43.1150  113.1260 C.3    85  GLU85       0.0429
     99  CG        41.9300   44.2750  113.1530 C.3    85  GLU85       0.1163
    100  CD        41.5530   44.6530  114.6040 C.2    85  GLU85       0.3649
    101  OE1       42.0380   45.6890  115.0710 O.co2  85  GLU85      -0.2457
    102  OE2       40.8140   43.9050  115.2990 O.co2  85  GLU85      -0.2457
    103  N         45.6690   41.8500  111.8370 N.am   86  TYR86      -0.1960
    104  CA        46.7470   40.8550  111.9850 C.3    86  TYR86       0.1771
    105  C         47.1200   40.7320  113.4460 C.2    86  TYR86       0.2619
    106  O         47.5210   41.6980  114.0720 O.2    86  TYR86      -0.2715
    107  CB        47.9570   41.2800  111.1450 C.3    86  TYR86       0.0574
    108  CG        49.2360   40.5170  111.3950 C.ar   86  TYR86      -0.0198
    109  CD1       49.2660   39.1350  111.4010 C.ar   86  TYR86      -0.0009
    110  CD2       50.4390   41.2060  111.6390 C.ar   86  TYR86      -0.0009
    111  CE1       50.4580   38.4580  111.6440 C.ar   86  TYR86       0.0417
    112  CE2       51.6340   40.5300  111.8550 C.ar   86  TYR86       0.0417
    113  CZ        51.6280   39.1670  111.8560 C.ar   86  TYR86       0.1957
    114  OH        52.8000   38.5100  112.0640 O.3    86  TYR86      -0.2866
    115  N         46.9210   39.5500  114.0080 N.am   87  ALA87      -0.1977
    116  CA        47.3530   39.2720  115.3800 C.3    87  ALA87       0.1597
    117  C         48.8260   38.7810  115.3940 C.2    87  ALA87       0.2287
    118  O         49.0800   37.6110  115.1960 O.2    87  ALA87      -0.2864
    119  CB        46.3710   38.2500  116.0450 C.3    87  ALA87       0.0319
    120  N         48.9000   32.3180  118.1350 N.3    91  GLU91      -0.1245
    121  CA        47.8200   31.6500  118.8830 C.3    91  GLU91       0.1567
    122  C         48.2630   31.4190  120.2930 C.2    91  GLU91       0.2260
    123  O         49.4140   31.0940  120.5290 O.2    91  GLU91      -0.2867
    124  CB        47.5150   30.2620  118.3000 C.3    91  GLU91       0.0388
    125  CG        47.1260   30.2620  116.8510 C.3    91  GLU91       0.1160
    126  CD        47.1450   28.8770  116.1810 C.2    91  GLU91       0.3649
    127  OE1       47.6370   27.8950  116.7830 O.co2  91  GLU91      -0.2457
    128  OE2       46.6590   28.7780  115.0140 O.co2  91  GLU91      -0.2457
    129  N         43.5330   27.4280  119.6160 N.3   134  GLU134     -0.1231
    130  CA        43.9220   27.8400  118.2420 C.3   134  GLU134      0.1699
    131  C         43.2210   29.1300  117.7320 C.2   134  GLU134      0.2592
    132  O         43.7520   29.8620  116.8720 O.2   134  GLU134     -0.2718
    133  CB        43.6210   26.7230  117.2610 C.3   134  GLU134      0.0402
    134  CG        44.4810   25.4670  117.4630 C.3   134  GLU134      0.1161
    135  CD        43.8560   24.4420  118.4230 C.2   134  GLU134      0.3649
    136  OE1       43.0290   24.8270  119.2690 O.co2 134  GLU134     -0.2457
    137  OE2       44.1950   23.2490  118.3580 O.co2 134  GLU134     -0.2457
    138  N         42.0540   29.3980  118.2630 N.am  135  ASN135     -0.1974
    139  CA        41.1900   30.4990  117.8180 C.3   135  ASN135      0.1688
    140  C         41.3580   31.7210  118.7080 C.2   135  ASN135      0.2292
    141  O         40.6460   32.7200  118.5460 O.2   135  ASN135     -0.2864
    142  CB        39.7060   30.0890  117.8470 C.3   135  ASN135      0.1181
    143  CG        39.3320   29.1160  116.7650 C.2   135  ASN135      0.2629
    144  OD1       40.1370   28.7960  115.9240 O.2   135  ASN135     -0.2716
    145  ND2       38.0920   28.6230  116.7980 N.am  135  ASN135     -0.0877
    146  N         43.9480   34.4250  119.6450 N.3   137  MET137     -0.1245
    147  CA        45.2600   34.9960  119.2740 C.3   137  MET137      0.1570
    148  C         45.6340   36.0700  120.1970 C.2   137  MET137      0.2261
    149  O         44.7640   36.6190  120.9190 O.2   137  MET137     -0.2867
    150  CB        45.2020   35.6300  117.8830 C.3   137  MET137      0.0387
    151  CG        44.4370   34.8400  116.8260 C.3   137  MET137      0.0595
    152  SD        45.4090   33.4720  116.2040 S.3   137  MET137     -0.1393
    153  CE        46.8840   34.2250  115.4790 C.3   137  MET137      0.0692
    154  N         39.3320   34.8120  116.7590 N.3   147  THR147     -0.1203
    155  CA        39.3180   34.6990  115.3290 C.3   147  THR147      0.1994
    156  C         38.4430   33.4940  114.9590 C.2   147  THR147      0.2617
    157  O         38.1020   32.6650  115.8220 O.2   147  THR147     -0.2717
    158  CB        40.7620   34.5270  114.7560 C.3   147  THR147      0.1784
    159  OG1       41.2910   33.2560  115.1320 O.3   147  THR147     -0.2211
    160  CG2       41.7090   35.5860  115.3150 C.3   147  THR147      0.0376
    161  N         38.0920   33.4080  113.6840 N.am  148  ASP148     -0.1973
    162  CA        37.3900   32.2280  113.0990 C.3   148  ASP148      0.1709
    163  C         35.9310   32.1270  113.5820 C.2   148  ASP148      0.2293
    164  O         35.6090   31.3580  114.5190 O.2   148  ASP148     -0.2864
    165  CB        38.1890   30.9010  113.3190 C.3   148  ASP148      0.1436
    166  CG        39.5500   30.8670  112.5210 C.2   148  ASP148      0.3671
    167  OD1       39.6960   31.5830  111.5120 O.co2 148  ASP148     -0.2456
    168  OD2       40.4820   30.1190  112.8940 O.co2 148  ASP148     -0.2456
    169  N         54.4420   32.0990  115.1770 N.3   293  PHE293     -0.1241
    170  CA        53.6770   31.2310  114.3100 C.3   293  PHE293      0.1605
    171  C         54.5720   30.0430  113.9570 C.2   293  PHE293      0.2264
    172  O         55.8020   30.1520  113.9500 O.2   293  PHE293     -0.2867
    173  CB        53.2890   31.9480  113.0360 C.3   293  PHE293      0.0534
    174  CG        52.3000   33.0720  113.2390 C.ar  293  PHE293     -0.0203
    175  CD1       52.7240   34.3050  113.6300 C.ar  293  PHE293     -0.0042
    176  CD2       50.9630   32.8720  113.0410 C.ar  293  PHE293     -0.0042
    177  CE1       51.8310   35.3390  113.7920 C.ar  293  PHE293     -0.0003
    178  CE2       50.0710   33.9140  113.2330 C.ar  293  PHE293     -0.0003
    179  CZ        50.5310   35.1510  113.5760 C.ar  293  PHE293     -0.0000
    180  N         54.0050   26.3180  109.0420 N.3   297  PHE297     -0.1241
    181  CA        53.2730   27.1920  108.1150 C.3   297  PHE297      0.1605
    182  C         54.1750   28.2630  107.5000 C.2   297  PHE297      0.2264
    183  O         54.2440   28.3890  106.2750 O.2   297  PHE297     -0.2867
    184  CB        52.0280   27.7960  108.8080 C.3   297  PHE297      0.0534
    185  CG        51.1050   26.7560  109.4190 C.ar  297  PHE297     -0.0203
    186  CD1       50.8990   26.6900  110.8010 C.ar  297  PHE297     -0.0042
    187  CD2       50.4720   25.8230  108.6170 C.ar  297  PHE297     -0.0042
    188  CE1       50.0700   25.7170  111.3650 C.ar  297  PHE297     -0.0003
    189  CE2       49.6550   24.8380  109.1670 C.ar  297  PHE297     -0.0003
    190  CZ        49.4510   24.7870  110.5460 C.ar  297  PHE297     -0.0000
@<TRIPOS>BOND
     1    74    73    2
     2    73    72    1
     3    49    48    1
     4    72    71    1
     5    72    75    1
     6    48    47    1
     7    47    46    1
     8    75    76    1
     9    46    45    1
    10    76    77    1
    11    76    78    1
    12    29    28    2
    13    65    64    2
    14    20    21    1
    15    20    19    1
    16    38    37    2
    17    38    39    1
    18    45    42    1
    19    33    35   ar
    20    33    31   ar
    21    28    37    1
    22    28    27    1
    23    35    36   ar
    24    64    63    1
    25    27    30    1
    26    27    26    1
    27    41    39   am
    28    41    42    1
    29    39    40    2
    30    42    43    1
    31    44    43    2
    32    19    18    1
    33    30    31    1
    34    31    32   ar
    35    18    17    1
    36    36    34   ar
    37    43    50   am
    38    25    24    2
    39    63    62    1
    40    63    66    1
    41    32    34   ar
    42    50    51    1
    43    52    53    2
    44    52    51    1
    45    24    23    1
    46    17    14    1
    47    67    66    1
    48    67    68    1
    49    51    54    1
    50   183   182    2
    51    14    15    1
    52    14    13    1
    53    12    11    2
    54    68    69    1
    55    59    60    2
    56    59    58    1
    57    22    15   am
    58    22    23    1
    59    15    16    2
    60     1     2    1
    61    54    56    1
    62    54    55    1
    63   182   181    1
    64    11    13   am
    65    11    10    1
    66    86    87    1
    67    58    57    1
    68    58    61    1
    69    69    70    1
    70   181   184    1
    71   181   180    1
    72     9    10    1
    73     9     3   am
    74   187   189   ar
    75   187   185   ar
    76    93    92    1
    77   184   185    1
    78     2     5    1
    79     2     3    1
    80     6     7    1
    81     6     5    1
    82     6     8    1
    83    91    92    1
    84    91    90    1
    85    87    90    1
    86    87    88    1
    87   189   190   ar
    88    89    88    2
    89     3     4    2
    90   185   186   ar
    91    88    94   am
    92   190   188   ar
    93   186   188   ar
    94    94    95    1
    95   107   108    1
    96   107   104    1
    97   108   109   ar
    98   108   110   ar
    99   109   111   ar
   100   167   166   ar
   101   110   112   ar
   102   111   113   ar
   103    95    96    1
   104    95    98    1
   105   103    96   am
   106   103   104    1
   107   112   113   ar
   108   113   114    1
   109    96    97    2
   110   104   105    1
   111   166   168   ar
   112   166   165    1
   113   173   174    1
   114   173   170    1
   115   176   178   ar
   116   176   174   ar
   117   162   165    1
   118   162   163    1
   119   162   161    1
   120    98    99    1
   121    99   100    1
   122   178   179   ar
   123   174   175   ar
   124   105   115   am
   125   105   106    2
   126   179   177   ar
   127   163   164    2
   128   175   177   ar
   129   161   156   am
   130    84    83    1
   131   172   171    2
   132   171   170    1
   133   115   116    1
   134    82    81    2
   135   170   169    1
   136    81    80    1
   137    83    80    1
   138    83    85    1
   139   100   101   ar
   140   100   102   ar
   141   158   159    1
   142   158   160    1
   143   158   155    1
   144   156   155    1
   145   156   157    2
   146   128   126   ar
   147   118   117    2
   148    80    79    1
   149   155   154    1
   150   116   117    1
   151   116   119    1
   152   153   152    1
   153   144   143    2
   154   126   127   ar
   155   126   125    1
   156   152   151    1
   157   143   145   am
   158   143   142    1
   159   151   150    1
   160   125   124    1
   161   132   131    2
   162   133   134    1
   163   133   130    1
   164   134   135    1
   165   131   130    1
   166   131   138   am
   167   139   142    1
   168   139   138    1
   169   139   140    1
   170   150   147    1
   171   120   121    1
   172   130   129    1
   173   124   121    1
   174   137   135   ar
   175   135   136   ar
   176   141   140    2
   177   121   122    1
   178   147   146    1
   179   147   148    1
   180   148   149    2
   181   122   123    2
