@<TRIPOS>MOLECULE
tmp/2x3fA00.pdb
 234 227 0 0 0
SMALL
GASTEIGER

@<TRIPOS>ATOM
      1  N         38.4420   49.0140   44.3080 N.3    28  PRO28      -0.2102
      2  CA        39.2320   47.9300   44.8790 C.3    28  PRO28       0.1504
      3  C         40.0540   47.2510   43.8050 C.2    28  PRO28       0.2576
      4  O         39.5060   46.8810   42.7510 O.2    28  PRO28      -0.2718
      5  CB        38.1750   46.9730   45.4580 C.3    28  PRO28       0.0282
      6  CG        36.9270   47.3040   44.7890 C.3    28  PRO28       0.0208
      7  CD        37.0110   48.6860   44.2570 C.3    28  PRO28       0.0893
      8  N         41.3540   47.1190   44.0610 N.am   29  THR29      -0.1939
      9  CA        42.2580   46.4380   43.1460 C.3    29  THR29       0.2028
     10  C         43.2760   45.5660   43.8760 C.2    29  THR29       0.2642
     11  O         43.4780   45.6870   45.0880 O.2    29  THR29      -0.2714
     12  CB        43.0850   47.4340   42.2950 C.3    29  THR29       0.1808
     13  OG1       44.2630   47.8080   43.0170 O.3    29  THR29      -0.2208
     14  CG2       42.2660   48.6740   41.9050 C.3    29  THR29       0.0379
     15  N         43.9430   44.7220   43.1020 N.am   30  MET30      -0.1962
     16  CA        45.1210   43.9910   43.5760 C.3    30  MET30       0.1736
     17  C         46.4310   44.5760   43.0460 C.2    30  MET30       0.2617
     18  O         47.4710   43.9220   43.0780 O.2    30  MET30      -0.2715
     19  CB        44.9680   42.5030   43.2540 C.3    30  MET30       0.0427
     20  CG        43.7000   41.9100   43.8680 C.3    30  MET30       0.0599
     21  SD        43.8180   40.1460   44.2150 S.3    30  MET30      -0.1393
     22  CE        43.9280   39.5630   42.5340 C.3    30  MET30       0.0692
     23  N         46.4000   45.8410   42.6230 N.am   31  GLY31      -0.1955
     24  CA        47.6120   46.5440   42.1980 C.3    31  GLY31       0.1869
     25  C         48.0570   46.1730   40.7910 C.2    31  GLY31       0.2309
     26  O         47.2720   45.6180   40.0240 O.2    31  GLY31      -0.2863
     27  N         46.7610   49.3130   35.5090 N.3    34  HIS34      -0.1241
     28  CA        46.7890   49.5940   34.0660 C.3    34  HIS34       0.1621
     29  C         45.6010   50.4890   33.7260 C.2    34  HIS34       0.2264
     30  O         44.8250   50.8700   34.6200 O.2    34  HIS34      -0.2867
     31  CB        46.7570   48.2810   33.2580 C.3    34  HIS34       0.0745
     32  CG        45.6660   47.3450   33.6840 C.ar   34  HIS34       0.0817
     33  ND1       44.3320   47.6910   33.6310 N.ar   34  HIS34      -0.2268
     34  CD2       45.7110   46.0900   34.1950 C.ar   34  HIS34       0.1154
     35  CE1       43.6020   46.6880   34.0920 C.ar   34  HIS34       0.1986
     36  NE2       44.4150   45.7040   34.4380 N.ar   34  HIS34      -0.2212
     37  N         42.7270   50.1400   32.5120 N.3    36  GLY36      -0.1210
     38  CA        41.4070   49.6640   32.9300 C.3    36  GLY36       0.1956
     39  C         41.0670   50.2000   34.3110 C.2    36  GLY36       0.2611
     40  O         39.9860   50.7550   34.5220 O.2    36  GLY36      -0.2717
     41  N         42.0060   50.0450   35.2420 N.am   37  HIS37      -0.1975
     42  CA        41.8510   50.5800   36.5990 C.3    37  HIS37       0.1656
     43  C         41.7800   52.1000   36.5620 C.2    37  HIS37       0.2291
     44  O         40.9680   52.7000   37.2440 O.2    37  HIS37      -0.2864
     45  CB        43.0240   50.2010   37.5000 C.3    37  HIS37       0.0771
     46  CG        43.2630   48.7330   37.6130 C.ar   37  HIS37       0.0820
     47  ND1       44.4160   48.1340   37.1620 N.ar   37  HIS37      -0.2267
     48  CD2       42.5110   47.7450   38.1470 C.ar   37  HIS37       0.1154
     49  CE1       44.3660   46.8390   37.4140 C.ar   37  HIS37       0.1986
     50  NE2       43.2210   46.5780   38.0090 N.ar   37  HIS37      -0.2212
     51  N         38.4100   53.5650   35.7580 N.3    40  MET40      -0.1245
     52  CA        37.5480   53.5960   36.9370 C.3    40  MET40       0.1570
     53  C         37.9350   54.7610   37.8660 C.2    40  MET40       0.2261
     54  O         37.0670   55.4960   38.3630 O.2    40  MET40      -0.2867
     55  CB        37.6070   52.2610   37.6870 C.3    40  MET40       0.0387
     56  CG        37.0340   51.0850   36.8920 C.3    40  MET40       0.0595
     57  SD        36.8870   49.6000   37.9250 S.3    40  MET40      -0.1393
     58  CE        38.6070   49.1210   37.9100 C.3    40  MET40       0.0692
     59  N         41.4120   34.7230   47.5160 N.3    61  GLN61      -0.1245
     60  CA        40.8550   34.5270   46.1660 C.3    61  GLN61       0.1566
     61  C         41.8020   33.8120   45.2010 C.2    61  GLN61       0.2260
     62  O         41.4460   33.6250   44.0320 O.2    61  GLN61      -0.2867
     63  CB        40.3250   35.8360   45.5790 C.3    61  GLN61       0.0367
     64  CG        41.3630   36.8690   45.1890 C.3    61  GLN61       0.0905
     65  CD        40.7030   38.1430   44.8280 C.2    61  GLN61       0.2608
     66  OE1       40.2070   38.8540   45.6970 O.2    61  GLN61      -0.2717
     67  NE2       40.6280   38.4250   43.5380 N.am   61  GLN61      -0.0878
     68  N         52.1730   37.0820   41.5310 N.3    71  TYR71      -0.1241
     69  CA        51.3350   38.2360   41.2180 C.3    71  TYR71       0.1605
     70  C         52.1800   39.5240   41.2380 C.2    71  TYR71       0.2264
     71  O         52.8870   39.7910   42.2190 O.2    71  TYR71      -0.2867
     72  CB        50.1220   38.3510   42.1610 C.3    71  TYR71       0.0534
     73  CG        49.0100   39.1470   41.5170 C.ar   71  TYR71      -0.0201
     74  CD1       48.8650   40.5040   41.7620 C.ar   71  TYR71      -0.0009
     75  CD2       48.1640   38.5540   40.5920 C.ar   71  TYR71      -0.0009
     76  CE1       47.8780   41.2420   41.1150 C.ar   71  TYR71       0.0417
     77  CE2       47.1760   39.2640   39.9610 C.ar   71  TYR71       0.0417
     78  CZ        47.0350   40.6140   40.2260 C.ar   71  TYR71       0.1957
     79  OH        46.0530   41.3220   39.6040 O.3    71  TYR71      -0.2866
     80  N         37.2520   27.8810   39.4560 N.3   121  ARG121     -0.1245
     81  CA        38.1270   28.3310   40.5350 C.3   121  ARG121      0.1563
     82  C         37.4100   28.1930   41.8770 C.2   121  ARG121      0.2260
     83  O         36.8790   29.1710   42.3810 O.2   121  ARG121     -0.2867
     84  CB        38.5490   29.7830   40.3010 C.3   121  ARG121      0.0307
     85  CG        39.1060   30.0680   38.9210 C.3   121  ARG121      0.0489
     86  CD        39.4470   31.5480   38.7440 C.3   121  ARG121      0.2205
     87  NE        40.5900   31.9380   39.5750 N.pl3 121  ARG121     -0.0865
     88  CZ        41.0210   33.1890   39.7400 C.cat 121  ARG121      0.5346
     89  NH1       40.3970   34.2080   39.1520 N.pl3 121  ARG121      0.1354
     90  NH2       42.0770   33.4240   40.5140 N.pl3 121  ARG121      0.1354
     91  N         33.5520   50.9990   42.2890 N.3   145  TYR145     -0.1227
     92  CA        33.7130   50.7820   40.8600 C.3   145  TYR145      0.1736
     93  C         34.3250   49.4240   40.5850 C.2   145  TYR145      0.2595
     94  O         35.3480   49.0680   41.1760 O.2   145  TYR145     -0.2718
     95  CB        34.5580   51.9070   40.2150 C.3   145  TYR145      0.0548
     96  CG        33.9050   53.2620   40.3920 C.ar  145  TYR145     -0.0200
     97  CD1       33.0800   53.8010   39.4130 C.ar  145  TYR145     -0.0009
     98  CD2       34.0720   53.9790   41.5710 C.ar  145  TYR145     -0.0009
     99  CE1       32.4630   55.0400   39.5960 C.ar  145  TYR145      0.0417
    100  CE2       33.4530   55.1950   41.7650 C.ar  145  TYR145      0.0417
    101  CZ        32.6520   55.7220   40.7810 C.ar  145  TYR145      0.1957
    102  OH        32.0470   56.9370   41.0110 O.3   145  TYR145     -0.2866
    103  N         33.6860   48.6910   39.6760 N.am  146  PHE146     -0.1962
    104  CA        34.1160   47.3690   39.2520 C.3   146  PHE146      0.1771
    105  C         34.0700   47.2630   37.7380 C.2   146  PHE146      0.2620
    106  O         33.3520   48.0060   37.0700 O.2   146  PHE146     -0.2715
    107  CB        33.2110   46.2960   39.8470 C.3   146  PHE146      0.0574
    108  CG        33.3830   46.1290   41.3140 C.ar  146  PHE146     -0.0200
    109  CD1       32.7450   46.9880   42.2050 C.ar  146  PHE146     -0.0042
    110  CD2       34.2170   45.1440   41.8150 C.ar  146  PHE146     -0.0042
    111  CE1       32.9210   46.8400   43.5860 C.ar  146  PHE146     -0.0003
    112  CE2       34.3910   44.9920   43.1710 C.ar  146  PHE146     -0.0003
    113  CZ        33.7490   45.8400   44.0650 C.ar  146  PHE146     -0.0000
    114  N         34.8250   46.3090   37.2210 N.am  147  GLY147     -0.1940
    115  CA        35.0010   46.1580   35.7940 C.3   147  GLY147      0.2014
    116  C         34.1520   45.0240   35.2890 C.2   147  GLY147      0.2639
    117  O         34.1140   43.9440   35.8940 O.2   147  GLY147     -0.2714
    118  N         33.4800   45.2760   34.1730 N.am  148  LYS148     -0.1963
    119  CA        32.6280   44.2900   33.5200 C.3   148  LYS148      0.1728
    120  C         33.4370   43.1780   32.8720 C.2   148  LYS148      0.2616
    121  O         32.8530   42.2090   32.3790 O.2   148  LYS148     -0.2715
    122  CB        31.6960   44.9580   32.4860 C.3   148  LYS148      0.0311
    123  CG        30.5030   45.7110   33.0970 C.3   148  LYS148      0.0038
    124  CD        29.6180   46.3420   32.0320 C.3   148  LYS148      0.0206
    125  CE        28.3930   47.0200   32.6290 C.3   148  LYS148      0.1093
    126  NZ        27.5430   47.6500   31.5730 N.3   148  LYS148     -0.1314
    127  N         34.7660   43.2840   32.8660 N.am  149  LYS149     -0.1963
    128  CA        35.5950   42.1720   32.3950 C.3   149  LYS149      0.1728
    129  C         35.3660   40.9560   33.2990 C.2   149  LYS149      0.2616
    130  O         35.3160   39.8030   32.8370 O.2   149  LYS149     -0.2715
    131  CB        37.0720   42.5400   32.3580 C.3   149  LYS149      0.0311
    132  CG        37.9490   41.4100   31.7830 C.3   149  LYS149      0.0038
    133  CD        39.4220   41.7620   31.7850 C.3   149  LYS149      0.0206
    134  CE        40.2810   40.6680   32.3910 C.3   149  LYS149      0.1093
    135  NZ        40.5150   40.9110   33.8390 N.3   149  LYS149     -0.1314
    136  N         35.1780   41.2270   34.5850 N.am  150  ASP150     -0.1971
    137  CA        34.8190   40.1840   35.5400 C.3   150  ASP150      0.1709
    138  C         33.3150   40.2770   35.8030 C.2   150  ASP150      0.2293
    139  O         32.8690   40.6810   36.8790 O.2   150  ASP150     -0.2864
    140  CB        35.6530   40.3710   36.8080 C.3   150  ASP150      0.1436
    141  CG        37.1320   40.3780   36.5160 C.2   150  ASP150      0.3671
    142  OD1       37.7330   41.4770   36.4090 O.co2 150  ASP150     -0.2456
    143  OD2       37.6880   39.2820   36.3470 O.co2 150  ASP150     -0.2456
    144  N         31.9050   38.2410   38.6740 N.3   153  GLN153     -0.1245
    145  CA        32.2400   38.9190   39.9290 C.3   153  GLN153      0.1566
    146  C         31.3170   40.1070   40.1760 C.2   153  GLN153      0.2260
    147  O         30.8270   40.2990   41.2930 O.2   153  GLN153     -0.2867
    148  CB        33.6970   39.3770   39.9160 C.3   153  GLN153      0.0367
    149  CG        34.1070   40.2560   41.0670 C.3   153  GLN153      0.0905
    150  CD        35.5760   40.5880   40.9910 C.2   153  GLN153      0.2608
    151  OE1       36.4040   39.8380   41.4660 O.2   153  GLN153     -0.2717
    152  NE2       35.8990   41.7030   40.3710 N.am  153  GLN153     -0.0878
    153  N         32.0270   49.2210   34.9620 N.3   173  ILE173     -0.1231
    154  CA        32.6150   49.9730   33.8480 C.3   173  ILE173      0.1692
    155  C         32.8660   48.9970   32.6920 C.2   173  ILE173      0.2592
    156  O         33.2660   47.8400   32.9040 O.2   173  ILE173     -0.2718
    157  CB        33.9300   50.6660   34.2770 C.3   173  ILE173      0.0266
    158  CG1       33.6950   51.6090   35.4620 C.3   173  ILE173      0.0019
    159  CG2       34.5340   51.4660   33.1670 C.3   173  ILE173      0.0020
    160  CD1       32.8110   52.7620   35.1660 C.3   173  ILE173      0.0001
    161  N         32.6010   49.4640   31.4730 N.am  174  ASP174     -0.1960
    162  CA        32.8510   48.6800   30.2700 C.3   174  ASP174      0.1840
    163  C         34.2910   48.1860   30.2010 C.2   174  ASP174      0.2622
    164  O         35.1930   48.8310   30.7240 O.2   174  ASP174     -0.2715
    165  CB        32.5550   49.4990   29.0030 C.3   174  ASP174      0.1450
    166  CG        31.0730   49.7790   28.8080 C.2   174  ASP174      0.3671
    167  OD1       30.2330   49.0450   29.3570 O.co2 174  ASP174     -0.2456
    168  OD2       30.7480   50.7370   28.0750 O.co2 174  ASP174     -0.2456
    169  N         34.4910   47.0500   29.5290 N.am  175  ILE175     -0.1963
    170  CA        35.8250   46.4570   29.4220 C.3   175  ILE175      0.1727
    171  C         36.7590   47.4240   28.6900 C.2   175  ILE175      0.2616
    172  O         36.4280   47.9230   27.6060 O.2   175  ILE175     -0.2715
    173  CB        35.7940   45.0890   28.6840 C.3   175  ILE175      0.0290
    174  CG1       34.9330   44.0740   29.4580 C.3   175  ILE175      0.0022
    175  CG2       37.2120   44.5520   28.4680 C.3   175  ILE175      0.0023
    176  CD1       34.6580   42.7360   28.7020 C.3   175  ILE175      0.0001
    177  N         37.9050   47.7060   29.3000 N.am  176  VAL176     -0.1977
    178  CA        38.9110   48.5720   28.6980 C.3   176  VAL176      0.1596
    179  C         39.9260   47.7030   27.9660 C.2   176  VAL176      0.2287
    180  O         40.4080   46.6990   28.4950 O.2   176  VAL176     -0.2864
    181  CB        39.5850   49.4670   29.7580 C.3   176  VAL176      0.0276
    182  CG1       40.6240   50.3770   29.1170 C.3   176  VAL176      0.0022
    183  CG2       38.5230   50.2770   30.5120 C.3   176  VAL176      0.0022
    184  N         42.4790   44.6480   28.9170 N.3   184  LYS184     -0.1231
    185  CA        43.5320   45.0270   29.8430 C.3   184  LYS184      0.1693
    186  C         43.4670   44.0980   31.0680 C.2   184  LYS184      0.2593
    187  O         42.3860   43.7640   31.5540 O.2   184  LYS184     -0.2718
    188  CB        43.3680   46.4830   30.2840 C.3   184  LYS184      0.0285
    189  CG        43.4960   47.5060   29.1730 C.3   184  LYS184      0.0035
    190  CD        44.9230   47.8210   28.8660 C.3   184  LYS184      0.0206
    191  CE        45.0670   49.1000   28.0440 C.3   184  LYS184      0.1093
    192  NZ        46.4700   49.5650   28.0620 N.3   184  LYS184     -0.1314
    193  N         44.6290   43.6770   31.5380 N.am  185  SER185     -0.1938
    194  CA        44.7220   42.8030   32.6980 C.3   185  SER185      0.2055
    195  C         46.1380   42.8810   33.2270 C.2   185  SER185      0.2644
    196  O         47.0860   42.8970   32.4520 O.2   185  SER185     -0.2714
    197  CB        44.4040   41.3540   32.3050 C.3   185  SER185      0.2130
    198  OG        44.7470   40.4540   33.3540 O.3   185  SER185     -0.2179
    199  N         46.2900   42.9010   34.5480 N.am  186  SER186     -0.1935
    200  CA        47.6120   42.8600   35.1400 C.3   186  SER186      0.2055
    201  C         48.3450   41.5690   34.7600 C.2   186  SER186      0.2642
    202  O         49.5780   41.5190   34.7640 O.2   186  SER186     -0.2714
    203  CB        47.5140   43.0000   36.6650 C.3   186  SER186      0.2130
    204  OG        46.8680   44.2160   37.0170 O.3   186  SER186     -0.2179
    205  N         47.5910   40.5250   34.4250 N.am  187  ARG187     -0.1977
    206  CA        48.1910   39.2380   34.0500 C.3   187  ARG187      0.1597
    207  C         48.6900   39.2030   32.6130 C.2   187  ARG187      0.2287
    208  O         49.3850   38.2650   32.2440 O.2   187  ARG187     -0.2864
    209  CB        47.2090   38.0770   34.3200 C.3   187  ARG187      0.0334
    210  CG        46.9540   37.8270   35.8050 C.3   187  ARG187      0.0492
    211  CD        45.8930   36.7660   36.0360 C.3   187  ARG187      0.2205
    212  NE        45.8780   36.2880   37.4270 N.pl3 187  ARG187     -0.0865
    213  CZ        44.8900   36.4550   38.3010 C.cat 187  ARG187      0.5346
    214  NH1       43.7900   37.1230   37.9790 N.pl3 187  ARG187      0.1354
    215  NH2       45.0080   35.9570   39.5350 N.pl3 187  ARG187      0.1354
    216  N         46.4610   33.2720   32.5980 N.3   272  ARG272     -0.1245
    217  CA        45.0840   32.8270   32.4180 C.3   272  ARG272      0.1563
    218  C         44.2330   34.0690   32.1860 C.2   272  ARG272      0.2260
    219  O         44.0580   34.8800   33.0950 O.2   272  ARG272     -0.2867
    220  CB        44.5830   32.0530   33.6280 C.3   272  ARG272      0.0307
    221  CG        43.2750   31.3100   33.3670 C.3   272  ARG272      0.0489
    222  CD        42.8520   30.4690   34.5710 C.3   272  ARG272      0.2205
    223  NE        41.5610   29.8310   34.3430 N.pl3 272  ARG272     -0.0865
    224  CZ        40.3790   30.4350   34.4550 C.cat 272  ARG272      0.5346
    225  NH1       40.2970   31.7280   34.7970 N.pl3 272  ARG272      0.1354
    226  NH2       39.2640   29.7440   34.2150 N.pl3 272  ARG272      0.1354
    227  N         40.6470   36.0930   30.7100 N.3   274  ILE274     -0.1245
    228  CA        39.2160   35.9750   30.4590 C.3   274  ILE274      0.1561
    229  C         38.7090   37.1680   29.6460 C.2   274  ILE274      0.2260
    230  O         39.3930   38.1890   29.5240 O.2   274  ILE274     -0.2867
    231  CB        38.3850   35.8200   31.7610 C.3   274  ILE274      0.0252
    232  CG1       38.4560   37.0910   32.6240 C.3   274  ILE274      0.0019
    233  CG2       38.8660   34.6050   32.5940 C.3   274  ILE274      0.0019
    234  CD1       37.4740   37.0800   33.8070 C.3   274  ILE274      0.0001
@<TRIPOS>BOND
     1   172   171    2
     2   179   180    2
     3   179   178    1
     4   191   192    1
     5   191   190    1
     6   168   166   ar
     7   175   173    1
     8   173   170    1
     9   173   174    1
    10   171   177   am
    11   171   170    1
    12   178   177    1
    13   178   181    1
    14   176   174    1
    15   166   165    1
    16   166   167   ar
    17   190   189    1
    18   184   185    1
    19   165   162    1
    20   182   181    1
    21   189   188    1
    22   170   169    1
    23   230   229    2
    24   169   163   am
    25   229   228    1
    26   181   183    1
    27   185   188    1
    28   185   186    1
    29   163   162    1
    30   163   164    2
    31   162   161    1
    32   228   227    1
    33   228   231    1
    34   186   193   am
    35   186   187    2
    36   161   155   am
    37   193   194    1
    38   126   125    1
    39   231   233    1
    40   231   232    1
    41   132   133    1
    42   132   131    1
    43   133   134    1
    44   124   125    1
    45   124   123    1
    46   218   217    1
    47   218   219    2
    48   208   207    2
    49   197   194    1
    50   197   198    1
    51   131   128    1
    52   121   120    2
    53   134   135    1
    54   128   127    1
    55   128   129    1
    56   217   216    1
    57   217   220    1
    58   196   195    2
    59   122   123    1
    60   122   119    1
    61    37    38    1
    62   207   206    1
    63   232   234    1
    64   155   156    2
    65   155   154    1
    66   194   195    1
    67   130   129    2
    68   127   120   am
    69   120   119    1
    70    38    39    1
    71   159   157    1
    72   195   199   am
    73    31    32    1
    74    31    28    1
    75   129   136   am
    76   221   220    1
    77   221   222    1
    78   119   118    1
    79    33    32   ar
    80    33    35   ar
    81    32    34   ar
    82    29    28    1
    83    29    30    2
    84   154   157    1
    85   154   153    1
    86   206   209    1
    87   206   205    1
    88    28    27    1
    89    35    36   ar
    90   118   116   am
    91    34    36   ar
    92   226   224    1
    93   157   158    1
    94    39    40    2
    95    39    41   am
    96   209   210    1
    97   223   224    2
    98   223   222    1
    99   205   201   am
   100   224   225    1
   101   199   200    1
   102   136   137    1
   103   201   202    2
   104   201   200    1
   105   200   203    1
   106   160   158    1
   107    41    42    1
   108   116   115    1
   109   116   117    2
   110   137   138    1
   111   137   140    1
   112    51    52    1
   113   115   114    1
   114   138   139    2
   115   210   211    1
   116   211   212    1
   117   143   141   ar
   118   142   141   ar
   119   141   140    1
   120    43    42    1
   121    43    44    2
   122    42    45    1
   123   203   204    1
   124    56    55    1
   125    56    57    1
   126    52    55    1
   127    52    53    1
   128   106   105    2
   129    47    49   ar
   130    47    46   ar
   131   114   105   am
   132    49    50   ar
   133   212   213    2
   134    45    46    1
   135    46    48   ar
   136   105   104    1
   137    53    54    2
   138    58    57    1
   139   214   213    1
   140    50    48   ar
   141   213   215    1
   142   144   145    1
   143    86    85    1
   144    86    87    1
   145    85    84    1
   146    89    88    1
   147   104   103    1
   148   104   107    1
   149    97    99   ar
   150    97    96   ar
   151    80    81    1
   152    87    88    2
   153    99   101   ar
   154    79    78    1
   155   103    93   am
   156    88    90    1
   157   107   108    1
   158   148   145    1
   159   148   149    1
   160   145   146    1
   161    77    78   ar
   162    77    75   ar
   163    26    25    2
   164   146   147    2
   165    95    96    1
   166    95    92    1
   167    78    76   ar
   168    84    81    1
   169   152   150   am
   170    96    98   ar
   171    81    82    1
   172    93    92    1
   173    93    94    2
   174    75    73   ar
   175   101   102    1
   176   101   100   ar
   177    25    24    1
   178    92    91    1
   179   150   149    1
   180   150   151    2
   181    76    74   ar
   182    69    70    1
   183    69    68    1
   184    69    72    1
   185    70    71    2
   186   108   110   ar
   187   108   109   ar
   188    73    74   ar
   189    73    72    1
   190    98   100   ar
   191   110   112   ar
   192    82    83    2
   193    14    12    1
   194    24    23    1
   195   109   111   ar
   196    12    13    1
   197    12     9    1
   198    22    21    1
   199    23    17   am
   200     4     3    2
   201    17    18    2
   202    17    16    1
   203    15    16    1
   204    15    10   am
   205     9    10    1
   206     9     8    1
   207   112   113   ar
   208    19    16    1
   209    19    20    1
   210    67    65   am
   211   111   113   ar
   212     3     8   am
   213     3     2    1
   214    20    21    1
   215    10    11    2
   216    62    61    2
   217     7     1    1
   218     7     6    1
   219     1     2    1
   220     6     5    1
   221    65    64    1
   222    65    66    2
   223     2     5    1
   224    64    63    1
   225    61    60    1
   226    63    60    1
   227    60    59    1
