@<TRIPOS>MOLECULE
tmp/2x3jA00.pdb
 202 191 0 0 0
SMALL
GASTEIGER

@<TRIPOS>ATOM
      1  N         -2.2530    2.8200   25.7720 N.3   164  LEU164     -0.1245
      2  CA        -0.8700    2.8670   25.2970 C.3   164  LEU164      0.1561
      3  C         -0.4130    1.4300   25.0630 C.2   164  LEU164      0.2260
      4  O          0.4600    0.8970   25.7930 O.2   164  LEU164     -0.2867
      5  CB         0.0570    3.6020   26.2730 C.3   164  LEU164      0.0270
      6  CG         1.4540    4.0890   25.8060 C.3   164  LEU164      0.0019
      7  CD1        1.3920    5.2260   24.8000 C.3   164  LEU164      0.0001
      8  CD2        2.2660    4.5330   27.0090 C.3   164  LEU164      0.0001
      9  N          3.4310    0.9800   24.5020 N.3   167  GLY167     -0.1210
     10  CA         4.2860    1.6230   25.4840 C.3   167  GLY167      0.1956
     11  C          5.2900    2.5680   24.8630 C.2   167  GLY167      0.2612
     12  O          5.1560    2.9680   23.7090 O.2   167  GLY167     -0.2717
     13  N          6.3040    2.9160   25.6470 N.am  168  HIS168     -0.1962
     14  CA         7.4370    3.6950   25.1710 C.3   168  HIS168      0.1772
     15  C          7.9010    3.2420   23.7760 C.2   168  HIS168      0.2462
     16  O          8.2850    2.0760   23.5780 O.2   168  HIS168     -0.2730
     17  CB         8.5760    3.5890   26.1890 C.3   168  HIS168      0.0785
     18  CG         9.5890    4.6920   26.1040 C.ar  168  HIS168      0.0821
     19  ND1       10.1520    5.1080   24.9130 N.ar  168  HIS168     -0.2267
     20  CD2       10.1840    5.4220   27.0760 C.ar  168  HIS168      0.1154
     21  CE1       11.0360    6.0600   25.1530 C.ar  168  HIS168      0.1986
     22  NE2       11.0880    6.2550   26.4610 N.ar  168  HIS168     -0.2212
     23  N          7.8610    4.1580   22.7970 N.am  169  PRO169     -0.2727
     24  CA         8.1030    3.7330   21.4260 C.3   169  PRO169      0.1402
     25  C          9.5730    3.5040   21.0780 C.2   169  PRO169      0.2269
     26  O          9.8670    2.9970   19.9870 O.2   169  PRO169     -0.2865
     27  CB         7.5120    4.8730   20.5840 C.3   169  PRO169      0.0296
     28  CG         7.5270    6.0840   21.4810 C.3   169  PRO169      0.0237
     29  CD         7.5920    5.6060   22.9080 C.3   169  PRO169      0.0939
     30  N          9.1560   -2.2360   26.4970 N.3   174  PRO174     -0.2116
     31  CA         8.3020   -1.2490   27.1720 C.3   174  PRO174      0.1372
     32  C          7.2480   -1.8240   28.1340 C.2   174  PRO174      0.2244
     33  O          6.7050   -1.0760   28.9480 O.2   174  PRO174     -0.2868
     34  CB         7.6070   -0.5410   26.0030 C.3   174  PRO174      0.0268
     35  CG         7.6440   -1.5480   24.8720 C.3   174  PRO174      0.0207
     36  CD         8.9760   -2.2110   25.0380 C.3   174  PRO174      0.0892
     37  N         -3.0920    3.7600   35.9180 N.3   275  THR275     -0.1203
     38  CA        -2.7850    4.5420   34.7330 C.3   275  THR275      0.1994
     39  C         -1.5590    3.9070   34.0550 C.2   275  THR275      0.2618
     40  O         -1.0760    2.8720   34.5020 O.2   275  THR275     -0.2717
     41  CB        -2.5200    6.0150   35.1000 C.3   275  THR275      0.1784
     42  OG1       -1.4170    6.0890   36.0070 O.3   275  THR275     -0.2211
     43  CG2       -3.7460    6.6230   35.7970 C.3   275  THR275      0.0376
     44  N         -1.0650    4.5480   33.0000 N.am  276  ALA276     -0.1965
     45  CA         0.0700    4.0520   32.2350 C.3   276  ALA276      0.1728
     46  C          1.3380    3.9040   33.0610 C.2   276  ALA276      0.2616
     47  O          2.1660    3.0710   32.7590 O.2   276  ALA276     -0.2715
     48  CB         0.3180    4.9190   31.0310 C.3   276  ALA276      0.0334
     49  N          1.4950    4.7010   34.1060 N.am  277  SER277     -0.1950
     50  CA         2.6660    4.5350   34.9720 C.3   277  SER277      0.1924
     51  C          2.5600    3.3820   35.9900 C.2   277  SER277      0.2314
     52  O          3.4700    3.1680   36.7910 O.2   277  SER277     -0.2863
     53  CB         3.0000    5.8470   35.6680 C.3   277  SER277      0.2116
     54  OG         2.0240    6.1630   36.6400 O.3   277  SER277     -0.2180
     55  N          1.8290    2.3770   38.8580 N.3   279  ARG279     -0.1231
     56  CA         1.6880    2.6150   40.3000 C.3   279  ARG279      0.1694
     57  C          0.9200    3.8930   40.6850 C.2   279  ARG279      0.2592
     58  O          0.8120    4.2280   41.8700 O.2   279  ARG279     -0.2718
     59  CB         3.0480    2.5500   41.0220 C.3   279  ARG279      0.0321
     60  CG         4.2190    3.2490   40.3390 C.3   279  ARG279      0.0489
     61  CD         4.0950    4.7740   40.2830 C.3   279  ARG279      0.2205
     62  NE         5.3970    5.4380   40.0960 N.pl3 279  ARG279     -0.0865
     63  CZ         6.2260    5.7710   41.0910 C.cat 279  ARG279      0.5346
     64  NH1        5.9190    5.4960   42.3560 N.pl3 279  ARG279      0.1354
     65  NH2        7.3730    6.3730   40.8230 N.pl3 279  ARG279      0.1354
     66  N          0.4210    4.6090   39.6820 N.am  280  THR280     -0.1953
     67  CA        -0.5090    5.7340   39.8980 C.3   280  THR280      0.1897
     68  C         -1.9080    5.3340   39.4320 C.2   280  THR280      0.2313
     69  O         -2.0890    4.8660   38.2830 O.2   280  THR280     -0.2863
     70  CB        -0.0350    7.0250   39.1920 C.3   280  THR280      0.1794
     71  OG1        1.2860    7.3500   39.6490 O.3   280  THR280     -0.2208
     72  CG2       -0.9620    8.2310   39.5110 C.3   280  THR280      0.0378
     73  N         -0.7670    7.9340   43.9290 N.3   291  LYS291     -0.1245
     74  CA         0.5100    7.4180   43.4780 C.3   291  LYS291      0.1561
     75  C          1.2070    6.7390   44.6560 C.2   291  LYS291      0.2260
     76  O          1.3990    7.3520   45.7020 O.2   291  LYS291     -0.2867
     77  CB         1.3570    8.5500   42.8970 C.3   291  LYS291      0.0271
     78  CG         2.8340    8.2080   42.6720 C.3   291  LYS291      0.0035
     79  CD         3.5310    9.3480   41.9520 C.3   291  LYS291      0.0206
     80  CE         4.9520    8.9340   41.5760 C.3   291  LYS291      0.1093
     81  NZ         5.6100    9.9970   40.7850 N.3   291  LYS291     -0.1314
     82  N         10.1900   -1.1330   36.0780 N.3   298  ILE298     -0.1231
     83  CA         9.3560   -0.8870   34.9200 C.3   298  ILE298      0.1692
     84  C         10.1220    0.0920   34.0470 C.2   298  ILE298      0.2592
     85  O         10.5170    1.1820   34.5040 O.2   298  ILE298     -0.2718
     86  CB         7.9790   -0.2850   35.2980 C.3   298  ILE298      0.0266
     87  CG1        7.2240   -1.2160   36.2590 C.3   298  ILE298      0.0019
     88  CG2        7.1550    0.0220   34.0180 C.3   298  ILE298      0.0020
     89  CD1        6.1780   -0.5270   37.1080 C.3   298  ILE298      0.0001
     90  N         10.3000   -0.2980   32.7840 N.am  299  THR299     -0.1953
     91  CA        11.2660    0.3280   31.8880 C.3   299  THR299      0.1897
     92  C         12.5710    0.5760   32.6510 C.2   299  THR299      0.2313
     93  O         13.0820   -0.3580   33.2740 O.2   299  THR299     -0.2863
     94  CB        10.7030    1.5520   31.0790 C.3   299  THR299      0.1794
     95  OG1       10.1780    2.5500   31.9570 O.3   299  THR299     -0.2208
     96  CG2        9.6110    1.0920   30.0950 C.3   299  THR299      0.0378
     97  N         10.2990    1.5850   40.6440 N.3   303  ARG303     -0.1245
     98  CA         9.2620    2.6080   40.7550 C.3   303  ARG303      0.1563
     99  C          8.8420    2.8820   42.2180 C.2   303  ARG303      0.2260
    100  O          7.6600    2.9940   42.5400 O.2   303  ARG303     -0.2867
    101  CB         8.0770    2.2570   39.8450 C.3   303  ARG303      0.0307
    102  CG         8.4310    2.1240   38.3570 C.3   303  ARG303      0.0489
    103  CD         9.0440    3.4160   37.8020 C.3   303  ARG303      0.2205
    104  NE         9.5480    3.2680   36.4350 N.pl3 303  ARG303     -0.0865
    105  CZ         9.9880    4.2740   35.6830 C.cat 303  ARG303      0.5346
    106  NH1        9.9780    5.5230   36.1560 N.pl3 303  ARG303      0.1354
    107  NH2       10.4330    4.0360   34.4460 N.pl3 303  ARG303      0.1354
    108  N         -2.0270   13.3360   43.7510 N.3   367  ARG367     -0.1245
    109  CA        -1.9200   14.2820   42.6500 C.3   367  ARG367      0.1563
    110  C         -3.3290   14.7630   42.3320 C.2   367  ARG367      0.2260
    111  O         -4.2480   13.9630   42.2630 O.2   367  ARG367     -0.2867
    112  CB        -1.2800   13.6310   41.4200 C.3   367  ARG367      0.0307
    113  CG        -1.2550   14.5040   40.1680 C.3   367  ARG367      0.0489
    114  CD        -0.5600   13.8110   38.9750 C.3   367  ARG367      0.2205
    115  NE         0.8490   13.5810   39.2840 N.pl3 367  ARG367     -0.0865
    116  CZ         1.4950   12.4260   39.1250 C.cat 367  ARG367      0.5346
    117  NH1        0.8870   11.3780   38.5670 N.pl3 367  ARG367      0.1354
    118  NH2        2.7810   12.3440   39.4890 N.pl3 367  ARG367      0.1354
    119  N          1.5580   10.5740   25.2500 N.3   383  GLY383     -0.1225
    120  CA         2.1260    9.3150   24.7290 C.3   383  GLY383      0.1811
    121  C          1.1270    8.5740   23.8600 C.2   383  GLY383      0.2280
    122  O          1.4510    8.1800   22.7520 O.2   383  GLY383     -0.2866
    123  N         10.5010   17.3100   33.5770 N.3   440  GLU440     -0.1245
    124  CA        10.7940   16.1340   32.7590 C.3   440  GLU440      0.1567
    125  C          9.6420   15.9390   31.7590 C.2   440  GLU440      0.2260
    126  O          8.8080   15.0630   31.9320 O.2   440  GLU440     -0.2867
    127  CB        11.0130   14.8950   33.6430 C.3   440  GLU440      0.0388
    128  CG        11.7990   13.7890   32.9150 C.3   440  GLU440      0.1160
    129  CD        11.9140   12.4740   33.6840 C.2   440  GLU440      0.3649
    130  OE1       11.4410   12.3690   34.8420 O.co2 440  GLU440     -0.2457
    131  OE2       12.4750   11.5200   33.0880 O.co2 440  GLU440     -0.2457
    132  N          8.5500   14.5020   29.1710 N.3   442  HIS442     -0.1226
    133  CA         8.3850   13.4080   28.2180 C.3   442  HIS442      0.1752
    134  C          6.8970   13.1470   27.9730 C.2   442  HIS442      0.2596
    135  O          6.0210   13.7980   28.5840 O.2   442  HIS442     -0.2718
    136  CB         9.1600   12.1380   28.6260 C.3   442  HIS442      0.0759
    137  CG         8.8120   11.5910   29.9760 C.ar  442  HIS442      0.0818
    138  ND1        7.5180   11.2760   30.3460 N.ar  442  HIS442     -0.2268
    139  CD2        9.5970   11.2670   31.0330 C.ar  442  HIS442      0.1154
    140  CE1        7.5260   10.7810   31.5760 C.ar  442  HIS442      0.1986
    141  NE2        8.7750   10.7650   32.0140 N.ar  442  HIS442     -0.2212
    142  N          6.6090   12.2200   27.0670 N.am  443  LEU443     -0.1966
    143  CA         5.2420   12.0180   26.5910 C.3   443  LEU443      0.1728
    144  C          4.2410   11.6220   27.6830 C.2   443  LEU443      0.2616
    145  O          3.0590   12.0360   27.6450 O.2   443  LEU443     -0.2715
    146  CB         5.2180   11.0110   25.4380 C.3   443  LEU443      0.0311
    147  CG         5.6070   11.5450   24.0600 C.3   443  LEU443      0.0022
    148  CD1        5.8020   10.3490   23.1210 C.3   443  LEU443      0.0001
    149  CD2        4.5490   12.5110   23.5070 C.3   443  LEU443      0.0001
    150  N          4.7190   10.8500   28.6540 N.am  444  GLN444     -0.1963
    151  CA         3.8780   10.3800   29.7490 C.3   444  GLN444      0.1733
    152  C          3.6710   11.4000   30.8630 C.2   444  GLN444      0.2616
    153  O          2.7400   11.2650   31.6570 O.2   444  GLN444     -0.2715
    154  CB         4.3870    9.0510   30.3120 C.3   444  GLN444      0.0408
    155  CG         3.4830    8.4030   31.3790 C.3   444  GLN444      0.0908
    156  CD         3.7560    8.9330   32.7920 C.2   444  GLN444      0.2608
    157  OE1        4.7790    9.5710   33.0400 O.2   444  GLN444     -0.2717
    158  NE2        2.8190    8.7110   33.7100 N.am  444  GLN444     -0.0878
    159  N          4.5300   12.4100   30.9260 N.am  445  ASN445     -0.1972
    160  CA         4.3600   13.4910   31.8870 C.3   445  ASN445      0.1688
    161  C          3.5690   14.6630   31.3210 C.2   445  ASN445      0.2292
    162  O          3.5290   15.7260   31.9190 O.2   445  ASN445     -0.2864
    163  CB         5.7260   13.9650   32.3770 C.3   445  ASN445      0.1181
    164  CG         6.3080   13.0510   33.4450 C.2   445  ASN445      0.2629
    165  OD1        5.5930   12.2300   34.0390 O.2   445  ASN445     -0.2716
    166  ND2        7.6070   13.1840   33.6940 N.am  445  ASN445     -0.0877
    167  N          3.0320   17.2120   34.5050 N.3   461  ARG461     -0.1231
    168  CA         2.8890   16.5250   35.7820 C.3   461  ARG461      0.1694
    169  C          4.1740   15.8120   36.2060 C.2   461  ARG461      0.2592
    170  O          5.1170   15.6980   35.4130 O.2   461  ARG461     -0.2718
    171  CB         1.7320   15.5150   35.7330 C.3   461  ARG461      0.0321
    172  CG         1.9330   14.3750   34.7390 C.3   461  ARG461      0.0489
    173  CD         1.0020   13.2080   35.0040 C.3   461  ARG461      0.2205
    174  NE         0.9730   12.3250   33.8440 N.pl3 461  ARG461     -0.0865
    175  CZ        -0.1050   11.6850   33.4080 C.cat 461  ARG461      0.5346
    176  NH1       -1.2770   11.8360   34.0260 N.pl3 461  ARG461      0.1354
    177  NH2       -0.0160   10.9060   32.3390 N.pl3 461  ARG461      0.1354
    178  N          4.1640   15.3350   37.4540 N.am  462  ASP462     -0.1974
    179  CA         5.1990   14.4950   38.0550 C.3   462  ASP462      0.1709
    180  C          6.3200   15.3310   38.6760 C.2   462  ASP462      0.2293
    181  O          7.3100   15.6710   38.0310 O.2   462  ASP462     -0.2864
    182  CB         5.6920   13.4260   37.0720 C.3   462  ASP462      0.1436
    183  CG         6.4920   12.3290   37.7390 C.2   462  ASP462      0.3671
    184  OD1        6.8170   11.3520   37.0330 O.co2 462  ASP462     -0.2456
    185  OD2        6.7930   12.4260   38.9470 O.co2 462  ASP462     -0.2456
    186  N          8.2250   14.4910   41.1390 N.3   464  GLU464     -0.1245
    187  CA         9.2400   13.6740   41.7750 C.3   464  GLU464      0.1567
    188  C         10.4540   13.6100   40.8890 C.2   464  GLU464      0.2260
    189  O         11.5480   13.2710   41.3480 O.2   464  GLU464     -0.2867
    190  CB         8.6770   12.2790   42.0570 C.3   464  GLU464      0.0388
    191  CG         7.4620   12.3030   43.0110 C.3   464  GLU464      0.1160
    192  CD         6.1810   12.7310   42.3040 C.2   464  GLU464      0.3649
    193  OE1        6.1190   13.8560   41.8180 O.co2 464  GLU464     -0.2457
    194  OE2        5.2290   11.9590   42.1990 O.co2 464  GLU464     -0.2457
    195  N         12.2510   12.7090   22.6550 N.3   507  ASN507     -0.1240
    196  CA        11.1690   11.9150   23.2360 C.3   507  ASN507      0.1653
    197  C          9.7890   12.3790   22.7800 C.2   507  ASN507      0.2266
    198  O          8.9260   11.5550   22.4210 O.2   507  ASN507     -0.2867
    199  CB        11.2840   11.9510   24.7840 C.3   507  ASN507      0.1155
    200  CG        10.1950   11.1490   25.4950 C.2   507  ASN507      0.2627
    201  OD1        9.0350   11.5520   25.5320 O.2   507  ASN507     -0.2716
    202  ND2       10.5840   10.0260   26.1020 N.am  507  ASN507     -0.0877
@<TRIPOS>BOND
     1    26    25    2
     2    27    24    1
     3    27    28    1
     4    25    24    1
     5    24    23    1
     6    28    29    1
     7   198   197    2
     8   195   196    1
     9   122   121    2
    10   197   196    1
    11    23    29    1
    12    23    15   am
    13   148   147    1
    14   196   199    1
    15   149   147    1
    16    16    15    2
    17    12    11    2
    18    15    14    1
    19   121   120    1
    20   147   146    1
    21     9    10    1
    22   120   119    1
    23   199   200    1
    24     7     6    1
    25    11    10    1
    26    11    13   am
    27    35    36    1
    28    35    34    1
    29    19    21   ar
    30    19    18   ar
    31    36    30    1
    32     3     2    1
    33     3     4    2
    34    21    22   ar
    35    14    13    1
    36    14    17    1
    37     2     1    1
    38     2     5    1
    39   146   143    1
    40   200   201    2
    41   200   202   am
    42     6     5    1
    43     6     8    1
    44    34    31    1
    45    18    17    1
    46    18    20   ar
    47    22    20   ar
    48    30    31    1
    49   143   142    1
    50   143   144    1
    51   142   134   am
    52    31    32    1
    53   145   144    2
    54   144   150   am
    55   134   133    1
    56   134   135    2
    57    32    33    2
    58   133   136    1
    59   133   132    1
    60   136   137    1
    61   150   151    1
    62   151   154    1
    63   151   152    1
    64   137   138   ar
    65   137   139   ar
    66    96    94    1
    67   154   155    1
    68   138   140   ar
    69   152   159   am
    70   152   153    2
    71   159   160    1
    72    48    45    1
    73   139   141   ar
    74    94    91    1
    75    94    95    1
    76   161   160    1
    77   161   162    2
    78   155   156    1
    79   140   141   ar
    80   125   126    2
    81   125   124    1
    82   160   163    1
    83    91    92    1
    84    91    90    1
    85    45    44    1
    86    45    46    1
    87   177   175    1
    88   163   164    1
    89    92    93    2
    90    47    46    2
    91   124   123    1
    92   124   127    1
    93    90    84   am
    94   156   157    2
    95   156   158   am
    96   128   127    1
    97   128   129    1
    98    44    39   am
    99    46    49   am
   100   131   129   ar
   101   175   174    2
   102   175   176    1
   103   164   166   am
   104   164   165    2
   105   129   130   ar
   106   174   173    1
   107    88    86    1
   108    84    85    2
   109    84    83    1
   110    39    40    2
   111    39    38    1
   112    49    50    1
   113   107   105    1
   114   167   168    1
   115    38    41    1
   116    38    37    1
   117   172   173    1
   118   172   171    1
   119    83    86    1
   120    83    82    1
   121    50    53    1
   122    50    51    1
   123    41    43    1
   124    41    42    1
   125    86    87    1
   126   170   169    2
   127    53    54    1
   128   105   106    1
   129   105   104    2
   130   171   168    1
   131   168   169    1
   132    51    52    2
   133   169   178   am
   134    87    89    1
   135   104   103    1
   136   184   183   ar
   137   182   183    1
   138   182   179    1
   139   178   179    1
   140   183   185   ar
   141   103   102    1
   142   181   180    2
   143   179   180    1
   144    69    68    2
   145   102   101    1
   146   117   116    1
   147    55    56    1
   148   114   115    1
   149   114   113    1
   150   116   115    2
   151   116   118    1
   152    70    72    1
   153    70    71    1
   154    70    67    1
   155    68    67    1
   156    66    67    1
   157    66    57   am
   158   101    98    1
   159    62    61    1
   160    62    63    2
   161   113   112    1
   162    61    60    1
   163    56    57    1
   164    56    59    1
   165    60    59    1
   166    97    98    1
   167    57    58    2
   168    98    99    1
   169    81    80    1
   170    65    63    1
   171   188   189    2
   172   188   187    1
   173    63    64    1
   174   186   187    1
   175   112   109    1
   176    80    79    1
   177   187   190    1
   178   193   192   ar
   179    79    78    1
   180   190   191    1
   181   194   192   ar
   182    99   100    2
   183   111   110    2
   184   192   191    1
   185   110   109    1
   186   109   108    1
   187    78    77    1
   188    77    74    1
   189    74    73    1
   190    74    75    1
   191    75    76    2
