@<TRIPOS>MOLECULE
tmp/2x3jB01.pdb
 155 145 0 0 0
SMALL
GASTEIGER

@<TRIPOS>ATOM
      1  N         -1.7190   -8.2520  -24.8670 N.3   167  HIS167     -0.1241
      2  CA        -2.6550   -9.2730  -24.3900 C.3   167  HIS167      0.1621
      3  C         -2.3930   -9.6100  -22.9050 C.2   167  HIS167      0.2264
      4  O         -1.2780   -9.9900  -22.5470 O.2   167  HIS167     -0.2867
      5  CB        -2.5370  -10.5340  -25.2580 C.3   167  HIS167      0.0745
      6  CG        -3.6910  -11.4860  -25.1250 C.ar  167  HIS167      0.0817
      7  ND1       -4.1140  -11.9920  -23.9150 N.ar  167  HIS167     -0.2268
      8  CD2       -4.4910  -12.0470  -26.0620 C.ar  167  HIS167      0.1154
      9  CE1       -5.1320  -12.8120  -24.1090 C.ar  167  HIS167      0.1986
     10  NE2       -5.3840  -12.8610  -25.4060 N.ar  167  HIS167     -0.2212
     11  N         -1.4650  -13.9330  -21.9130 N.3   170  HIS170     -0.1241
     12  CA        -0.6750  -14.5230  -22.9710 C.3   170  HIS170      0.1621
     13  C          0.7440  -14.6220  -22.4370 C.2   170  HIS170      0.2264
     14  O          1.2180  -13.6960  -21.7720 O.2   170  HIS170     -0.2867
     15  CB        -0.7280  -13.6590  -24.2330 C.3   170  HIS170      0.0745
     16  CG        -0.2840  -14.3690  -25.4740 C.ar  170  HIS170      0.0817
     17  ND1        1.0480  -14.5330  -25.8010 N.ar  170  HIS170     -0.2268
     18  CD2       -0.9920  -14.9570  -26.4710 C.ar  170  HIS170      0.1154
     19  CE1        1.1390  -15.1970  -26.9420 C.ar  170  HIS170      0.1986
     20  NE2       -0.0820  -15.4640  -27.3710 N.ar  170  HIS170     -0.2212
     21  N          1.5480  -12.4800  -31.1800 N.3   297  THR297     -0.1203
     22  CA         0.8500  -13.4130  -30.3020 C.3   297  THR297      0.1994
     23  C          0.7440  -14.7960  -30.9620 C.2   297  THR297      0.2618
     24  O          1.7820  -15.4090  -31.2360 O.2   297  THR297     -0.2717
     25  CB        -0.4770  -12.8340  -29.7300 C.3   297  THR297      0.1784
     26  OG1       -1.1750  -12.0950  -30.7400 O.3   297  THR297     -0.2211
     27  CG2       -0.1690  -11.8890  -28.5580 C.3   297  THR297      0.0376
     28  N         -0.4710  -15.2650  -31.2530 N.am  298  ASN298     -0.1960
     29  CA        -0.6740  -16.6420  -31.7480 C.3   298  ASN298      0.1819
     30  C         -0.4400  -16.8970  -33.2480 C.2   298  ASN298      0.2621
     31  O         -0.1530  -18.0340  -33.6340 O.2   298  ASN298     -0.2715
     32  CB        -2.0690  -17.1570  -31.3840 C.3   298  ASN298      0.1195
     33  CG        -2.2450  -17.4110  -29.8920 C.2   298  ASN298      0.2630
     34  OD1       -1.3090  -17.2730  -29.0980 O.2   298  ASN298     -0.2716
     35  ND2       -3.4580  -17.7960  -29.5080 N.am  298  ASN298     -0.0877
     36  N         -0.5780  -15.8650  -34.0840 N.am  299  CYS299     -0.1968
     37  CA        -0.5970  -16.0500  -35.5530 C.3   299  CYS299      0.1712
     38  C          0.5210  -15.3230  -36.2920 C.2   299  CYS299      0.2296
     39  O          0.9030  -14.2100  -35.9110 O.2   299  CYS299     -0.2864
     40  CB        -1.9410  -15.5750  -36.1310 C.3   299  CYS299      0.0983
     41  SG        -3.4250  -16.1230  -35.2240 S.3   299  CYS299     -0.0798
     42  N          1.1290  -13.0390  -39.0960 N.3   301  ARG301     -0.1245
     43  CA         0.1140  -12.0410  -39.4640 C.3   301  ARG301      0.1563
     44  C          0.0260  -11.7450  -40.9720 C.2   301  ARG301      0.2260
     45  O          0.1550  -10.5900  -41.4160 O.2   301  ARG301     -0.2867
     46  CB         0.2870  -10.7690  -38.6180 C.3   301  ARG301      0.0307
     47  CG         0.1700  -11.0090  -37.1080 C.3   301  ARG301      0.0489
     48  CD        -1.2110  -11.5190  -36.7300 C.3   301  ARG301      0.2205
     49  NE        -1.3310  -11.8470  -35.3130 N.pl3 301  ARG301     -0.0865
     50  CZ        -2.4630  -12.2380  -34.7310 C.cat 301  ARG301      0.5346
     51  NH1       -2.4910  -12.5160  -33.4330 N.pl3 301  ARG301      0.1354
     52  NH2       -3.5730  -12.3550  -35.4470 N.pl3 301  ARG301      0.1354
     53  N        -15.5650  -11.6730  -33.8000 N.3   438  GLU438     -0.1245
     54  CA       -14.5620  -11.9940  -32.7910 C.3   438  GLU438      0.1567
     55  C        -14.3570  -10.7700  -31.8830 C.2   438  GLU438      0.2260
     56  O        -13.3790  -10.0320  -32.0420 O.2   438  GLU438     -0.2867
     57  CB       -13.2590  -12.3950  -33.4550 C.3   438  GLU438      0.0388
     58  CG       -12.2970  -13.1100  -32.5190 C.3   438  GLU438      0.1160
     59  CD       -10.9990  -13.4710  -33.1990 C.2   438  GLU438      0.3649
     60  OE1      -10.8130  -13.0850  -34.3700 O.co2 438  GLU438     -0.2457
     61  OE2      -10.1610  -14.1400  -32.5600 O.co2 438  GLU438     -0.2457
     62  N        -13.1450   -9.5790  -29.2210 N.3   440  HIS440     -0.1241
     63  CA       -12.1330   -9.4730  -28.1930 C.3   440  HIS440      0.1621
     64  C        -11.6800   -8.0330  -28.0720 C.2   440  HIS440      0.2264
     65  O        -12.0900   -7.1790  -28.8720 O.2   440  HIS440     -0.2867
     66  CB       -10.9690  -10.4340  -28.4730 C.3   440  HIS440      0.0745
     67  CG       -10.2150  -10.1450  -29.7320 C.ar  440  HIS440      0.0817
     68  ND1       -9.8080   -8.8760  -30.0880 N.ar  440  HIS440     -0.2268
     69  CD2       -9.7420  -10.9770  -30.6930 C.ar  440  HIS440      0.1154
     70  CE1       -9.1300   -8.9370  -31.2240 C.ar  440  HIS440      0.1986
     71  NE2       -9.0790  -10.2020  -31.6130 N.ar  440  HIS440     -0.2212
     72  N        -12.7010   -5.9080  -37.9410 N.3   460  ASP460     -0.1239
     73  CA       -11.8460   -7.0250  -38.3620 C.3   460  ASP460      0.1674
     74  C        -12.6330   -8.1350  -39.0300 C.2   460  ASP460      0.2266
     75  O        -12.8960   -9.1870  -38.4370 O.2   460  ASP460     -0.2867
     76  CB       -10.9470   -7.5500  -37.2390 C.3   460  ASP460      0.1410
     77  CG        -9.7540   -8.3360  -37.7630 C.2   460  ASP460      0.3668
     78  OD1       -8.8520   -8.6320  -36.9420 O.co2 460  ASP460     -0.2456
     79  OD2       -9.6960   -8.6240  -38.9840 O.co2 460  ASP460     -0.2456
     80  N        -11.7820  -10.1870  -41.2540 N.3   462  GLU462     -0.1231
     81  CA       -11.0090  -11.4110  -41.4410 C.3   462  GLU462      0.1699
     82  C        -11.3650  -12.4080  -40.3550 C.2   462  GLU462      0.2592
     83  O        -11.3860  -13.6240  -40.5860 O.2   462  GLU462     -0.2718
     84  CB        -9.4960  -11.0990  -41.4830 C.3   462  GLU462      0.0402
     85  CG        -8.5730  -12.1000  -40.7560 C.3   462  GLU462      0.1161
     86  CD        -7.2450  -11.4670  -40.3070 C.2   462  GLU462      0.3649
     87  OE1       -7.2670  -10.4440  -39.5870 O.co2 462  GLU462     -0.2457
     88  OE2       -6.1670  -11.9960  -40.6640 O.co2 462  GLU462     -0.2457
     89  N        -11.6810  -11.8940  -39.1770 N.am  463  GLY463     -0.1957
     90  CA       -12.1490  -12.7390  -38.0990 C.3   463  GLY463      0.1869
     91  C        -13.5510  -13.3060  -38.2500 C.2   463  GLY463      0.2309
     92  O        -13.8960  -14.2820  -37.5690 O.2   463  GLY463     -0.2863
     93  N        -16.8890  -15.1810  -39.1190 N.3   465  LYS465     -0.1245
     94  CA       -17.2970  -16.5050  -39.5920 C.3   465  LYS465      0.1561
     95  C        -18.8140  -16.5740  -39.7310 C.2   465  LYS465      0.2260
     96  O        -19.5440  -15.7490  -39.1780 O.2   465  LYS465     -0.2867
     97  CB       -16.7880  -17.6100  -38.6520 C.3   465  LYS465      0.0271
     98  CG       -15.2890  -17.6020  -38.4140 C.3   465  LYS465      0.0035
     99  CD       -14.4970  -17.7380  -39.7140 C.3   465  LYS465      0.0206
    100  CE       -13.0010  -17.9990  -39.4320 C.3   465  LYS465      0.1093
    101  NZ       -12.1440  -17.7330  -40.6100 N.3   465  LYS465     -0.1314
    102  N        -16.4250  -19.3720  -29.5740 N.3   497  ARG497     -0.1245
    103  CA       -15.6470  -18.1550  -29.7950 C.3   497  ARG497      0.1563
    104  C        -16.3490  -16.9280  -29.1700 C.2   497  ARG497      0.2260
    105  O        -15.7160  -16.1080  -28.4840 O.2   497  ARG497     -0.2867
    106  CB       -15.3680  -17.9260  -31.2920 C.3   497  ARG497      0.0307
    107  CG       -15.2570  -16.4300  -31.6900 C.3   497  ARG497      0.0489
    108  CD       -14.8400  -16.2210  -33.1380 C.3   497  ARG497      0.2205
    109  NE       -13.4840  -16.7110  -33.3110 N.pl3 497  ARG497     -0.0865
    110  CZ       -12.8020  -16.6740  -34.4480 C.cat 497  ARG497      0.5346
    111  NH1      -11.5540  -17.1490  -34.4700 N.pl3 497  ARG497      0.1354
    112  NH2      -13.3530  -16.1760  -35.5500 N.pl3 497  ARG497      0.1354
    113  N        -16.0770  -17.1540  -25.3350 N.3   500  TYR500     -0.1227
    114  CA       -14.7420  -16.7950  -24.9110 C.3   500  TYR500      0.1736
    115  C        -14.4750  -15.3110  -25.0860 C.2   500  TYR500      0.2595
    116  O        -13.9920  -14.6610  -24.1680 O.2   500  TYR500     -0.2718
    117  CB       -13.6680  -17.5690  -25.6720 C.3   500  TYR500      0.0548
    118  CG       -12.3380  -16.8730  -25.5330 C.ar  500  TYR500     -0.0200
    119  CD1      -11.6950  -16.8100  -24.2950 C.ar  500  TYR500     -0.0009
    120  CD2      -11.7470  -16.2370  -26.6190 C.ar  500  TYR500     -0.0009
    121  CE1      -10.4860  -16.1530  -24.1530 C.ar  500  TYR500      0.0417
    122  CE2      -10.5270  -15.5680  -26.4800 C.ar  500  TYR500      0.0417
    123  CZ        -9.9190  -15.5290  -25.2400 C.ar  500  TYR500      0.1957
    124  OH        -8.7270  -14.8670  -25.0970 O.3   500  TYR500     -0.2866
    125  N        -14.7490  -14.7820  -26.2710 N.am  501  CYS501     -0.1970
    126  CA       -14.4250  -13.3780  -26.5450 C.3   501  CYS501      0.1712
    127  C        -15.2060  -12.4190  -25.6720 C.2   501  CYS501      0.2296
    128  O        -14.6400  -11.4860  -25.1610 O.2   501  CYS501     -0.2864
    129  CB       -14.6800  -13.0030  -28.0060 C.3   501  CYS501      0.0983
    130  SG       -13.4660  -13.6600  -29.1440 S.3   501  CYS501     -0.0798
    131  N        -12.3680  -12.9160  -22.4390 N.3   505  ASN505     -0.1240
    132  CA       -11.3310  -12.0300  -22.9410 C.3   505  ASN505      0.1653
    133  C        -11.6840  -10.5630  -22.6720 C.2   505  ASN505      0.2266
    134  O        -10.8140   -9.7690  -22.3600 O.2   505  ASN505     -0.2867
    135  CB       -11.0970  -12.3130  -24.4320 C.3   505  ASN505      0.1155
    136  CG       -10.1830  -11.3070  -25.1020 C.2   505  ASN505      0.2627
    137  OD1      -10.4750  -10.0910  -25.1500 O.2   505  ASN505     -0.2716
    138  ND2       -9.0930  -11.8070  -25.6700 N.am  505  ASN505     -0.0877
    139  N        -10.6630  -19.8730  -24.4550 N.3   559  LYS559     -0.1245
    140  CA        -9.5500  -20.1820  -25.3520 C.3   559  LYS559      0.1561
    141  C         -8.2170  -20.2470  -24.5910 C.2   559  LYS559      0.2260
    142  O         -7.9530  -19.4330  -23.7100 O.2   559  LYS559     -0.2867
    143  CB        -9.4970  -19.1460  -26.4750 C.3   559  LYS559      0.0271
    144  CG        -8.3630  -19.3330  -27.4580 C.3   559  LYS559      0.0035
    145  CD        -8.5850  -18.4450  -28.6650 C.3   559  LYS559      0.0206
    146  CE        -7.3010  -18.1740  -29.4120 C.3   559  LYS559      0.1093
    147  NZ        -7.6040  -17.3940  -30.6460 N.3   559  LYS559     -0.1314
    148  N         -4.4920  -19.7260  -24.7100 N.3   561  ASN561     -0.1240
    149  CA        -3.3470  -19.1500  -25.4360 C.3   561  ASN561      0.1653
    150  C         -2.0000  -19.8160  -25.1530 C.2   561  ASN561      0.2266
    151  O         -1.2080  -20.0180  -26.0730 O.2   561  ASN561     -0.2867
    152  CB        -3.2550  -17.6330  -25.2400 C.3   561  ASN561      0.1155
    153  CG        -4.4580  -16.9090  -25.7860 C.2   561  ASN561      0.2627
    154  OD1       -4.9790  -17.2350  -26.8570 O.2   561  ASN561     -0.2716
    155  ND2       -4.9130  -15.9170  -25.0510 N.am  561  ASN561     -0.0877
@<TRIPOS>BOND
     1    84    81    1
     2    84    85    1
     3    81    80    1
     4    81    82    1
     5    45    44    2
     6    44    43    1
     7    85    86    1
     8    88    86   ar
     9   101   100    1
    10    83    82    2
    11    82    89   am
    12    86    87   ar
    13    95    94    1
    14    95    96    2
    15    99   100    1
    16    99    98    1
    17    94    93    1
    18    94    97    1
    19    43    42    1
    20    43    46    1
    21    89    90    1
    22    74    75    2
    23    74    73    1
    24    79    77   ar
    25    97    98    1
    26    46    47    1
    27    73    72    1
    28    73    76    1
    29    91    90    1
    30    91    92    2
    31    77    76    1
    32    77    78   ar
    33    47    48    1
    34    48    49    1
    35    38    39    2
    36    38    37    1
    37    40    37    1
    38    40    41    1
    39    37    36    1
    40   112   110    1
    41    52    50    1
    42    49    50    2
    43    50    51    1
    44   111   110    1
    45   110   109    2
    46    60    59   ar
    47    36    30   am
    48    53    54    1
    49    31    30    2
    50    57    54    1
    51    57    58    1
    52   109   108    1
    53    30    29    1
    54    59    61   ar
    55    59    58    1
    56   108   107    1
    57    54    55    1
    58    56    55    2
    59    29    32    1
    60    29    28    1
    61   107   106    1
    62    71    70   ar
    63    71    69   ar
    64    32    33    1
    65   106   103    1
    66    28    23   am
    67    24    23    2
    68    70    68   ar
    69    21    22    1
    70    23    22    1
    71    26    25    1
    72    69    67   ar
    73   147   146    1
    74    22    25    1
    75    68    67   ar
    76    33    35   am
    77    33    34    2
    78   103   102    1
    79   103   104    1
    80    67    66    1
    81    25    27    1
    82   146   145    1
    83    62    63    1
    84   104   105    2
    85   130   129    1
    86    65    64    2
    87   145   144    1
    88    66    63    1
    89    63    64    1
    90   129   126    1
    91   144   143    1
    92    20    19   ar
    93    20    18   ar
    94    19    17   ar
    95   154   153    2
    96   120   122   ar
    97   120   118   ar
    98   126   125    1
    99   126   127    1
   100   122   123   ar
   101   143   140    1
   102    18    16   ar
   103   125   115   am
   104   151   150    2
   105     8    10   ar
   106     8     6   ar
   107    17    16   ar
   108   153   152    1
   109   153   155   am
   110   127   128    2
   111   117   118    1
   112   117   114    1
   113   138   136   am
   114   118   119   ar
   115    16    15    1
   116   149   152    1
   117   149   150    1
   118   149   148    1
   119    10     9   ar
   120   140   141    1
   121   140   139    1
   122   113   114    1
   123     5     6    1
   124     5     2    1
   125   123   124    1
   126   123   121   ar
   127   137   136    2
   128     6     7   ar
   129   136   135    1
   130   115   114    1
   131   115   116    2
   132     1     2    1
   133   141   142    2
   134   135   132    1
   135     2     3    1
   136   119   121   ar
   137    15    12    1
   138     9     7   ar
   139    12    13    1
   140    12    11    1
   141   132   133    1
   142   132   131    1
   143     3     4    2
   144   133   134    2
   145    13    14    2
