@<TRIPOS>MOLECULE
tmp/2x3kB00.pdb
 168 158 0 0 0
SMALL
GASTEIGER

@<TRIPOS>ATOM
      1  N         -4.8540   26.3160   -5.9970 N.3   158  LEU158     -0.1245
      2  CA        -5.0440   25.0180   -5.3390 C.3   158  LEU158      0.1561
      3  C         -3.6460   24.5780   -4.9380 C.2   158  LEU158      0.2260
      4  O         -3.0810   23.6330   -5.5290 O.2   158  LEU158     -0.2867
      5  CB        -5.7010   23.9910   -6.2840 C.3   158  LEU158      0.0270
      6  CG        -6.2780   22.5960   -5.9150 C.3   158  LEU158      0.0019
      7  CD1       -7.3420   22.6920   -4.8560 C.3   158  LEU158      0.0001
      8  CD2       -6.8950   21.8990   -7.1290 C.3   158  LEU158      0.0001
      9  N         -3.3480   20.8500   -4.0310 N.3   161  GLY161     -0.1210
     10  CA        -4.0400   19.9880   -4.9410 C.3   161  GLY161      0.1956
     11  C         -5.1190   19.2080   -4.2560 C.2   161  GLY161      0.2612
     12  O         -5.6480   19.6520   -3.2440 O.2   161  GLY161     -0.2717
     13  N         -5.4430   18.0380   -4.8260 N.am  162  HIS162     -0.1962
     14  CA        -6.5000   17.1440   -4.3580 C.3   162  HIS162      0.1772
     15  C         -6.2640   16.8600   -2.8880 C.2   162  HIS162      0.2462
     16  O         -5.1350   16.5820   -2.5020 O.2   162  HIS162     -0.2730
     17  CB        -6.3660   15.8350   -5.1330 C.3   162  HIS162      0.0785
     18  CG        -7.5420   14.9260   -4.9990 C.ar  162  HIS162      0.0821
     19  ND1       -7.9230   14.3730   -3.7970 N.ar  162  HIS162     -0.2267
     20  CD2       -8.4170   14.4680   -5.9220 C.ar  162  HIS162      0.1154
     21  CE1       -9.0040   13.6380   -3.9810 C.ar  162  HIS162      0.1986
     22  NE2       -9.3180   13.6750   -5.2630 N.ar  162  HIS162     -0.2212
     23  N         -7.3120   16.8730   -2.0640 N.am  163  PRO163     -0.2727
     24  CA        -7.0270   16.7500   -0.6310 C.3   163  PRO163      0.1402
     25  C         -7.0840   15.3170   -0.0470 C.2   163  PRO163      0.2269
     26  O         -6.8260   15.1290    1.1560 O.2   163  PRO163     -0.2865
     27  CB        -8.1060   17.6270    0.0040 C.3   163  PRO163      0.0296
     28  CG        -9.1840   17.7890   -1.1060 C.3   163  PRO163      0.0237
     29  CD        -8.7410   17.0320   -2.3260 C.3   163  PRO163      0.0939
     30  N         -5.3550   12.2470   -1.4320 N.3   165  HIS165     -0.1241
     31  CA        -4.5270   11.7810   -2.5340 C.3   165  HIS165      0.1621
     32  C         -3.1110   11.7930   -2.0040 C.2   165  HIS165      0.2264
     33  O         -2.7090   12.7360   -1.3050 O.2   165  HIS165     -0.2867
     34  CB        -4.6660   12.7510   -3.6980 C.3   165  HIS165      0.0745
     35  CG        -4.1120   12.2520   -5.0000 C.ar  165  HIS165      0.0817
     36  ND1       -2.7980   11.8610   -5.1600 N.ar  165  HIS165     -0.2268
     37  CD2       -4.6880   12.1410   -6.2210 C.ar  165  HIS165      0.1154
     38  CE1       -2.5980   11.5080   -6.4160 C.ar  165  HIS165      0.1986
     39  NE2       -3.7340   11.6530   -7.0750 N.ar  165  HIS165     -0.2212
     40  N         -0.6000   14.5490   -4.6610 N.3   168  PRO168     -0.2116
     41  CA        -1.4490   15.5000   -5.3520 C.3   168  PRO168      0.1372
     42  C         -0.6910   16.2490   -6.4190 C.2   168  PRO168      0.2244
     43  O         -1.2410   16.5350   -7.4660 O.2   168  PRO168     -0.2868
     44  CB        -1.8500   16.4820   -4.2330 C.3   168  PRO168      0.0268
     45  CG        -1.7760   15.7130   -3.0180 C.3   168  PRO168      0.0207
     46  CD        -0.5300   14.8730   -3.2200 C.3   168  PRO168      0.0892
     47  N         -5.7510   24.6840  -13.1800 N.3   270  ALA270     -0.1231
     48  CA        -5.3780   23.5850  -12.2940 C.3   270  ALA270      0.1694
     49  C         -5.2920   22.2160  -12.9710 C.2   270  ALA270      0.2592
     50  O         -4.7890   21.2650  -12.3890 O.2   270  ALA270     -0.2718
     51  CB        -6.3040   23.5130  -11.1260 C.3   270  ALA270      0.0304
     52  N         -5.7860   22.0940  -14.1910 N.am  271  SER271     -0.1952
     53  CA        -5.6920   20.8270  -14.8380 C.3   271  SER271      0.1924
     54  C         -4.4860   20.7890  -15.7860 C.2   271  SER271      0.2314
     55  O         -4.2590   19.7820  -16.4780 O.2   271  SER271     -0.2863
     56  CB        -6.9600   20.5580  -15.5970 C.3   271  SER271      0.2116
     57  OG        -6.9590   21.4110  -16.7020 O.3   271  SER271     -0.2180
     58  N         -3.4070   21.2090  -18.5910 N.3   273  ARG273     -0.1245
     59  CA        -3.5180   21.0850  -20.0660 C.3   273  ARG273      0.1563
     60  C         -4.7170   21.8670  -20.6540 C.2   273  ARG273      0.2260
     61  O         -4.9170   21.9230  -21.8820 O.2   273  ARG273     -0.2867
     62  CB        -3.5190   19.5960  -20.5120 C.3   273  ARG273      0.0307
     63  CG        -4.3710   18.6230  -19.6890 C.3   273  ARG273      0.0489
     64  CD        -5.7100   18.4780  -20.3540 C.3   273  ARG273      0.2205
     65  NE        -6.5690   17.3440  -19.9830 N.pl3 273  ARG273     -0.0865
     66  CZ        -6.9940   16.4040  -20.8250 C.cat 273  ARG273      0.5346
     67  NH1       -6.6040   16.3960  -22.0830 N.pl3 273  ARG273      0.1354
     68  NH2       -7.8450   15.4800  -20.4130 N.pl3 273  ARG273      0.1354
     69  N         -8.2680   23.4110  -24.4390 N.3   285  LYS285     -0.1245
     70  CA        -8.0180   22.1410  -23.7270 C.3   285  LYS285      0.1561
     71  C         -7.3270   21.1880  -24.6460 C.2   285  LYS285      0.2260
     72  O         -7.9720   20.5570  -25.4880 O.2   285  LYS285     -0.2867
     73  CB        -9.3150   21.4940  -23.2200 C.3   285  LYS285      0.0271
     74  CG        -9.1680   20.0390  -22.7440 C.3   285  LYS285      0.0035
     75  CD       -10.4440   19.5410  -22.0550 C.3   285  LYS285      0.0206
     76  CE       -10.1950   18.2730  -21.2400 C.3   285  LYS285      0.1093
     77  NZ       -11.4480   17.8070  -20.6000 N.3   285  LYS285     -0.1314
     78  N          0.8020   13.4880  -15.4280 N.3   292  ILE292     -0.1231
     79  CA         0.2930   14.3860  -14.3920 C.3   292  ILE292      0.1692
     80  C         -0.5260   13.5600  -13.3980 C.2   292  ILE292      0.2592
     81  O         -1.5230   12.9160  -13.7670 O.2   292  ILE292     -0.2718
     82  CB        -0.5760   15.5160  -14.9900 C.3   292  ILE292      0.0266
     83  CG1        0.2050   16.3270  -16.0290 C.3   292  ILE292      0.0019
     84  CG2       -1.1280   16.4150  -13.8980 C.3   292  ILE292      0.0020
     85  CD1        1.5240   16.9130  -15.5570 C.3   292  ILE292      0.0001
     86  N         -0.0930   13.5550  -12.1380 N.am  293  THR293     -0.1953
     87  CA        -0.7900   12.7820  -11.1110 C.3   293  THR293      0.1897
     88  C         -0.8230   11.2960  -11.4900 C.2   293  THR293      0.2313
     89  O         -1.8260   10.6040  -11.3030 O.2   293  THR293     -0.2863
     90  CB        -2.2160   13.3140  -10.9200 C.3   293  THR293      0.1794
     91  OG1       -2.1590   14.6040  -10.3020 O.3   293  THR293     -0.2208
     92  CG2       -3.0470   12.3460  -10.0810 C.3   293  THR293      0.0378
     93  N         -2.6270   12.5420  -19.5100 N.3   297  ARG297     -0.1245
     94  CA        -3.9010   13.2110  -19.7470 C.3   297  ARG297      0.1563
     95  C         -3.9700   13.7200  -21.1950 C.2   297  ARG297      0.2260
     96  O         -3.2330   14.6160  -21.5920 O.2   297  ARG297     -0.2867
     97  CB        -4.1440   14.2860  -18.6830 C.3   297  ARG297      0.0307
     98  CG        -4.6530   13.6710  -17.3560 C.3   297  ARG297      0.0489
     99  CD        -4.3620   14.5050  -16.0750 C.3   297  ARG297      0.2205
    100  NE        -3.9860   13.6520  -14.9340 N.pl3 297  ARG297     -0.0865
    101  CZ        -4.8110   12.8500  -14.2540 C.cat 297  ARG297      0.5346
    102  NH1       -4.3410   12.1120  -13.2630 N.pl3 297  ARG297      0.1354
    103  NH2       -6.0990   12.7580  -14.5670 N.pl3 297  ARG297      0.1354
    104  N        -12.5670   23.7170   -5.6430 N.3   377  GLY377     -0.1225
    105  CA       -11.4610   23.1310   -4.8640 C.3   377  GLY377      0.1811
    106  C        -10.7550   24.2060   -4.0840 C.2   377  GLY377      0.2280
    107  O        -10.6140   24.1150   -2.8570 O.2   377  GLY377     -0.2866
    108  N        -19.8300   14.7620  -13.4800 N.3   434  GLU434     -0.1245
    109  CA       -18.8020   14.3370  -12.5370 C.3   434  GLU434      0.1567
    110  C        -18.4470   15.5320  -11.6630 C.2   434  GLU434      0.2260
    111  O        -17.4650   16.1990  -11.9420 O.2   434  GLU434     -0.2867
    112  CB       -17.5830   13.7950  -13.2900 C.3   434  GLU434      0.0388
    113  CG       -16.4620   13.2910  -12.3950 C.3   434  GLU434      0.1160
    114  CD       -15.2100   12.7580  -13.1520 C.2   434  GLU434      0.3649
    115  OE1      -14.8000   13.2850  -14.2360 O.co2 434  GLU434     -0.2457
    116  OE2      -14.6140   11.7900  -12.6130 O.co2 434  GLU434     -0.2457
    117  N        -16.9550   16.5490   -8.8870 N.3   436  HIS436     -0.1226
    118  CA       -15.9140   16.6490   -7.9130 C.3   436  HIS436      0.1752
    119  C        -15.5070   18.1100   -7.8070 C.2   436  HIS436      0.2596
    120  O        -16.0900   18.9560   -8.4930 O.2   436  HIS436     -0.2718
    121  CB       -14.7790   15.7000   -8.2420 C.3   436  HIS436      0.0759
    122  CG       -14.0630   15.9670   -9.5340 C.ar  436  HIS436      0.0818
    123  ND1      -13.5540   17.2040   -9.8730 N.ar  436  HIS436     -0.2268
    124  CD2      -13.6470   15.1130  -10.5070 C.ar  436  HIS436      0.1154
    125  CE1      -12.9100   17.1060  -11.0270 C.ar  436  HIS436      0.1986
    126  NE2      -12.9350   15.8460  -11.4210 N.ar  436  HIS436     -0.2212
    127  N        -14.5600   18.4390   -6.9320 N.am  437  LEU437     -0.1966
    128  CA       -14.3620   19.8390   -6.5480 C.3   437  LEU437      0.1728
    129  C        -13.8040   20.6450   -7.7060 C.2   437  LEU437      0.2616
    130  O        -14.0390   21.8420   -7.7950 O.2   437  LEU437     -0.2715
    131  CB       -13.4380   19.9670   -5.2950 C.3   437  LEU437      0.0311
    132  CG       -14.0300   19.7610   -3.8830 C.3   437  LEU437      0.0022
    133  CD1      -12.9900   19.5840   -2.7910 C.3   437  LEU437      0.0001
    134  CD2      -14.9670   20.8700   -3.4950 C.3   437  LEU437      0.0001
    135  N        -13.0790   19.9500   -8.5900 N.am  438  GLN438     -0.1977
    136  CA       -12.2740   20.5450   -9.6650 C.3   438  GLN438      0.1601
    137  C        -13.0360   20.6900  -11.0140 C.2   438  GLN438      0.2287
    138  O        -12.5810   21.3680  -11.9240 O.2   438  GLN438     -0.2864
    139  CB       -10.9430   19.7620   -9.8000 C.3   438  GLN438      0.0394
    140  CG        -9.8940   20.3480  -10.8070 C.3   438  GLN438      0.0908
    141  CD       -10.2660   20.0250  -12.2330 C.2   438  GLN438      0.2608
    142  OE1      -11.1320   19.1940  -12.4720 O.2   438  GLN438     -0.2717
    143  NE2       -9.6230   20.6610  -13.1770 N.am  438  GLN438     -0.0878
    144  N        -16.8630   19.7990  -17.9390 N.3   456  ASP456     -0.1239
    145  CA       -15.9120   18.7400  -18.2690 C.3   456  ASP456      0.1674
    146  C        -16.5980   17.5760  -18.9630 C.2   456  ASP456      0.2266
    147  O        -17.0430   16.6300  -18.3080 O.2   456  ASP456     -0.2867
    148  CB       -15.1810   18.2550  -17.0280 C.3   456  ASP456      0.1410
    149  CG       -13.9660   17.3900  -17.3430 C.2   456  ASP456      0.3668
    150  OD1      -13.6640   17.0840  -18.5220 O.co2 456  ASP456     -0.2456
    151  OD2      -13.2650   17.0630  -16.3770 O.co2 456  ASP456     -0.2456
    152  N        -15.5080   15.1820  -20.8840 N.3   458  GLU458     -0.1245
    153  CA       -14.7590   13.9650  -20.7160 C.3   458  GLU458      0.1567
    154  C        -15.3740   13.1010  -19.6240 C.2   458  GLU458      0.2260
    155  O        -15.2780   11.8660  -19.6370 O.2   458  GLU458     -0.2867
    156  CB       -13.3610   14.3870  -20.2870 C.3   458  GLU458      0.0388
    157  CG       -12.2390   13.4550  -20.6600 C.3   458  GLU458      0.1160
    158  CD       -10.9610   14.2320  -20.9120 C.2   458  GLU458      0.3649
    159  OE1      -10.7240   14.6210  -22.0930 O.co2 458  GLU458     -0.2457
    160  OE2      -10.2140   14.4830  -19.9330 O.co2 458  GLU458     -0.2457
    161  N        -16.3380   13.6020   -2.1400 N.3   497  ASN497     -0.1240
    162  CA       -15.3490   14.4790   -2.7310 C.3   497  ASN497      0.1653
    163  C        -15.6660   15.9480   -2.4500 C.2   497  ASN497      0.2266
    164  O        -14.7660   16.7480   -2.2490 O.2   497  ASN497     -0.2867
    165  CB       -15.3080   14.2680   -4.2530 C.3   497  ASN497      0.1155
    166  CG       -14.1450   14.9680   -4.9170 C.2   497  ASN497      0.2627
    167  OD1      -14.1490   16.1880   -5.0710 O.2   497  ASN497     -0.2716
    168  ND2      -13.1350   14.1930   -5.3260 N.am  497  ASN497     -0.0877
@<TRIPOS>BOND
     1    72    71    2
     2    71    70    1
     3    69    70    1
     4    70    73    1
     5    73    74    1
     6    74    75    1
     7   159   158   ar
     8    67    66    1
     9    75    76    1
    10    61    60    2
    11    96    95    2
    12    76    77    1
    13    95    94    1
    14   158   157    1
    15   158   160   ar
    16   152   153    1
    17    66    68    1
    18    66    65    2
    19   153   156    1
    20   153   154    1
    21   157   156    1
    22    60    59    1
    23    62    59    1
    24    62    63    1
    25    64    65    1
    26    64    63    1
    27    59    58    1
    28    94    93    1
    29    94    97    1
    30   155   154    2
    31   146   147    2
    32   146   145    1
    33    97    98    1
    34   150   149   ar
    35   145   144    1
    36   145   148    1
    37    98    99    1
    38   149   148    1
    39   149   151   ar
    40    57    56    1
    41    55    54    2
    42    99   100    1
    43    83    85    1
    44    83    82    1
    45    54    53    1
    46    56    53    1
    47    78    79    1
    48    82    79    1
    49    82    84    1
    50   100   101    2
    51    53    52    1
    52   103   101    1
    53    79    80    1
    54   101   102    1
    55   115   114   ar
    56    52    49   am
    57    81    80    2
    58   108   109    1
    59    80    86   am
    60   112   109    1
    61   112   113    1
    62    47    48    1
    63   143   141   am
    64   114   116   ar
    65   114   113    1
    66    49    50    2
    67    49    48    1
    68   109   110    1
    69   142   141    2
    70    48    51    1
    71   141   140    1
    72    86    87    1
    73   111   110    2
    74   138   137    2
    75    88    89    2
    76    88    87    1
    77   126   125   ar
    78   126   124   ar
    79    87    90    1
    80   125   123   ar
    81   137   136    1
    82    90    91    1
    83    90    92    1
    84   140   139    1
    85   124   122   ar
    86   123   122   ar
    87   139   136    1
    88   136   135    1
    89   122   121    1
    90   117   118    1
    91   135   129   am
    92   120   119    2
    93   121   118    1
    94   118   119    1
    95   119   127   am
    96   130   129    2
    97   129   128    1
    98    43    42    2
    99     8     6    1
   100    39    38   ar
   101    39    37   ar
   102   127   128    1
   103   128   131    1
   104    42    41    1
   105    38    36   ar
   106     5     6    1
   107     5     2    1
   108    37    35   ar
   109     1     2    1
   110    20    22   ar
   111    20    18   ar
   112     6     7    1
   113   104   105    1
   114     4     3    2
   115    41    40    1
   116    41    44    1
   117     2     3    1
   118   168   166   am
   119   131   132    1
   120    22    21   ar
   121    36    35   ar
   122    17    18    1
   123    17    14    1
   124   167   166    2
   125    35    34    1
   126    18    19   ar
   127    10    11    1
   128    10     9    1
   129   166   165    1
   130   105   106    1
   131    13    14    1
   132    13    11   am
   133    40    46    1
   134    14    15    1
   135    11    12    2
   136   165   162    1
   137    44    45    1
   138   106   107    2
   139    21    19   ar
   140   132   134    1
   141   132   133    1
   142    34    31    1
   143    46    45    1
   144    15    16    2
   145    15    23   am
   146   162   163    1
   147   162   161    1
   148    31    32    1
   149    31    30    1
   150   163   164    2
   151    29    23    1
   152    29    28    1
   153    23    24    1
   154    32    33    2
   155    28    27    1
   156    24    25    1
   157    24    27    1
   158    25    26    2
