@<TRIPOS>MOLECULE
tmp/2x3lB00.pdb
 125 117 0 0 0
SMALL
GASTEIGER

@<TRIPOS>ATOM
      1  N          3.4800    6.1900    6.3720 N.3    76  GLY76      -0.1210
      2  CA         3.8860    7.5740    6.1260 C.3    76  GLY76       0.1956
      3  C          3.1580    8.2500    4.9950 C.2    76  GLY76       0.2613
      4  O          2.3220    7.6400    4.3370 O.2    76  GLY76      -0.2717
      5  N          3.4730    9.5290    4.7870 N.am   77  THR77      -0.1938
      6  CA         3.0310   10.2920    3.6240 C.3    77  THR77       0.2028
      7  C          3.5090    9.6560    2.3270 C.2    77  THR77       0.2642
      8  O          2.8580    9.7740    1.2820 O.2    77  THR77      -0.2714
      9  CB         3.5440   11.7480    3.7250 C.3    77  THR77       0.1808
     10  OG1        2.9280   12.3720    4.8510 O.3    77  THR77      -0.2208
     11  CG2        3.2510   12.5570    2.4680 C.3    77  THR77       0.0379
     12  N          4.6430    8.9680    2.4080 N.am   78  THR78      -0.1950
     13  CA         5.1390    8.1240    1.3330 C.3    78  THR78       0.1897
     14  C          4.0230    7.2970    0.6890 C.2    78  THR78       0.2313
     15  O          3.8560    7.3570   -0.5240 O.2    78  THR78      -0.2863
     16  CB         6.2870    7.2300    1.8590 C.3    78  THR78       0.1794
     17  OG1        7.4120    8.0670    2.1820 O.3    78  THR78      -0.2208
     18  CG2        6.7000    6.1660    0.8430 C.3    78  THR78       0.0378
     19  N          1.3760    9.3050   -1.1130 N.3    81  ILE81      -0.1245
     20  CA         1.9550    9.8260   -2.3390 C.3    81  ILE81       0.1561
     21  C          2.0470    8.7470   -3.4320 C.2    81  ILE81       0.2260
     22  O          1.7920    9.0250   -4.5960 O.2    81  ILE81      -0.2867
     23  CB         3.3580   10.4500   -2.0620 C.3    81  ILE81       0.0252
     24  CG1        3.2010   11.7960   -1.3280 C.3    81  ILE81       0.0019
     25  CG2        4.1130   10.6270   -3.3670 C.3    81  ILE81       0.0019
     26  CD1        4.5210   12.4320   -0.9230 C.3    81  ILE81       0.0001
     27  N         11.7630   20.5180   -5.7280 N.3   100  ASN100     -0.1240
     28  CA        11.8600   20.0370   -4.3360 C.3   100  ASN100      0.1653
     29  C         10.7370   19.0820   -3.9290 C.2   100  ASN100      0.2266
     30  O         10.2870   19.0780   -2.7730 O.2   100  ASN100     -0.2867
     31  CB        11.9430   21.2170   -3.3410 C.3   100  ASN100      0.1155
     32  CG        10.6500   22.0380   -3.2530 C.2   100  ASN100      0.2627
     33  OD1        9.8690   22.0990   -4.2000 O.2   100  ASN100     -0.2716
     34  ND2       10.4330   22.6770   -2.1020 N.am  100  ASN100     -0.0877
     35  N          9.6920   15.4090   -2.8070 N.3   102  HIS102     -0.1241
     36  CA        10.3450   14.3880   -1.9770 C.3   102  HIS102      0.1621
     37  C         10.5940   13.1860   -2.8550 C.2   102  HIS102      0.2264
     38  O          9.9000   12.9840   -3.8510 O.2   102  HIS102     -0.2867
     39  CB         9.4260   14.0410   -0.8000 C.3   102  HIS102      0.0745
     40  CG         9.9530   13.0070    0.1520 C.ar  102  HIS102      0.0817
     41  ND1        9.4420   11.7250    0.2100 N.ar  102  HIS102     -0.2268
     42  CD2       10.8590   13.0920    1.1550 C.ar  102  HIS102      0.1154
     43  CE1       10.0390   11.0550    1.1790 C.ar  102  HIS102      0.1986
     44  NE2       10.9120   11.8580    1.7620 N.ar  102  HIS102     -0.2212
     45  N          5.5070   20.6940   -3.2100 N.3   142  THR142     -0.1218
     46  CA         5.7900   20.6480   -1.7830 C.3   142  THR142      0.1862
     47  C          5.3680   21.9610   -1.1460 C.2   142  THR142      0.2287
     48  O          5.7050   23.0350   -1.6530 O.2   142  THR142     -0.2866
     49  CB         7.2910   20.4190   -1.5120 C.3   142  THR142      0.1770
     50  OG1        7.7450   19.2880   -2.2670 O.3   142  THR142     -0.2211
     51  CG2        7.5210   20.1510   -0.0340 C.3   142  THR142      0.0375
     52  N         10.8500   22.0890    3.4100 N.3   146  TYR146     -0.1241
     53  CA        11.3880   21.4870    4.6350 C.3   146  TYR146      0.1605
     54  C         11.6100   22.4940    5.7570 C.2   146  TYR146      0.2264
     55  O         11.3360   22.2220    6.9250 O.2   146  TYR146     -0.2867
     56  CB        12.7410   20.8500    4.3200 C.3   146  TYR146      0.0534
     57  CG        13.0330   19.5970    5.0710 C.ar  146  TYR146     -0.0201
     58  CD1       13.0900   19.5750    6.4640 C.ar  146  TYR146     -0.0009
     59  CD2       13.2790   18.4130    4.3830 C.ar  146  TYR146     -0.0009
     60  CE1       13.3800   18.3890    7.1440 C.ar  146  TYR146      0.0417
     61  CE2       13.5590   17.2390    5.0480 C.ar  146  TYR146      0.0417
     62  CZ        13.6150   17.2280    6.4200 C.ar  146  TYR146      0.1957
     63  OH        13.9030   16.0360    7.0450 O.3   146  TYR146     -0.2866
     64  N          2.1110   17.9370   -1.4220 N.3   170  ASP170     -0.1239
     65  CA         2.8790   17.2460   -0.4050 C.3   170  ASP170      0.1674
     66  C          3.0000   18.1810    0.8000 C.2   170  ASP170      0.2266
     67  O          3.9020   19.0410    0.8610 O.2   170  ASP170     -0.2867
     68  CB         4.2470   16.8720   -0.9780 C.3   170  ASP170      0.1410
     69  CG         5.1370   16.1900    0.0200 C.2   170  ASP170      0.3668
     70  OD1        4.8160   16.1860    1.2280 O.co2 170  ASP170     -0.2456
     71  OD2        6.1920   15.6690   -0.4130 O.co2 170  ASP170     -0.2456
     72  N          3.7290   17.4860    3.8870 N.3   172  ALA172     -0.1231
     73  CA         4.3930   16.6960    4.9140 C.3   172  ALA172      0.1694
     74  C          4.7900   17.5380    6.1150 C.2   172  ALA172      0.2592
     75  O          4.7810   17.0410    7.2300 O.2   172  ALA172     -0.2718
     76  CB         5.6260   15.9860    4.3370 C.3   172  ALA172      0.0304
     77  N          5.1330   18.8090    5.8810 N.am  173  HIS173     -0.1976
     78  CA         5.5850   19.7080    6.9430 C.3   173  HIS173      0.1656
     79  C          4.5690   20.8040    7.3180 C.2   173  HIS173      0.2291
     80  O          4.9480   21.8660    7.8310 O.2   173  HIS173     -0.2864
     81  CB         6.9290   20.3240    6.5380 C.3   173  HIS173      0.0771
     82  CG         8.0840   19.3880    6.7110 C.ar  173  HIS173      0.0820
     83  ND1        8.6830   19.1670    7.9330 N.ar  173  HIS173     -0.2267
     84  CD2        8.7280   18.5910    5.8260 C.ar  173  HIS173      0.1154
     85  CE1        9.6500   18.2800    7.7910 C.ar  173  HIS173      0.1986
     86  NE2        9.6990   17.9160    6.5220 N.ar  173  HIS173     -0.2212
     87  N          2.1620   14.7410    7.1360 N.3   197  SER197     -0.1217
     88  CA         2.8580   13.8720    8.0840 C.3   197  SER197      0.1889
     89  C          2.5900   14.3820    9.5020 C.2   197  SER197      0.2288
     90  O          3.3650   15.1740   10.0590 O.2   197  SER197     -0.2866
     91  CB         4.3760   13.8090    7.8100 C.3   197  SER197      0.2089
     92  OG         4.6760   13.2710    6.5290 O.3   197  SER197     -0.2183
     93  N          2.9490   12.7450   12.2600 N.3   199  HIS199     -0.1226
     94  CA         4.0560   12.3450   13.1190 C.3   199  HIS199      0.1752
     95  C          5.2530   13.3100   13.1500 C.2   199  HIS199      0.2595
     96  O          5.9520   13.3640   14.1460 O.2   199  HIS199     -0.2718
     97  CB         4.5150   10.9120   12.7790 C.3   199  HIS199      0.0759
     98  CG         5.3370   10.8060   11.5320 C.ar  199  HIS199      0.0818
     99  ND1        6.7120   10.8810   11.5500 N.ar  199  HIS199     -0.2268
    100  CD2        4.9870   10.6200   10.2380 C.ar  199  HIS199      0.1154
    101  CE1        7.1720   10.7530   10.3210 C.ar  199  HIS199      0.1986
    102  NE2        6.1470   10.6040    9.5050 N.ar  199  HIS199     -0.2212
    103  N          5.4670   14.0690   12.0760 N.am  200  LYS200     -0.1980
    104  CA         6.6140   14.9920   11.9810 C.3   200  LYS200      0.1596
    105  C          6.5040   16.2280   12.8770 C.2   200  LYS200      0.2287
    106  O          7.5080   16.6750   13.4210 O.2   200  LYS200     -0.2864
    107  CB         6.8620   15.4200   10.5240 C.3   200  LYS200      0.0298
    108  CG         7.4780   14.3350    9.6690 C.3   200  LYS200      0.0038
    109  CD         7.9270   14.8470    8.3090 C.3   200  LYS200      0.0206
    110  CE         8.4620   13.6960    7.4430 C.3   200  LYS200      0.1093
    111  NZ         9.1930   14.1950    6.2590 N.3   200  LYS200     -0.1314
    112  N          5.7310    7.2820   11.4820 N.3   207  MET207     -0.1245
    113  CA         5.0230    6.5720   10.4070 C.3   207  MET207      0.1570
    114  C          3.5530    6.9700   10.2160 C.2   207  MET207      0.2261
    115  O          3.0060    6.7550    9.1350 O.2   207  MET207     -0.2867
    116  CB         5.1290    5.0510   10.5150 C.3   207  MET207      0.0387
    117  CG         6.5370    4.5360   10.3870 C.3   207  MET207      0.0595
    118  SD         6.5110    2.7620   10.2490 S.3   207  MET207     -0.1393
    119  CE         5.9860    2.5110    8.5580 C.3   207  MET207      0.0692
    120  N          0.4740    9.1590    9.2840 N.3   209  SER209     -0.1217
    121  CA         0.1820   10.2900    8.3970 C.3   209  SER209      0.1889
    122  C         -1.2720   10.2100    7.9340 C.2   209  SER209      0.2288
    123  O         -1.9360    9.1940    8.1510 O.2   209  SER209     -0.2866
    124  CB         1.1220   10.2920    7.1810 C.3   209  SER209      0.2089
    125  OG         2.4760   10.5530    7.5640 O.3   209  SER209     -0.2183
@<TRIPOS>BOND
     1    27    28    1
     2    22    21    2
     3    28    29    1
     4    28    31    1
     5    33    32    2
     6    29    30    2
     7    38    37    2
     8    21    20    1
     9    25    23    1
    10    31    32    1
    11    32    34   am
    12    45    46    1
    13    37    36    1
    14    35    36    1
    15    20    23    1
    16    20    19    1
    17    50    49    1
    18    23    24    1
    19    36    39    1
    20    46    49    1
    21    46    47    1
    22    48    47    2
    23    49    51    1
    24    64    65    1
    25    24    26    1
    26    68    65    1
    27    68    69    1
    28    39    40    1
    29    15    14    2
    30    71    69   ar
    31    65    66    1
    32    69    70   ar
    33    40    41   ar
    34    40    42   ar
    35    41    43   ar
    36    14    13    1
    37    66    67    2
    38    18    16    1
    39    42    44   ar
    40    43    44   ar
    41     8     7    2
    42    13    16    1
    43    13    12    1
    44    16    17    1
    45     7    12   am
    46     7     6    1
    47    11     9    1
    48    52    53    1
    49     6     9    1
    50     6     5    1
    51     9    10    1
    52    72    73    1
    53    56    53    1
    54    56    57    1
    55    76    73    1
    56     4     3    2
    57    59    61   ar
    58    59    57   ar
    59    53    54    1
    60     5     3   am
    61    73    74    1
    62     3     2    1
    63    61    62   ar
    64    57    58   ar
    65    54    55    2
    66    84    86   ar
    67    84    82   ar
    68    77    74   am
    69    77    78    1
    70    74    75    2
    71     2     1    1
    72   111   110    1
    73    62    63    1
    74    62    60   ar
    75    58    60   ar
    76    86    85   ar
    77    92    91    1
    78    81    82    1
    79    81    78    1
    80    82    83   ar
    81    78    79    1
    82    87    88    1
    83   124   125    1
    84   124   121    1
    85    79    80    2
    86   110   109    1
    87    85    83   ar
    88    91    88    1
    89   122   123    2
    90   122   121    1
    91    88    89    1
    92   109   108    1
    93   121   120    1
    94   119   118    1
    95   115   114    2
    96    89    90    2
    97   102   100   ar
    98   102   101   ar
    99   108   107    1
   100   114   113    1
   101   100    98   ar
   102   118   117    1
   103   101    99   ar
   104   117   116    1
   105   113   116    1
   106   113   112    1
   107   107   104    1
   108    98    99   ar
   109    98    97    1
   110   104   103    1
   111   104   105    1
   112   103    95   am
   113    93    94    1
   114    97    94    1
   115   105   106    2
   116    94    95    1
   117    95    96    2
