@<TRIPOS>MOLECULE
tmp/2x42A00.pdb
 116 109 0 0 0
SMALL
GASTEIGER

@<TRIPOS>ATOM
      1  N        -12.9440   31.8750  -26.7310 N.3    39  ALA39      -0.1245
      2  CA       -12.7780   31.9460  -25.2830 C.3    39  ALA39       0.1562
      3  C        -11.6060   32.8080  -24.8300 C.2    39  ALA39       0.2260
      4  O        -11.6490   33.3850  -23.7480 O.2    39  ALA39      -0.2867
      5  CB       -12.6520   30.5410  -24.6920 C.3    39  ALA39       0.0290
      6  N        -13.7200   26.9870  -26.9770 N.3    57  ASP57      -0.1239
      7  CA       -14.4650   25.7940  -26.6020 C.3    57  ASP57       0.1674
      8  C        -15.0550   25.1960  -27.8800 C.2    57  ASP57       0.2266
      9  O        -15.0630   25.8590  -28.9110 O.2    57  ASP57      -0.2867
     10  CB       -15.5800   26.1720  -25.6220 C.3    57  ASP57       0.1410
     11  CG       -15.0430   26.6090  -24.2730 C.2    57  ASP57       0.3668
     12  OD1      -15.2840   27.7710  -23.8800 O.co2  57  ASP57      -0.2456
     13  OD2      -14.3630   25.7930  -23.6160 O.co2  57  ASP57      -0.2456
     14  N        -17.3410   26.4140  -30.3310 N.3    63  ARG63      -0.1245
     15  CA       -18.2790   27.4380  -29.8970 C.3    63  ARG63       0.1563
     16  C        -17.7560   28.8400  -30.2320 C.2    63  ARG63       0.2260
     17  O        -16.8830   29.3700  -29.5480 O.2    63  ARG63      -0.2867
     18  CB       -18.5650   27.3040  -28.3940 C.3    63  ARG63       0.0307
     19  CG       -19.7040   28.1980  -27.9010 C.3    63  ARG63       0.0489
     20  CD       -19.9110   28.0930  -26.3890 C.3    63  ARG63       0.2205
     21  NE       -18.6590   28.2790  -25.6610 N.pl3  63  ARG63      -0.0865
     22  CZ       -18.1680   29.4610  -25.3030 C.cat  63  ARG63       0.5346
     23  NH1      -18.8260   30.5760  -25.6010 N.pl3  63  ARG63       0.1354
     24  NH2      -17.0130   29.5270  -24.6510 N.pl3  63  ARG63       0.1354
     25  N        -10.6050   23.8160  -26.7890 N.3   115  LEU115     -0.1245
     26  CA       -10.6700   23.5310  -25.3590 C.3   115  LEU115      0.1561
     27  C        -11.5060   22.2820  -25.0930 C.2   115  LEU115      0.2260
     28  O        -12.6000   22.3460  -24.5280 O.2   115  LEU115     -0.2867
     29  CB       -11.2250   24.7300  -24.5960 C.3   115  LEU115      0.0270
     30  CG       -10.4430   26.0210  -24.8670 C.3   115  LEU115      0.0019
     31  CD1      -10.9850   27.1890  -24.0420 C.3   115  LEU115      0.0001
     32  CD2       -8.9480   25.8000  -24.6090 C.3   115  LEU115      0.0001
     33  N        -21.7920   18.8080  -14.9650 N.3   129  ARG129     -0.1245
     34  CA       -21.0720   18.7490  -16.2300 C.3   129  ARG129      0.1563
     35  C        -20.8170   17.3230  -16.6920 C.2   129  ARG129      0.2260
     36  O        -20.0740   17.1100  -17.6470 O.2   129  ARG129     -0.2867
     37  CB       -19.7490   19.5150  -16.1330 C.3   129  ARG129      0.0307
     38  CG       -19.9320   20.9870  -15.8320 C.3   129  ARG129      0.0489
     39  CD       -18.6050   21.7250  -15.8600 C.3   129  ARG129      0.2205
     40  NE       -18.1010   21.8980  -17.2220 N.pl3 129  ARG129     -0.0865
     41  CZ       -17.0960   22.7060  -17.5390 C.cat 129  ARG129      0.5346
     42  NH1      -16.4860   23.4000  -16.5880 N.pl3 129  ARG129      0.1354
     43  NH2      -16.6960   22.8190  -18.8000 N.pl3 129  ARG129      0.1354
     44  N         -9.0720   18.5240  -20.1830 N.3   162  LYS162     -0.1231
     45  CA        -9.5030   19.2890  -19.0180 C.3   162  LYS162      0.1693
     46  C        -10.5280   18.4620  -18.2550 C.2   162  LYS162      0.2592
     47  O        -11.1170   17.5490  -18.8380 O.2   162  LYS162     -0.2718
     48  CB       -10.1260   20.6120  -19.4790 C.3   162  LYS162      0.0285
     49  CG       -11.3880   20.4530  -20.3350 C.3   162  LYS162      0.0035
     50  CD       -11.9530   21.8210  -20.7650 C.3   162  LYS162      0.0206
     51  CE       -13.3430   21.6880  -21.3600 C.3   162  LYS162      0.1093
     52  NZ       -13.8590   22.9860  -21.8830 N.3   162  LYS162     -0.1314
     53  N        -10.7390   18.7320  -16.9640 N.am  163  HIS163     -0.1976
     54  CA        -9.9890   19.7090  -16.1660 C.3   163  HIS163      0.1656
     55  C         -9.1040   18.9750  -15.1540 C.2   163  HIS163      0.2291
     56  O         -9.5870   18.1440  -14.3870 O.2   163  HIS163     -0.2864
     57  CB       -10.9550   20.6180  -15.4000 C.3   163  HIS163      0.0771
     58  CG       -12.0480   21.1910  -16.2460 C.ar  163  HIS163      0.0820
     59  ND1      -13.2440   20.5390  -16.4590 N.ar  163  HIS163     -0.2267
     60  CD2      -12.1250   22.3560  -16.9350 C.ar  163  HIS163      0.1154
     61  CE1      -14.0100   21.2760  -17.2440 C.ar  163  HIS163      0.1986
     62  NE2      -13.3550   22.3820  -17.5470 N.ar  163  HIS163     -0.2212
     63  N         -5.5900   21.8220  -19.3160 N.3   206  MET206     -0.1245
     64  CA        -6.2000   22.8850  -18.5340 C.3   206  MET206      0.1570
     65  C         -6.3120   22.4720  -17.0670 C.2   206  MET206      0.2261
     66  O         -6.9750   21.4880  -16.7350 O.2   206  MET206     -0.2867
     67  CB        -7.5740   23.2690  -19.0880 C.3   206  MET206      0.0387
     68  CG        -8.1870   24.4920  -18.4000 C.3   206  MET206      0.0595
     69  SD        -9.9330   24.8080  -18.7850 S.3   206  MET206     -0.1393
     70  CE        -9.9100   24.9450  -20.5610 C.3   206  MET206      0.0692
     71  N        -10.2920   24.3400  -11.5500 N.3   209  TYR209     -0.1241
     72  CA       -10.6590   25.3810  -10.5990 C.3   209  TYR209      0.1605
     73  C        -10.3800   25.0130   -9.1470 C.2   209  TYR209      0.2264
     74  O         -9.9610   25.8560   -8.3600 O.2   209  TYR209     -0.2867
     75  CB       -12.1530   25.6720  -10.7080 C.3   209  TYR209      0.0534
     76  CG       -12.5240   26.5690  -11.8540 C.ar  209  TYR209     -0.0201
     77  CD1      -11.9920   27.8470  -11.9520 C.ar  209  TYR209     -0.0009
     78  CD2      -13.4240   26.1520  -12.8290 C.ar  209  TYR209     -0.0009
     79  CE1      -12.3300   28.6810  -12.9890 C.ar  209  TYR209      0.0417
     80  CE2      -13.7730   26.9820  -13.8760 C.ar  209  TYR209      0.0417
     81  CZ       -13.2220   28.2500  -13.9480 C.ar  209  TYR209      0.1957
     82  OH       -13.5540   29.0890  -14.9840 O.3   209  TYR209     -0.2866
     83  N         -7.8730   27.1180  -15.9630 N.3   241  ALA241     -0.1231
     84  CA        -9.2880   27.3270  -16.2320 C.3   241  ALA241      0.1694
     85  C         -9.4990   28.8280  -16.1080 C.2   241  ALA241      0.2592
     86  O         -8.7020   29.5120  -15.4650 O.2   241  ALA241     -0.2718
     87  CB       -10.1490   26.5690  -15.2400 C.3   241  ALA241      0.0304
     88  N        -10.5460   29.3460  -16.7390 N.am  242  TRP242     -0.1976
     89  CA       -10.7720   30.7870  -16.7840 C.3   242  TRP242      0.1640
     90  C        -10.9620   31.3830  -15.3870 C.2   242  TRP242      0.2290
     91  O        -11.9280   31.0570  -14.6900 O.2   242  TRP242     -0.2864
     92  CB       -11.9790   31.1110  -17.6770 C.3   242  TRP242      0.0576
     93  CG       -11.6610   31.2750  -19.1570 C.ar  242  TRP242      0.0006
     94  CD1      -12.2520   32.1480  -20.0240 C.ar  242  TRP242      0.0946
     95  CD2      -10.6790   30.5550  -19.9260 C.ar  242  TRP242      0.0152
     96  NE1      -11.7040   32.0200  -21.2780 N.ar  242  TRP242     -0.2442
     97  CE2      -10.7380   31.0470  -21.2450 C.ar  242  TRP242      0.0810
     98  CE3       -9.7540   29.5520  -19.6240 C.ar  242  TRP242      0.0012
     99  CZ2       -9.9130   30.5640  -22.2630 C.ar  242  TRP242      0.0191
    100  CZ3       -8.9350   29.0730  -20.6390 C.ar  242  TRP242      0.0001
    101  CH2       -9.0220   29.5770  -21.9410 C.ar  242  TRP242      0.0015
    102  N        -19.8870   26.6090  -21.1040 N.3   369  SER369     -0.1217
    103  CA       -18.7980   26.7630  -22.0600 C.3   369  SER369      0.1889
    104  C        -18.8260   25.6650  -23.1190 C.2   369  SER369      0.2288
    105  O        -18.2960   25.8430  -24.2150 O.2   369  SER369     -0.2866
    106  CB       -17.4520   26.7490  -21.3370 C.3   369  SER369      0.2089
    107  OG       -17.2190   25.4750  -20.7600 O.3   369  SER369     -0.2183
    108  N        -22.7190   23.7060  -16.8680 N.3   452  GLU452     -0.1245
    109  CA       -21.6100   24.2310  -16.1120 C.3   452  GLU452      0.1567
    110  C        -22.1150   25.1840  -15.0450 C.2   452  GLU452      0.2260
    111  O        -22.9830   26.0170  -15.3120 O.2   452  GLU452     -0.2867
    112  CB       -20.6560   24.9670  -17.0510 C.3   452  GLU452      0.0388
    113  CG       -19.4240   25.5170  -16.3650 C.3   452  GLU452      0.1160
    114  CD       -18.5050   26.2330  -17.3360 C.2   452  GLU452      0.3649
    115  OE1      -18.7020   26.0750  -18.5660 O.co2 452  GLU452     -0.2457
    116  OE2      -17.5900   26.9440  -16.8680 O.co2 452  GLU452     -0.2457
@<TRIPOS>BOND
     1    14    15    1
     2    16    15    1
     3    16    17    2
     4    15    18    1
     5     9     8    2
     6    18    19    1
     7    19    20    1
     8     8     7    1
     9     6     7    1
    10    25    26    1
    11     1     2    1
    12     7    10    1
    13    20    21    1
    14    21    22    2
    15    10    11    1
    16    23    22    1
    17    26    27    1
    18    26    29    1
    19    22    24    1
    20     2     3    1
    21     2     5    1
    22    27    28    2
    23    30    32    1
    24    30    29    1
    25    30    31    1
    26     3     4    2
    27    11    12   ar
    28    11    13   ar
    29   105   104    2
    30   104   103    1
    31    99   101   ar
    32    99    97   ar
    33   103   106    1
    34   103   102    1
    35   101   100   ar
    36    52    51    1
    37    51    50    1
    38   106   107    1
    39    96    97   ar
    40    96    94   ar
    41    97    95   ar
    42    50    49    1
    43   100    98   ar
    44    70    69    1
    45    49    48    1
    46    44    45    1
    47    94    93   ar
    48    95    98   ar
    49    95    93   ar
    50    48    45    1
    51    63    64    1
    52    93    92    1
    53    67    64    1
    54    67    68    1
    55    45    46    1
    56    47    46    2
    57    43    41    1
    58    69    68    1
    59   115   114   ar
    60    64    65    1
    61    46    53   am
    62    92    89    1
    63    36    35    2
    64    62    61   ar
    65    62    60   ar
    66    41    40    2
    67    41    42    1
    68   114   116   ar
    69   114   113    1
    70    61    59   ar
    71    40    39    1
    72    65    66    2
    73   112   113    1
    74   112   109    1
    75    53    54    1
    76    60    58   ar
    77   108   109    1
    78    89    88    1
    79    89    90    1
    80    88    85   am
    81    35    34    1
    82    59    58   ar
    83    58    57    1
    84    84    85    1
    85    84    83    1
    86    84    87    1
    87    34    37    1
    88    34    33    1
    89    54    57    1
    90    54    55    1
    91    37    38    1
    92   109   110    1
    93    85    86    2
    94    39    38    1
    95    90    91    2
    96   111   110    2
    97    55    56    2
    98    82    81    1
    99    81    80   ar
   100    81    79   ar
   101    80    78   ar
   102    79    77   ar
   103    78    76   ar
   104    77    76   ar
   105    76    75    1
   106    71    72    1
   107    75    72    1
   108    72    73    1
   109    73    74    2
