@<TRIPOS>MOLECULE
tmp/2x45A00.pdb
 104 97 0 0 0
SMALL
GASTEIGER

@<TRIPOS>ATOM
      1  N         -8.0480  -33.8030   13.3490 N.3    13  SER13      -0.1202
      2  CA        -9.3580  -33.2150   13.6320 C.3    13  SER13       0.2020
      3  C         -9.3080  -32.2780   14.8500 C.2    13  SER13       0.2618
      4  O         -9.7810  -31.1400   14.8170 O.2    13  SER13      -0.2717
      5  CB       -10.4120  -34.2940   13.8470 C.3    13  SER13       0.2103
      6  OG       -11.7140  -33.7620   14.0780 O.3    13  SER13      -0.2182
      7  N         -8.7060  -32.7760   15.9270 N.am   14  ILE14      -0.1979
      8  CA        -8.5940  -31.9920   17.1730 C.3    14  ILE14       0.1595
      9  C         -7.8970  -30.6550   16.9050 C.2    14  ILE14       0.2287
     10  O         -8.3490  -29.5910   17.3580 O.2    14  ILE14      -0.2864
     11  CB        -7.8370  -32.7840   18.2430 C.3    14  ILE14       0.0276
     12  CG1       -8.7730  -33.8530   18.8080 C.3    14  ILE14       0.0022
     13  CG2       -7.3220  -31.8580   19.4060 C.3    14  ILE14       0.0022
     14  CD1       -8.0260  -34.9510   19.5510 C.3    14  ILE14       0.0001
     15  N        -14.5720  -24.8760   16.6570 N.3    22  TYR22      -0.1241
     16  CA       -15.5530  -25.5490   15.8440 C.3    22  TYR22       0.1605
     17  C        -16.9410  -25.4780   16.4600 C.2    22  TYR22       0.2264
     18  O        -17.1050  -25.6240   17.6680 O.2    22  TYR22      -0.2867
     19  CB       -15.1820  -27.0220   15.5870 C.3    22  TYR22       0.0534
     20  CG       -14.0340  -27.1920   14.6270 C.ar   22  TYR22      -0.0201
     21  CD1      -14.2680  -27.6680   13.3560 C.ar   22  TYR22      -0.0009
     22  CD2      -12.7240  -26.9520   15.0110 C.ar   22  TYR22      -0.0009
     23  CE1      -13.2250  -27.8250   12.4460 C.ar   22  TYR22       0.0417
     24  CE2      -11.6750  -27.1200   14.1250 C.ar   22  TYR22       0.0417
     25  CZ       -11.9200  -27.5650   12.8500 C.ar   22  TYR22       0.1957
     26  OH       -10.8680  -27.7550   11.9800 O.3    22  TYR22      -0.2866
     27  N        -16.6260  -26.3840   20.4620 N.3    38  VAL38      -0.1245
     28  CA       -15.3570  -26.7960   21.0640 C.3    38  VAL38       0.1561
     29  C        -14.2530  -25.9060   20.5740 C.2    38  VAL38       0.2260
     30  O        -14.3600  -25.3320   19.4710 O.2    38  VAL38      -0.2867
     31  CB       -14.9770  -28.2700   20.7460 C.3    38  VAL38       0.0252
     32  CG1      -16.0230  -29.2450   21.2860 C.3    38  VAL38       0.0019
     33  CG2      -14.7490  -28.4970   19.2850 C.3    38  VAL38       0.0019
     34  N         -8.9950  -28.4020   25.7730 N.3    52  TYR52      -0.1241
     35  CA       -10.2650  -28.3300   25.0400 C.3    52  TYR52       0.1605
     36  C        -11.2800  -27.5650   25.8890 C.2    52  TYR52       0.2264
     37  O        -11.5640  -27.9440   27.0180 O.2    52  TYR52      -0.2867
     38  CB       -10.8010  -29.7280   24.7240 C.3    52  TYR52       0.0534
     39  CG       -11.1610  -29.9640   23.2710 C.ar   52  TYR52      -0.0201
     40  CD1      -10.2700  -29.6620   22.2500 C.ar   52  TYR52      -0.0009
     41  CD2      -12.3270  -30.6110   22.9100 C.ar   52  TYR52      -0.0009
     42  CE1      -10.5570  -29.9350   20.9370 C.ar   52  TYR52       0.0417
     43  CE2      -12.5860  -30.9160   21.5980 C.ar   52  TYR52       0.0417
     44  CZ       -11.7190  -30.5560   20.6270 C.ar   52  TYR52       0.1957
     45  OH       -11.9840  -30.8790   19.2970 O.3    52  TYR52      -0.2866
     46  N        -11.5500  -39.2280   19.1340 N.3    77  ILE77      -0.1245
     47  CA       -11.3410  -38.0350   19.9490 C.3    77  ILE77       0.1561
     48  C        -11.9500  -38.3560   21.3270 C.2    77  ILE77       0.2260
     49  O        -13.1620  -38.6040   21.4070 O.2    77  ILE77      -0.2867
     50  CB       -12.0710  -36.7940   19.3660 C.3    77  ILE77       0.0252
     51  CG1      -11.5830  -36.4510   17.9500 C.3    77  ILE77       0.0019
     52  CG2      -11.9620  -35.6240   20.3410 C.3    77  ILE77       0.0019
     53  CD1      -12.4380  -35.4080   17.2450 C.3    77  ILE77       0.0001
     54  N        -12.6060  -36.9810   25.1910 N.3    79  VAL79      -0.1245
     55  CA       -12.6870  -35.9040   26.1560 C.3    79  VAL79       0.1561
     56  C        -13.4280  -36.4530   27.3760 C.2    79  VAL79       0.2260
     57  O        -14.6070  -36.7530   27.3120 O.2    79  VAL79      -0.2867
     58  CB       -13.4080  -34.6650   25.5770 C.3    79  VAL79       0.0252
     59  CG1      -13.4880  -33.5430   26.6620 C.3    79  VAL79       0.0019
     60  CG2      -12.7370  -34.2030   24.2520 C.3    79  VAL79       0.0019
     61  N        -15.6090  -39.7960   20.4900 N.3    84  SER84      -0.1217
     62  CA       -16.1910  -39.5390   19.1790 C.3    84  SER84       0.1889
     63  C        -15.2770  -40.1230   18.1290 C.2    84  SER84       0.2288
     64  O        -14.0690  -39.9700   18.2520 O.2    84  SER84      -0.2866
     65  CB       -16.3400  -38.0410   18.9700 C.3    84  SER84       0.2089
     66  OG       -17.2250  -37.4480   19.8870 O.3    84  SER84      -0.2183
     67  N        -15.4910  -31.2590   10.1620 N.3    95  ASP95      -0.1239
     68  CA       -15.3770  -32.6510   10.4880 C.3    95  ASP95       0.1674
     69  C        -16.7340  -33.3040   10.4650 C.2    95  ASP95       0.2266
     70  O        -17.7550  -32.6510   10.7190 O.2    95  ASP95      -0.2867
     71  CB       -14.8310  -32.8760   11.9050 C.3    95  ASP95       0.1410
     72  CG       -13.7770  -31.8500   12.3120 C.2    95  ASP95       0.3668
     73  OD1      -12.5580  -32.0650   12.0400 O.co2  95  ASP95      -0.2456
     74  OD2      -14.1380  -30.8780   12.9790 O.co2  95  ASP95      -0.2456
     75  N        -18.1930  -36.6140   12.5930 N.3    97  VAL97      -0.1245
     76  CA       -17.8580  -37.5880   13.6410 C.3    97  VAL97       0.1561
     77  C        -19.1080  -38.3510   14.0340 C.2    97  VAL97       0.2260
     78  O        -20.2300  -37.8810   13.8020 O.2    97  VAL97      -0.2867
     79  CB       -17.2230  -36.9100   14.9120 C.3    97  VAL97       0.0252
     80  CG1      -16.0130  -36.0050   14.5150 C.3    97  VAL97       0.0019
     81  CG2      -18.2420  -36.1750   15.7910 C.3    97  VAL97       0.0019
     82  N        -22.5830  -36.2680   13.5710 N.3   104  GLU104     -0.1245
     83  CA       -22.4250  -34.8240   13.7730 C.3   104  GLU104      0.1567
     84  C        -21.5580  -34.2230   12.6770 C.2   104  GLU104      0.2260
     85  O        -20.5330  -34.8120   12.2780 O.2   104  GLU104     -0.2867
     86  CB       -21.7280  -34.5860   15.1040 C.3   104  GLU104      0.0388
     87  CG       -22.5210  -35.0370   16.3180 C.3   104  GLU104      0.1160
     88  CD       -21.7730  -34.8540   17.6240 C.2   104  GLU104      0.3649
     89  OE1      -20.5210  -34.7160   17.6120 O.co2 104  GLU104     -0.2457
     90  OE2      -22.4780  -34.8070   18.6670 O.co2 104  GLU104     -0.2457
     91  N        -19.3970  -30.8330   12.2350 N.3   106  TRP106     -0.1241
     92  CA       -18.7750  -29.6950   12.9030 C.3   106  TRP106      0.1605
     93  C        -18.1030  -28.8060   11.8660 C.2   106  TRP106      0.2264
     94  O        -17.4920  -29.3190   10.9190 O.2   106  TRP106     -0.2867
     95  CB       -17.7400  -30.1960   13.8810 C.3   106  TRP106      0.0550
     96  CG       -18.2870  -30.9520   15.0340 C.ar  106  TRP106      0.0003
     97  CD1      -18.7190  -32.2480   15.0260 C.ar  106  TRP106      0.0946
     98  CD2      -18.4980  -30.4700   16.3750 C.ar  106  TRP106      0.0152
     99  NE1      -19.1730  -32.6140   16.2660 N.ar  106  TRP106     -0.2442
    100  CE2      -19.0570  -31.5440   17.1170 C.ar  106  TRP106      0.0810
    101  CE3      -18.2400  -29.2590   17.0400 C.ar  106  TRP106      0.0012
    102  CZ2      -19.3650  -31.4190   18.5100 C.ar  106  TRP106      0.0191
    103  CZ3      -18.5590  -29.1360   18.3870 C.ar  106  TRP106      0.0001
    104  CH2      -19.0960  -30.2040   19.1020 C.ar  106  TRP106      0.0015
@<TRIPOS>BOND
     1    67    68    1
     2    69    68    1
     3    69    70    2
     4    68    71    1
     5    94    93    2
     6    93    92    1
     7    71    72    1
     8    26    25    1
     9    73    72   ar
    10    91    92    1
    11    85    84    2
    12    72    74   ar
    13    23    25   ar
    14    23    21   ar
    15    75    76    1
    16    84    83    1
    17    25    24   ar
    18    92    95    1
    19     1     2    1
    20    21    20   ar
    21    82    83    1
    22     2     5    1
    23     2     3    1
    24    76    77    1
    25    76    79    1
    26    83    86    1
    27    78    77    2
    28     5     6    1
    29    95    96    1
    30    24    22   ar
    31    80    79    1
    32    20    22   ar
    33    20    19    1
    34     4     3    2
    35     3     7   am
    36    79    81    1
    37    97    96   ar
    38    97    99   ar
    39    96    98   ar
    40    86    87    1
    41    19    16    1
    42    16    17    1
    43    16    15    1
    44     7     8    1
    45    99   100   ar
    46    87    88    1
    47    98   101   ar
    48    98   100   ar
    49    17    18    2
    50     9     8    1
    51     9    10    2
    52   101   103   ar
    53   100   102   ar
    54     8    11    1
    55    53    51    1
    56    89    88   ar
    57    88    90   ar
    58    51    50    1
    59    63    64    2
    60    63    62    1
    61    11    12    1
    62    11    13    1
    63   103   104   ar
    64   102   104   ar
    65    12    14    1
    66    65    62    1
    67    65    66    1
    68    46    47    1
    69    62    61    1
    70    33    31    1
    71    45    44    1
    72    50    47    1
    73    50    52    1
    74    30    29    2
    75    47    48    1
    76    27    28    1
    77    29    28    1
    78    44    42   ar
    79    44    43   ar
    80    31    28    1
    81    31    32    1
    82    42    40   ar
    83    48    49    2
    84    43    41   ar
    85    40    39   ar
    86    41    39   ar
    87    39    38    1
    88    60    58    1
    89    38    35    1
    90    35    34    1
    91    35    36    1
    92    54    55    1
    93    58    55    1
    94    58    59    1
    95    36    37    2
    96    55    56    1
    97    57    56    2
