@<TRIPOS>MOLECULE
tmp/2x45A02.pdb
 92 86 0 0 0
SMALL
GASTEIGER

@<TRIPOS>ATOM
      1  N        -20.8620  -27.0920   16.3270 N.3    24  LEU24      -0.1245
      2  CA       -21.6900  -28.2060   15.8940 C.3    24  LEU24       0.1561
      3  C        -22.7730  -27.5950   14.9940 C.2    24  LEU24       0.2260
      4  O        -23.6540  -26.8490   15.4390 O.2    24  LEU24      -0.2867
      5  CB       -22.2810  -28.9150   17.1100 C.3    24  LEU24       0.0270
      6  CG       -23.1910  -30.0970   16.7800 C.3    24  LEU24       0.0019
      7  CD1      -22.5280  -31.1670   15.9230 C.3    24  LEU24       0.0001
      8  CD2      -23.7260  -30.7140   18.0830 C.3    24  LEU24       0.0001
      9  N        -28.9990  -35.9550   16.7510 N.3    29  LYS29      -0.1245
     10  CA       -29.6170  -35.8550   18.0870 C.3    29  LYS29       0.1561
     11  C        -30.6960  -34.7970   18.0650 C.2    29  LYS29       0.2260
     12  O        -30.5020  -33.7160   17.5190 O.2    29  LYS29      -0.2867
     13  CB       -28.5480  -35.5120   19.1240 C.3    29  LYS29       0.0271
     14  CG       -29.0250  -35.5710   20.5620 C.3    29  LYS29       0.0035
     15  CD       -27.8460  -35.4620   21.5220 C.3    29  LYS29       0.0206
     16  CE       -28.2730  -35.3760   22.9800 C.3    29  LYS29       0.1093
     17  NZ       -27.1180  -35.7350   23.8390 N.3    29  LYS29      -0.1314
     18  N        -30.5560  -31.0500   21.0150 N.3    32  GLU32      -0.1245
     19  CA       -29.1590  -30.6630   21.2890 C.3    32  GLU32       0.1567
     20  C        -29.1190  -29.1920   21.6770 C.2    32  GLU32       0.2260
     21  O        -29.9740  -28.3830   21.3010 O.2    32  GLU32      -0.2867
     22  CB       -28.2800  -30.9850   20.0700 C.3    32  GLU32       0.0388
     23  CG       -26.8260  -30.6920   20.2270 C.3    32  GLU32       0.1160
     24  CD       -26.1830  -31.4850   21.3370 C.2    32  GLU32       0.3649
     25  OE1      -25.5820  -32.5410   21.0130 O.co2  32  GLU32      -0.2457
     26  OE2      -26.3080  -31.0810   22.5320 O.co2  32  GLU32      -0.2457
     27  N        -23.5760  -25.2200   20.4360 N.3    36  THR36      -0.1218
     28  CA       -22.5540  -26.1370   20.9310 C.3    36  THR36       0.1862
     29  C        -21.2580  -25.8810   20.1540 C.2    36  THR36       0.2287
     30  O        -21.2770  -25.7780   18.9110 O.2    36  THR36      -0.2866
     31  CB       -23.0390  -27.5870   20.7750 C.3    36  THR36       0.1770
     32  OG1      -24.1150  -27.8180   21.6870 O.3    36  THR36      -0.2211
     33  CG2      -21.9210  -28.5980   21.0540 C.3    36  THR36       0.0375
     34  N        -15.2060  -26.0810   25.8850 N.3    54  TYR54      -0.1241
     35  CA       -16.4470  -26.4610   25.2000 C.3    54  TYR54       0.1605
     36  C        -17.6570  -25.9930   25.9660 C.2    54  TYR54       0.2264
     37  O        -17.5790  -25.7170   27.1500 O.2    54  TYR54      -0.2867
     38  CB       -16.4630  -27.9870   24.9370 C.3    54  TYR54       0.0534
     39  CG       -16.2630  -28.7970   26.1590 C.ar   54  TYR54      -0.0201
     40  CD1      -17.3500  -29.1900   26.9280 C.ar   54  TYR54      -0.0009
     41  CD2      -14.9940  -29.2000   26.5680 C.ar   54  TYR54      -0.0009
     42  CE1      -17.2020  -29.9290   28.0790 C.ar   54  TYR54       0.0417
     43  CE2      -14.8360  -29.9870   27.7030 C.ar   54  TYR54       0.0417
     44  CZ       -15.9470  -30.3150   28.4540 C.ar   54  TYR54       0.1957
     45  OH       -15.8070  -31.0820   29.6050 O.3    54  TYR54      -0.2866
     46  N        -16.2460  -39.1900   27.2030 N.3    82  ASP82      -0.1239
     47  CA       -16.8790  -39.1500   25.8850 C.3    82  ASP82       0.1674
     48  C        -15.8740  -39.4500   24.7770 C.2    82  ASP82       0.2266
     49  O        -14.7960  -38.8490   24.6880 O.2    82  ASP82      -0.2867
     50  CB       -17.4910  -37.7720   25.5910 C.3    82  ASP82       0.1410
     51  CG       -18.6850  -37.4620   26.4250 C.2    82  ASP82       0.3668
     52  OD1      -19.5430  -38.3330   26.5390 O.co2  82  ASP82      -0.2456
     53  OD2      -18.7850  -36.3510   26.9760 O.co2  82  ASP82      -0.2456
     54  N        -15.6090  -39.7960   20.4900 N.3    84  SER84      -0.1217
     55  CA       -16.1910  -39.5390   19.1790 C.3    84  SER84       0.1889
     56  C        -15.2770  -40.1230   18.1290 C.2    84  SER84       0.2288
     57  O        -14.0690  -39.9700   18.2520 O.2    84  SER84      -0.2866
     58  CB       -16.3400  -38.0410   18.9700 C.3    84  SER84       0.2089
     59  OG       -17.2250  -37.4480   19.8870 O.3    84  SER84      -0.2183
     60  N        -20.7730  -39.8490   17.5560 N.3    99  HIS99      -0.1241
     61  CA       -20.6980  -39.8350   19.0100 C.3    99  HIS99       0.1621
     62  C        -21.9430  -40.5330   19.5640 C.2    99  HIS99       0.2264
     63  O        -23.0310  -40.0800   19.3610 O.2    99  HIS99      -0.2867
     64  CB       -20.6340  -38.3960   19.5190 C.3    99  HIS99       0.0745
     65  CG       -20.7660  -38.2790   20.9970 C.ar   99  HIS99       0.0817
     66  ND1      -19.8260  -38.7720   21.8670 N.ar   99  HIS99      -0.2268
     67  CD2      -21.7570  -37.7690   21.7580 C.ar   99  HIS99       0.1154
     68  CE1      -20.2130  -38.5270   23.1110 C.ar   99  HIS99       0.1986
     69  NE2      -21.3880  -37.9310   23.0710 N.ar   99  HIS99      -0.2212
     70  N        -22.5830  -36.2680   13.5710 N.3   104  GLU104     -0.1245
     71  CA       -22.4250  -34.8240   13.7730 C.3   104  GLU104      0.1567
     72  C        -21.5580  -34.2230   12.6770 C.2   104  GLU104      0.2260
     73  O        -20.5330  -34.8120   12.2780 O.2   104  GLU104     -0.2867
     74  CB       -21.7280  -34.5860   15.1040 C.3   104  GLU104      0.0388
     75  CG       -22.5210  -35.0370   16.3180 C.3   104  GLU104      0.1160
     76  CD       -21.7730  -34.8540   17.6240 C.2   104  GLU104      0.3649
     77  OE1      -20.5210  -34.7160   17.6120 O.co2 104  GLU104     -0.2457
     78  OE2      -22.4780  -34.8070   18.6670 O.co2 104  GLU104     -0.2457
     79  N        -19.3970  -30.8330   12.2350 N.3   106  TRP106     -0.1241
     80  CA       -18.7750  -29.6950   12.9030 C.3   106  TRP106      0.1605
     81  C        -18.1030  -28.8060   11.8660 C.2   106  TRP106      0.2264
     82  O        -17.4920  -29.3190   10.9190 O.2   106  TRP106     -0.2867
     83  CB       -17.7400  -30.1960   13.8810 C.3   106  TRP106      0.0550
     84  CG       -18.2870  -30.9520   15.0340 C.ar  106  TRP106      0.0003
     85  CD1      -18.7190  -32.2480   15.0260 C.ar  106  TRP106      0.0946
     86  CD2      -18.4980  -30.4700   16.3750 C.ar  106  TRP106      0.0152
     87  NE1      -19.1730  -32.6140   16.2660 N.ar  106  TRP106     -0.2442
     88  CE2      -19.0570  -31.5440   17.1170 C.ar  106  TRP106      0.0810
     89  CE3      -18.2400  -29.2590   17.0400 C.ar  106  TRP106      0.0012
     90  CZ2      -19.3650  -31.4190   18.5100 C.ar  106  TRP106      0.0191
     91  CZ3      -18.5590  -29.1360   18.3870 C.ar  106  TRP106      0.0001
     92  CH2      -19.0960  -30.2040   19.1020 C.ar  106  TRP106      0.0015
@<TRIPOS>BOND
     1    82    81    2
     2    81    80    1
     3    79    80    1
     4    73    72    2
     5    72    71    1
     6    80    83    1
     7    70    71    1
     8    71    74    1
     9    83    84    1
    10     3     4    2
    11     3     2    1
    12    85    84   ar
    13    85    87   ar
    14    84    86   ar
    15    74    75    1
    16     2     1    1
    17     2     5    1
    18     7     6    1
    19    87    88   ar
    20    75    76    1
    21    86    89   ar
    22    86    88   ar
    23     9    10    1
    24     6     5    1
    25     6     8    1
    26    89    91   ar
    27    88    90   ar
    28    12    11    2
    29    60    61    1
    30    77    76   ar
    31    76    78   ar
    32    11    10    1
    33    10    13    1
    34    56    57    2
    35    56    55    1
    36    91    92   ar
    37    90    92   ar
    38    30    29    2
    39    58    55    1
    40    58    59    1
    41    61    64    1
    42    61    62    1
    43    13    14    1
    44    55    54    1
    45    63    62    2
    46    64    65    1
    47    22    23    1
    48    22    19    1
    49    29    28    1
    50    23    24    1
    51    27    28    1
    52    14    15    1
    53    31    28    1
    54    31    33    1
    55    31    32    1
    56    65    67   ar
    57    65    66   ar
    58    25    24   ar
    59    18    19    1
    60    19    20    1
    61    21    20    2
    62    24    26   ar
    63    15    16    1
    64    67    69   ar
    65    66    68   ar
    66    16    17    1
    67    69    68   ar
    68    49    48    2
    69    48    47    1
    70    38    35    1
    71    38    39    1
    72    35    34    1
    73    35    36    1
    74    50    47    1
    75    50    51    1
    76    47    46    1
    77    36    37    2
    78    39    41   ar
    79    39    40   ar
    80    51    52   ar
    81    51    53   ar
    82    41    43   ar
    83    40    42   ar
    84    43    44   ar
    85    42    44   ar
    86    44    45    1
