@<TRIPOS>MOLECULE
tmp/2x45A01.pdb
 119 116 0 0 0
SMALL
GASTEIGER

@<TRIPOS>ATOM
      1  N        -23.5760  -25.2200   20.4360 N.3    36  THR36      -0.1203
      2  CA       -22.5540  -26.1370   20.9310 C.3    36  THR36       0.1994
      3  C        -21.2580  -25.8810   20.1540 C.2    36  THR36       0.2618
      4  O        -21.2770  -25.7780   18.9110 O.2    36  THR36      -0.2717
      5  CB       -23.0390  -27.5870   20.7750 C.3    36  THR36       0.1784
      6  OG1      -24.1150  -27.8180   21.6870 O.3    36  THR36      -0.2211
      7  CG2      -21.9210  -28.5980   21.0540 C.3    36  THR36       0.0376
      8  N        -20.1580  -25.8070   20.9150 N.am   37  TYR37      -0.1961
      9  CA       -18.8490  -25.5090   20.3490 C.3    37  TYR37       0.1771
     10  C        -17.7700  -26.2480   21.1120 C.2    37  TYR37       0.2619
     11  O        -17.9650  -26.6810   22.2520 O.2    37  TYR37      -0.2715
     12  CB       -18.5460  -24.0000   20.3790 C.3    37  TYR37       0.0574
     13  CG       -18.1540  -23.5090   21.7440 C.ar   37  TYR37      -0.0198
     14  CD1      -16.8330  -23.4590   22.1240 C.ar   37  TYR37      -0.0009
     15  CD2      -19.1040  -23.1630   22.6800 C.ar   37  TYR37      -0.0009
     16  CE1      -16.4800  -23.0590   23.4060 C.ar   37  TYR37       0.0417
     17  CE2      -18.7790  -22.7630   23.9460 C.ar   37  TYR37       0.0417
     18  CZ       -17.4480  -22.7260   24.3390 C.ar   37  TYR37       0.1957
     19  OH       -17.1180  -22.3420   25.6500 O.3    37  TYR37      -0.2866
     20  N        -16.6260  -26.3840   20.4620 N.am   38  VAL38      -0.1977
     21  CA       -15.3570  -26.7960   21.0640 C.3    38  VAL38       0.1596
     22  C        -14.2530  -25.9060   20.5740 C.2    38  VAL38       0.2287
     23  O        -14.3600  -25.3320   19.4710 O.2    38  VAL38      -0.2864
     24  CB       -14.9770  -28.2700   20.7460 C.3    38  VAL38       0.0276
     25  CG1      -16.0230  -29.2450   21.2860 C.3    38  VAL38       0.0022
     26  CG2      -14.7490  -28.4970   19.2850 C.3    38  VAL38       0.0022
     27  N         -8.9950  -28.4020   25.7730 N.3    52  TYR52      -0.1241
     28  CA       -10.2650  -28.3300   25.0400 C.3    52  TYR52       0.1605
     29  C        -11.2800  -27.5650   25.8890 C.2    52  TYR52       0.2264
     30  O        -11.5640  -27.9440   27.0180 O.2    52  TYR52      -0.2867
     31  CB       -10.8010  -29.7280   24.7240 C.3    52  TYR52       0.0534
     32  CG       -11.1610  -29.9640   23.2710 C.ar   52  TYR52      -0.0201
     33  CD1      -10.2700  -29.6620   22.2500 C.ar   52  TYR52      -0.0009
     34  CD2      -12.3270  -30.6110   22.9100 C.ar   52  TYR52      -0.0009
     35  CE1      -10.5570  -29.9350   20.9370 C.ar   52  TYR52       0.0417
     36  CE2      -12.5860  -30.9160   21.5980 C.ar   52  TYR52       0.0417
     37  CZ       -11.7190  -30.5560   20.6270 C.ar   52  TYR52       0.1957
     38  OH       -11.9840  -30.8790   19.2970 O.3    52  TYR52      -0.2866
     39  N        -15.2060  -26.0810   25.8850 N.3    54  TYR54      -0.1241
     40  CA       -16.4470  -26.4610   25.2000 C.3    54  TYR54       0.1605
     41  C        -17.6570  -25.9930   25.9660 C.2    54  TYR54       0.2264
     42  O        -17.5790  -25.7170   27.1500 O.2    54  TYR54      -0.2867
     43  CB       -16.4630  -27.9870   24.9370 C.3    54  TYR54       0.0534
     44  CG       -16.2630  -28.7970   26.1590 C.ar   54  TYR54      -0.0201
     45  CD1      -17.3500  -29.1900   26.9280 C.ar   54  TYR54      -0.0009
     46  CD2      -14.9940  -29.2000   26.5680 C.ar   54  TYR54      -0.0009
     47  CE1      -17.2020  -29.9290   28.0790 C.ar   54  TYR54       0.0417
     48  CE2      -14.8360  -29.9870   27.7030 C.ar   54  TYR54       0.0417
     49  CZ       -15.9470  -30.3150   28.4540 C.ar   54  TYR54       0.1957
     50  OH       -15.8070  -31.0820   29.6050 O.3    54  TYR54      -0.2866
     51  N        -11.5500  -39.2280   19.1340 N.3    77  ILE77      -0.1245
     52  CA       -11.3410  -38.0350   19.9490 C.3    77  ILE77       0.1561
     53  C        -11.9500  -38.3560   21.3270 C.2    77  ILE77       0.2260
     54  O        -13.1620  -38.6040   21.4070 O.2    77  ILE77      -0.2867
     55  CB       -12.0710  -36.7940   19.3660 C.3    77  ILE77       0.0252
     56  CG1      -11.5830  -36.4510   17.9500 C.3    77  ILE77       0.0019
     57  CG2      -11.9620  -35.6240   20.3410 C.3    77  ILE77       0.0019
     58  CD1      -12.4380  -35.4080   17.2450 C.3    77  ILE77       0.0001
     59  N        -12.6060  -36.9810   25.1910 N.3    79  VAL79      -0.1245
     60  CA       -12.6870  -35.9040   26.1560 C.3    79  VAL79       0.1561
     61  C        -13.4280  -36.4530   27.3760 C.2    79  VAL79       0.2260
     62  O        -14.6070  -36.7530   27.3120 O.2    79  VAL79      -0.2867
     63  CB       -13.4080  -34.6650   25.5770 C.3    79  VAL79       0.0252
     64  CG1      -13.4880  -33.5430   26.6620 C.3    79  VAL79       0.0019
     65  CG2      -12.7370  -34.2030   24.2520 C.3    79  VAL79       0.0019
     66  N        -16.2460  -39.1900   27.2030 N.3    82  ASP82      -0.1225
     67  CA       -16.8790  -39.1500   25.8850 C.3    82  ASP82       0.1805
     68  C        -15.8740  -39.4500   24.7770 C.2    82  ASP82       0.2598
     69  O        -14.7960  -38.8490   24.6880 O.2    82  ASP82      -0.2718
     70  CB       -17.4910  -37.7720   25.5910 C.3    82  ASP82       0.1424
     71  CG       -18.6850  -37.4620   26.4250 C.2    82  ASP82       0.3668
     72  OD1      -19.5430  -38.3330   26.5390 O.co2  82  ASP82      -0.2456
     73  OD2      -18.7850  -36.3510   26.9760 O.co2  82  ASP82      -0.2456
     74  N        -16.2460  -40.3500   23.8970 N.am   83  THR83      -0.1939
     75  CA       -15.4540  -40.7050   22.7260 C.3    83  THR83       0.2028
     76  C        -16.2620  -40.4180   21.4630 C.2    83  THR83       0.2642
     77  O        -17.4510  -40.8060   21.3710 O.2    83  THR83      -0.2714
     78  CB       -15.0830  -42.1760   22.7600 C.3    83  THR83       0.1808
     79  OG1      -14.3230  -42.4400   23.9690 O.3    83  THR83      -0.2208
     80  CG2      -14.2690  -42.5470   21.5140 C.3    83  THR83       0.0379
     81  N        -15.6090  -39.7960   20.4900 N.am   84  SER84      -0.1949
     82  CA       -16.1910  -39.5390   19.1790 C.3    84  SER84       0.1924
     83  C        -15.2770  -40.1230   18.1290 C.2    84  SER84       0.2314
     84  O        -14.0690  -39.9700   18.2520 O.2    84  SER84      -0.2863
     85  CB       -16.3400  -38.0410   18.9700 C.3    84  SER84       0.2116
     86  OG       -17.2250  -37.4480   19.8870 O.3    84  SER84      -0.2180
     87  N        -20.7730  -39.8490   17.5560 N.3    99  HIS99      -0.1241
     88  CA       -20.6980  -39.8350   19.0100 C.3    99  HIS99       0.1621
     89  C        -21.9430  -40.5330   19.5640 C.2    99  HIS99       0.2264
     90  O        -23.0310  -40.0800   19.3610 O.2    99  HIS99      -0.2867
     91  CB       -20.6340  -38.3960   19.5190 C.3    99  HIS99       0.0745
     92  CG       -20.7660  -38.2790   20.9970 C.ar   99  HIS99       0.0817
     93  ND1      -19.8260  -38.7720   21.8670 N.ar   99  HIS99      -0.2268
     94  CD2      -21.7570  -37.7690   21.7580 C.ar   99  HIS99       0.1154
     95  CE1      -20.2130  -38.5270   23.1110 C.ar   99  HIS99       0.1986
     96  NE2      -21.3880  -37.9310   23.0710 N.ar   99  HIS99      -0.2212
     97  N        -22.5830  -36.2680   13.5710 N.3   104  GLU104     -0.1245
     98  CA       -22.4250  -34.8240   13.7730 C.3   104  GLU104      0.1567
     99  C        -21.5580  -34.2230   12.6770 C.2   104  GLU104      0.2260
    100  O        -20.5330  -34.8120   12.2780 O.2   104  GLU104     -0.2867
    101  CB       -21.7280  -34.5860   15.1040 C.3   104  GLU104      0.0388
    102  CG       -22.5210  -35.0370   16.3180 C.3   104  GLU104      0.1160
    103  CD       -21.7730  -34.8540   17.6240 C.2   104  GLU104      0.3649
    104  OE1      -20.5210  -34.7160   17.6120 O.co2 104  GLU104     -0.2457
    105  OE2      -22.4780  -34.8070   18.6670 O.co2 104  GLU104     -0.2457
    106  N        -19.3970  -30.8330   12.2350 N.3   106  TRP106     -0.1241
    107  CA       -18.7750  -29.6950   12.9030 C.3   106  TRP106      0.1605
    108  C        -18.1030  -28.8060   11.8660 C.2   106  TRP106      0.2264
    109  O        -17.4920  -29.3190   10.9190 O.2   106  TRP106     -0.2867
    110  CB       -17.7400  -30.1960   13.8810 C.3   106  TRP106      0.0550
    111  CG       -18.2870  -30.9520   15.0340 C.ar  106  TRP106      0.0003
    112  CD1      -18.7190  -32.2480   15.0260 C.ar  106  TRP106      0.0946
    113  CD2      -18.4980  -30.4700   16.3750 C.ar  106  TRP106      0.0152
    114  NE1      -19.1730  -32.6140   16.2660 N.ar  106  TRP106     -0.2442
    115  CE2      -19.0570  -31.5440   17.1170 C.ar  106  TRP106      0.0810
    116  CE3      -18.2400  -29.2590   17.0400 C.ar  106  TRP106      0.0012
    117  CZ2      -19.3650  -31.4190   18.5100 C.ar  106  TRP106      0.0191
    118  CZ3      -18.5590  -29.1360   18.3870 C.ar  106  TRP106      0.0001
    119  CH2      -19.0960  -30.2040   19.1020 C.ar  106  TRP106      0.0015
@<TRIPOS>BOND
     1   109   108    2
     2   108   107    1
     3   106   107    1
     4   100    99    2
     5    99    98    1
     6   107   110    1
     7    97    98    1
     8    98   101    1
     9   110   111    1
    10   112   111   ar
    11   112   114   ar
    12   111   113   ar
    13   101   102    1
    14   114   115   ar
    15   102   103    1
    16   113   116   ar
    17   113   115   ar
    18   116   118   ar
    19   115   117   ar
    20    58    56    1
    21    87    88    1
    22   104   103   ar
    23   103   105   ar
    24    56    55    1
    25    83    84    2
    26    83    82    1
    27   118   119   ar
    28   117   119   ar
    29     4     3    2
    30    85    82    1
    31    85    86    1
    32    88    91    1
    33    88    89    1
    34    51    52    1
    35    82    81    1
    36    26    24    1
    37    38    37    1
    38    90    89    2
    39    55    52    1
    40    55    57    1
    41    23    22    2
    42    91    92    1
    43    52    53    1
    44     3     8   am
    45     3     2    1
    46     9    12    1
    47     9     8    1
    48     9    10    1
    49    12    13    1
    50     1     2    1
    51    20    21    1
    52    20    10   am
    53    81    76   am
    54    22    21    1
    55    37    35   ar
    56    37    36   ar
    57    24    21    1
    58    24    25    1
    59     5     2    1
    60     5     7    1
    61     5     6    1
    62    35    33   ar
    63    92    94   ar
    64    92    93   ar
    65    10    11    2
    66    53    54    2
    67    77    76    2
    68    76    75    1
    69    80    78    1
    70    36    34   ar
    71    13    14   ar
    72    13    15   ar
    73    94    96   ar
    74    93    95   ar
    75    14    16   ar
    76    33    32   ar
    77    15    17   ar
    78    75    78    1
    79    75    74    1
    80    78    79    1
    81    34    32   ar
    82    96    95   ar
    83    32    31    1
    84    16    18   ar
    85    74    68   am
    86    17    18   ar
    87    65    63    1
    88    18    19    1
    89    69    68    2
    90    31    28    1
    91    68    67    1
    92    43    40    1
    93    43    44    1
    94    28    27    1
    95    28    29    1
    96    59    60    1
    97    40    39    1
    98    40    41    1
    99    63    60    1
   100    63    64    1
   101    70    67    1
   102    70    71    1
   103    67    66    1
   104    29    30    2
   105    41    42    2
   106    60    61    1
   107    44    46   ar
   108    44    45   ar
   109    71    72   ar
   110    71    73   ar
   111    46    48   ar
   112    45    47   ar
   113    62    61    2
   114    48    49   ar
   115    47    49   ar
   116    49    50    1
