@<TRIPOS>MOLECULE
tmp/2x46A00.pdb
 86 81 0 0 0
SMALL
GASTEIGER

@<TRIPOS>ATOM
      1  N         22.3320   24.9030   16.1000 N.3    12  SER12      -0.1202
      2  CA        21.7000   25.2990   14.8560 C.3    12  SER12       0.2020
      3  C         20.4610   26.1830   15.0360 C.2    12  SER12       0.2618
      4  O         20.2710   27.1790   14.3070 O.2    12  SER12      -0.2717
      5  CB        21.3580   24.0410   14.0630 C.3    12  SER12       0.2103
      6  OG        20.8810   24.3460   12.7750 O.3    12  SER12      -0.2182
      7  N         19.6160   25.8480   16.0090 N.am   13  ILE13      -0.1979
      8  CA        18.4420   26.6670   16.2930 C.3    13  ILE13       0.1595
      9  C         18.8420   28.0800   16.6750 C.2    13  ILE13       0.2287
     10  O         18.2650   29.0520   16.2110 O.2    13  ILE13      -0.2864
     11  CB        17.6180   26.0190   17.4170 C.3    13  ILE13       0.0276
     12  CG1       16.9500   24.7410   16.9060 C.3    13  ILE13       0.0022
     13  CG2       16.5680   26.9930   17.9710 C.3    13  ILE13       0.0022
     14  CD1       16.3750   23.9040   18.0190 C.3    13  ILE13       0.0001
     15  N         17.9420   33.0160    9.1500 N.3    21  TYR21      -0.1241
     16  CA        18.5010   32.1640    8.1110 C.3    21  TYR21       0.1605
     17  C         17.5630   32.0740    6.9210 C.2    21  TYR21       0.2264
     18  O         16.3620   31.8990    7.0690 O.2    21  TYR21      -0.2867
     19  CB        18.7850   30.7540    8.6610 C.3    21  TYR21       0.0534
     20  CG        19.9710   30.6800    9.5880 C.ar   21  TYR21      -0.0201
     21  CD1       21.1550   30.1280    9.1730 C.ar   21  TYR21      -0.0009
     22  CD2       19.8980   31.1380   10.9000 C.ar   21  TYR21      -0.0009
     23  CE1       22.2450   30.0420   10.0040 C.ar   21  TYR21       0.0417
     24  CE2       20.9890   31.0480   11.7510 C.ar   21  TYR21       0.0417
     25  CZ        22.1580   30.4970   11.3080 C.ar   21  TYR21       0.1957
     26  OH        23.2100   30.4050   12.1800 O.3    21  TYR21      -0.2866
     27  N         13.8370   31.2150    8.3080 N.3    37  VAL37      -0.1245
     28  CA        13.5640   31.0290    9.7400 C.3    37  VAL37       0.1561
     29  C         14.2730   32.1250   10.5270 C.2    37  VAL37       0.2260
     30  O         15.4160   32.4080   10.2580 O.2    37  VAL37      -0.2867
     31  CB        14.0990   29.6870   10.2660 C.3    37  VAL37       0.0252
     32  CG1       13.8370   29.5860   11.7820 C.3    37  VAL37       0.0019
     33  CG2       13.4320   28.5260    9.5370 C.3    37  VAL37       0.0019
     34  N         14.9160   33.0040   14.7070 N.3    39  GLY39      -0.1225
     35  CA        14.7370   32.5370   16.0570 C.3    39  GLY39       0.1811
     36  C         14.6920   33.6910   17.0420 C.2    39  GLY39       0.2280
     37  O         15.3840   34.7040   16.8810 O.2    39  GLY39      -0.2866
     38  N         10.4590   29.9860   16.7680 N.3    51  TYR51      -0.1241
     39  CA        10.7330   30.2630   15.3560 C.3    51  TYR51       0.1605
     40  C          9.6180   31.1300   14.7900 C.2    51  TYR51       0.2264
     41  O          8.4300   30.9170   15.0850 O.2    51  TYR51      -0.2867
     42  CB        10.7090   29.0010   14.5290 C.3    51  TYR51       0.0534
     43  CG        11.9280   28.1370   14.4440 C.ar   51  TYR51      -0.0201
     44  CD1       13.1510   28.4830   14.9870 C.ar   51  TYR51      -0.0009
     45  CD2       11.8600   26.9950   13.6560 C.ar   51  TYR51      -0.0009
     46  CE1       14.2610   27.6860   14.7690 C.ar   51  TYR51       0.0417
     47  CE2       12.9570   26.1960   13.4320 C.ar   51  TYR51       0.0417
     48  CZ        14.1580   26.5430   13.9720 C.ar   51  TYR51       0.1957
     49  OH        15.2830   25.7840   13.7570 O.3    51  TYR51      -0.2866
     50  N         15.9390   18.9780   15.1770 N.3    75  ILE75      -0.1245
     51  CA        15.1810   20.1800   15.4530 C.3    75  ILE75       0.1561
     52  C         13.7140   19.8280   15.2550 C.2    75  ILE75       0.2260
     53  O         13.3050   19.4700   14.1540 O.2    75  ILE75      -0.2867
     54  CB        15.5630   21.3430   14.5120 C.3    75  ILE75       0.0252
     55  CG1       17.0400   21.6930   14.6360 C.3    75  ILE75       0.0019
     56  CG2       14.6600   22.5330   14.7980 C.3    75  ILE75       0.0019
     57  CD1       17.4910   22.6750   13.6020 C.3    75  ILE75       0.0001
     58  N         23.9040   26.1690    7.8810 N.3    93  ASP93      -0.1239
     59  CA        23.5570   24.8310    8.3300 C.3    93  ASP93       0.1674
     60  C         23.2770   23.9590    7.1150 C.2    93  ASP93       0.2266
     61  O         22.7930   24.4480    6.0880 O.2    93  ASP93      -0.2867
     62  CB        22.2410   24.7840    9.1460 C.3    93  ASP93       0.1410
     63  CG        22.1210   25.8630   10.1550 C.2    93  ASP93       0.3668
     64  OD1       22.6770   25.7580   11.2770 O.co2  93  ASP93      -0.2456
     65  OD2       21.4080   26.8350    9.7710 O.co2  93  ASP93      -0.2456
     66  N         20.9210   20.5440    6.6940 N.3    95  VAL95      -0.1245
     67  CA        19.9770   19.6920    7.3900 C.3    95  VAL95       0.1561
     68  C         19.3090   18.7410    6.4110 C.2    95  VAL95       0.2260
     69  O         19.2130   19.0000    5.2040 O.2    95  VAL95      -0.2867
     70  CB        18.9230   20.4790    8.1860 C.3    95  VAL95       0.0252
     71  CG1       19.5900   21.4450    9.1520 C.3    95  VAL95       0.0019
     72  CG2       17.9780   21.1980    7.2840 C.3    95  VAL95       0.0019
     73  N         21.1200   26.1710    4.5160 N.3   104  TRP104     -0.1241
     74  CA        20.6340   27.4130    5.0890 C.3   104  TRP104      0.1605
     75  C         21.8120   28.3490    5.3180 C.2   104  TRP104      0.2264
     76  O         22.8730   27.9040    5.7710 O.2   104  TRP104     -0.2867
     77  CB        19.9660   27.1290    6.4370 C.3   104  TRP104      0.0550
     78  CG        18.7160   26.3270    6.3200 C.ar  104  TRP104      0.0003
     79  CD1       18.5990   24.9600    6.2010 C.ar  104  TRP104      0.0946
     80  CD2       17.3930   26.8570    6.2830 C.ar  104  TRP104      0.0152
     81  NE1       17.2720   24.6210    6.1210 N.ar  104  TRP104     -0.2442
     82  CE2       16.5100   25.7600    6.1650 C.ar  104  TRP104      0.0810
     83  CE3       16.8610   28.1530    6.3850 C.ar  104  TRP104      0.0012
     84  CZ2       15.1330   25.9180    6.1120 C.ar  104  TRP104      0.0191
     85  CZ3       15.4890   28.3060    6.3540 C.ar  104  TRP104      0.0001
     86  CH2       14.6430   27.1960    6.2300 C.ar  104  TRP104      0.0015
@<TRIPOS>BOND
     1    73    74    1
     2    74    75    1
     3    74    77    1
     4    69    68    2
     5    75    76    2
     6    61    60    2
     7    84    82   ar
     8    84    86   ar
     9    81    82   ar
    10    81    79   ar
    11    82    80   ar
    12    79    78   ar
    13    86    85   ar
    14    80    78   ar
    15    80    83   ar
    16    78    77    1
    17    85    83   ar
    18    68    67    1
    19    66    67    1
    20    17    18    2
    21    17    16    1
    22    60    59    1
    23    72    70    1
    24    67    70    1
    25    58    59    1
    26    16    19    1
    27    16    15    1
    28    70    71    1
    29    27    28    1
    30    59    62    1
    31    19    20    1
    32    62    63    1
    33    21    20   ar
    34    21    23   ar
    35    33    31    1
    36    20    22   ar
    37    28    31    1
    38    28    29    1
    39    65    63   ar
    40    23    25   ar
    41    63    64   ar
    42    30    29    2
    43    31    32    1
    44    22    24   ar
    45    25    24   ar
    46    25    26    1
    47     6     5    1
    48    47    45   ar
    49    47    48   ar
    50    57    55    1
    51    45    43   ar
    52    49    48    1
    53    48    46   ar
    54     5     2    1
    55    53    52    2
    56     4     3    2
    57    43    42    1
    58    43    44   ar
    59    54    55    1
    60    54    56    1
    61    54    51    1
    62    42    39    1
    63    34    35    1
    64    46    44   ar
    65    40    41    2
    66    40    39    1
    67     2     3    1
    68     2     1    1
    69     3     7   am
    70    50    51    1
    71    52    51    1
    72    39    38    1
    73     7     8    1
    74    35    36    1
    75    10     9    2
    76     8     9    1
    77     8    11    1
    78    37    36    2
    79    12    11    1
    80    12    14    1
    81    11    13    1
