@<TRIPOS>MOLECULE
tmp/2x4aA00.pdb
 98 92 0 0 0
SMALL
GASTEIGER

@<TRIPOS>ATOM
      1  N         52.9790  -15.8430   -5.4840 N.3    21  LEU21      -0.1245
      2  CA        52.3840  -15.8110   -4.1670 C.3    21  LEU21       0.1561
      3  C         51.1240  -14.9150   -4.1000 C.2    21  LEU21       0.2260
      4  O         50.0800  -15.3180   -3.5570 O.2    21  LEU21      -0.2867
      5  CB        53.4360  -15.3400   -3.1620 C.3    21  LEU21       0.0270
      6  CG        53.0030  -15.2870   -1.7050 C.3    21  LEU21       0.0019
      7  CD1       52.6970  -16.6890   -1.2180 C.3    21  LEU21       0.0001
      8  CD2       54.1320  -14.5710   -0.9110 C.3    21  LEU21       0.0001
      9  N         48.0870  -16.6260   -6.0000 N.3    24  ARG24      -0.1231
     10  CA        47.7050  -17.9410   -5.4720 C.3    24  ARG24       0.1694
     11  C         47.0570  -17.8430   -4.0880 C.2    24  ARG24       0.2591
     12  O         46.0910  -18.5830   -3.7480 O.2    24  ARG24      -0.2718
     13  CB        48.9010  -18.8550   -5.4720 C.3    24  ARG24       0.0321
     14  CG        49.2560  -19.2090   -6.8800 C.3    24  ARG24       0.0489
     15  CD        50.6030  -19.7540   -6.9270 C.3    24  ARG24       0.2205
     16  NE        50.5270  -21.0870   -6.4190 N.pl3  24  ARG24      -0.0865
     17  CZ        51.5320  -21.7530   -5.8670 C.cat  24  ARG24       0.5346
     18  NH1       52.7210  -21.1840   -5.7020 N.pl3  24  ARG24       0.1354
     19  NH2       51.3140  -23.0070   -5.4620 N.pl3  24  ARG24       0.1354
     20  N         47.5680  -16.8880   -3.3180 N.am   25  LEU25      -0.1980
     21  CA        46.9810  -16.4920   -2.0380 C.3    25  LEU25       0.1596
     22  C         45.4950  -16.1780   -2.1250 C.2    25  LEU25       0.2287
     23  O         44.6770  -16.7430   -1.3840 O.2    25  LEU25      -0.2864
     24  CB        47.7290  -15.2880   -1.5250 C.3    25  LEU25       0.0297
     25  CG        47.2470  -14.6880   -0.2190 C.3    25  LEU25       0.0022
     26  CD1       46.5710  -15.7360    0.7080 C.3    25  LEU25       0.0001
     27  CD2       48.4810  -14.0210    0.4620 C.3    25  LEU25       0.0001
     28  N         43.5150  -19.4420   -3.2210 N.3    28  GLN28      -0.1245
     29  CA        43.3250  -20.4320   -2.1510 C.3    28  GLN28       0.1566
     30  C         42.3750  -19.8910   -1.0650 C.2    28  GLN28       0.2260
     31  O         41.5980  -20.6450   -0.5130 O.2    28  GLN28      -0.2867
     32  CB        44.6450  -20.8040   -1.5410 C.3    28  GLN28       0.0367
     33  CG        44.4970  -21.8860   -0.4870 C.3    28  GLN28       0.0905
     34  CD        44.1240  -23.2200   -1.0750 C.2    28  GLN28       0.2608
     35  OE1       44.6590  -23.6030   -2.1030 O.2    28  GLN28      -0.2717
     36  NE2       43.2460  -23.9590   -0.4080 N.am   28  GLN28      -0.0878
     37  N         39.1420  -21.7760    0.1670 N.3    32  ASP32      -0.1239
     38  CA        38.8840  -22.1460    1.5440 C.3    32  ASP32       0.1674
     39  C         37.6540  -21.3890    2.1020 C.2    32  ASP32       0.2266
     40  O         36.8280  -22.0240    2.7820 O.2    32  ASP32      -0.2867
     41  CB        40.1090  -21.9090    2.4290 C.3    32  ASP32       0.1410
     42  CG        41.2720  -22.7970    2.0820 C.2    32  ASP32       0.3668
     43  OD1       41.0500  -23.9350    1.6090 O.co2  32  ASP32      -0.2456
     44  OD2       42.4420  -22.3680    2.3120 O.co2  32  ASP32      -0.2456
     45  N         55.6650  -26.5860    4.0910 N.3   118  ASN118     -0.1240
     46  CA        56.6250  -25.6360    3.5310 C.3   118  ASN118      0.1653
     47  C         56.3830  -24.1710    3.9020 C.2   118  ASN118      0.2266
     48  O         55.3310  -23.8010    4.3990 O.2   118  ASN118     -0.2867
     49  CB        56.7910  -25.8430    2.0100 C.3   118  ASN118      0.1155
     50  CG        55.5340  -25.5820    1.2300 C.2   118  ASN118      0.2627
     51  OD1       54.9220  -24.4980    1.3140 O.2   118  ASN118     -0.2716
     52  ND2       55.1500  -26.5560    0.4270 N.am  118  ASN118     -0.0877
     53  N         55.8420  -21.4870    2.2230 N.3   120  LEU120     -0.1231
     54  CA        54.7100  -20.7810    1.5720 C.3   120  LEU120      0.1693
     55  C         53.3270  -21.2160    2.0950 C.2   120  LEU120      0.2592
     56  O         52.5160  -20.3640    2.3680 O.2   120  LEU120     -0.2718
     57  CB        54.7700  -20.8560    0.0140 C.3   120  LEU120      0.0284
     58  CG        56.0020  -20.1440   -0.6040 C.3   120  LEU120      0.0019
     59  CD1       55.8970  -19.9050   -2.1100 C.3   120  LEU120      0.0001
     60  CD2       56.3640  -18.7860    0.1370 C.3   120  LEU120      0.0001
     61  N         53.0750  -22.5220    2.2400 N.am  121  ASP121     -0.1974
     62  CA        51.8300  -23.0280    2.8430 C.3   121  ASP121      0.1709
     63  C         51.6790  -22.4060    4.2440 C.2   121  ASP121      0.2293
     64  O         50.6330  -21.8250    4.5940 O.2   121  ASP121     -0.2864
     65  CB        51.8580  -24.5700    2.9310 C.3   121  ASP121      0.1436
     66  CG        51.7920  -25.2800    1.5400 C.2   121  ASP121      0.3671
     67  OD1       51.4560  -24.6990    0.5170 O.co2 121  ASP121     -0.2456
     68  OD2       52.0220  -26.4880    1.4670 O.co2 121  ASP121     -0.2456
     69  N         50.7660  -18.8630    4.0730 N.3   124  TYR124     -0.1227
     70  CA        49.3620  -18.7240    3.7520 C.3   124  TYR124      0.1736
     71  C         48.4880  -18.9610    4.9730 C.2   124  TYR124      0.2595
     72  O         47.5260  -18.2170    5.1630 O.2   124  TYR124     -0.2718
     73  CB        48.9440  -19.6240    2.5580 C.3   124  TYR124      0.0548
     74  CG        47.4450  -19.7560    2.4270 C.ar  124  TYR124     -0.0200
     75  CD1       46.7140  -18.7860    1.7880 C.ar  124  TYR124     -0.0009
     76  CD2       46.7640  -20.8460    2.9850 C.ar  124  TYR124     -0.0009
     77  CE1       45.3250  -18.8690    1.7190 C.ar  124  TYR124      0.0417
     78  CE2       45.3890  -20.9330    2.9250 C.ar  124  TYR124      0.0417
     79  CZ        44.6840  -19.9510    2.2940 C.ar  124  TYR124      0.1957
     80  OH        43.3350  -20.0240    2.2270 O.3   124  TYR124     -0.2866
     81  N         48.7520  -19.9890    5.7810 N.am  125  HIS125     -0.1975
     82  CA        47.8630  -20.2880    6.9070 C.3   125  HIS125      0.1656
     83  C         47.8780  -19.1120    7.8810 C.2   125  HIS125      0.2291
     84  O         46.8160  -18.7450    8.4520 O.2   125  HIS125     -0.2864
     85  CB        48.2330  -21.6030    7.5950 C.3   125  HIS125      0.0771
     86  CG        47.8620  -22.8300    6.8070 C.ar  125  HIS125      0.0820
     87  ND1       47.1850  -23.8940    7.3630 N.ar  125  HIS125     -0.2267
     88  CD2       48.1000  -23.1650    5.5200 C.ar  125  HIS125      0.1154
     89  CE1       47.0150  -24.8290    6.4470 C.ar  125  HIS125      0.1986
     90  NE2       47.5450  -24.3990    5.3130 N.ar  125  HIS125     -0.2212
     91  N         41.2960  -30.0160    8.2910 N.3   226  ASN226     -0.1240
     92  CA        42.0080  -30.0810    6.9750 C.3   226  ASN226      0.1653
     93  C         41.7600  -31.4820    6.3990 C.2   226  ASN226      0.2266
     94  O         40.6360  -31.9900    6.5080 O.2   226  ASN226     -0.2867
     95  CB        43.5130  -29.7040    7.0810 C.3   226  ASN226      0.1155
     96  CG        43.7970  -28.2570    6.6530 C.2   226  ASN226      0.2627
     97  OD1       43.8370  -27.9330    5.4470 O.2   226  ASN226     -0.2716
     98  ND2       44.0110  -27.3890    7.6360 N.am  226  ASN226     -0.0877
@<TRIPOS>BOND
     1    15    14    1
     2    15    16    1
     3    14    13    1
     4    16    17    2
     5     9    10    1
     6    17    18    1
     7    17    19    1
     8     1     2    1
     9    10    13    1
    10    10    11    1
    11     2     3    1
    12     2     5    1
    13     3     4    2
    14    11    12    2
    15    11    20   am
    16    20    21    1
    17    28    29    1
    18     5     6    1
    19    29    32    1
    20    29    30    1
    21    22    21    1
    22    22    23    2
    23    59    58    1
    24    35    34    2
    25    21    24    1
    26     6     7    1
    27     6     8    1
    28    32    33    1
    29    24    25    1
    30    34    33    1
    31    34    36   am
    32    30    31    2
    33    58    57    1
    34    58    60    1
    35    25    27    1
    36    25    26    1
    37    57    54    1
    38    37    38    1
    39    52    50   am
    40    67    66   ar
    41    50    51    2
    42    50    49    1
    43    68    66   ar
    44    66    65    1
    45    38    39    1
    46    38    41    1
    47    54    55    1
    48    54    53    1
    49    43    42   ar
    50    77    75   ar
    51    77    79   ar
    52    75    74   ar
    53    49    46    1
    54    42    44   ar
    55    42    41    1
    56    55    61   am
    57    55    56    2
    58    39    40    2
    59    80    79    1
    60    61    62    1
    61    79    78   ar
    62    74    73    1
    63    74    76   ar
    64    73    70    1
    65    62    65    1
    66    62    63    1
    67    78    76   ar
    68    46    47    1
    69    46    45    1
    70    70    69    1
    71    70    71    1
    72    47    48    2
    73    63    64    2
    74    71    72    2
    75    71    81   am
    76    90    88   ar
    77    90    89   ar
    78    97    96    2
    79    88    86   ar
    80    81    82    1
    81    93    94    2
    82    93    92    1
    83    89    87   ar
    84    96    95    1
    85    96    98   am
    86    86    87   ar
    87    86    85    1
    88    82    85    1
    89    82    83    1
    90    92    95    1
    91    92    91    1
    92    83    84    2
