@<TRIPOS>MOLECULE
tmp/2x4fA00.pdb
 127 118 0 0 0
SMALL
GASTEIGER

@<TRIPOS>ATOM
      1  N         93.4500   49.1300   33.3140 N.3    33  LEU33      -0.1231
      2  CA        92.4730   50.1750   33.0820 C.3    33  LEU33       0.1693
      3  C         91.4640   50.3310   34.2210 C.2    33  LEU33       0.2592
      4  O         90.9960   51.4370   34.4710 O.2    33  LEU33      -0.2718
      5  CB        91.7750   49.9600   31.7280 C.3    33  LEU33       0.0284
      6  CG        92.6470   49.7520   30.4760 C.3    33  LEU33       0.0019
      7  CD1       91.7910   49.5190   29.2430 C.3    33  LEU33       0.0001
      8  CD2       93.6080   50.9120   30.2430 C.3    33  LEU33       0.0001
      9  N         91.1410   49.2410   34.9160 N.am   34  GLY34      -0.1957
     10  CA        90.1900   49.3050   36.0300 C.3    34  GLY34       0.1869
     11  C         90.2310   48.1070   36.9600 C.2    34  GLY34       0.2309
     12  O         90.1990   46.9410   36.4990 O.2    34  GLY34      -0.2863
     13  N         90.9250   44.7210   34.1950 N.3    36  VAL36      -0.1245
     14  CA        90.9560   45.1440   32.7980 C.3    36  VAL36       0.1561
     15  C         92.3560   45.5800   32.3770 C.2    36  VAL36       0.2260
     16  O         92.9400   46.5000   32.9420 O.2    36  VAL36      -0.2867
     17  CB        89.9750   46.2940   32.5420 C.3    36  VAL36       0.0252
     18  CG1       90.0360   46.7470   31.0790 C.3    36  VAL36       0.0019
     19  CG2       88.5800   45.8750   32.9040 C.3    36  VAL36       0.0019
     20  N         90.7260   46.1730   24.7080 N.3    49  ALA49      -0.1245
     21  CA        90.8390   46.0360   26.1630 C.3    49  ALA49       0.1562
     22  C         90.4520   44.6360   26.5590 C.2    49  ALA49       0.2260
     23  O         89.5330   44.0460   25.9760 O.2    49  ALA49      -0.2867
     24  CB        89.9800   47.0580   26.8610 C.3    49  ALA49       0.0290
     25  N         89.1900   42.1870   29.5730 N.3    51  LYS51      -0.1245
     26  CA        88.5970   42.0010   30.9060 C.3    51  LYS51       0.1561
     27  C         88.6960   40.5430   31.3050 C.2    51  LYS51       0.2260
     28  O         87.9980   39.6970   30.7370 O.2    51  LYS51      -0.2867
     29  CB        87.1240   42.3960   30.8890 C.3    51  LYS51       0.0271
     30  CG        86.5910   42.8630   32.2110 C.3    51  LYS51       0.0035
     31  CD        85.0730   42.8200   32.2350 C.3    51  LYS51       0.0206
     32  CE        84.5250   43.5100   33.4770 C.3    51  LYS51       0.1093
     33  NZ        84.3090   44.9640   33.2370 N.3    51  LYS51      -0.1314
     34  N         79.8670   49.9780   24.9950 N.3    80  ILE80      -0.1245
     35  CA        81.1400   49.3470   24.6530 C.3    80  ILE80       0.1561
     36  C         80.8750   48.0630   23.8730 C.2    80  ILE80       0.2260
     37  O         79.8990   47.3610   24.1450 O.2    80  ILE80      -0.2867
     38  CB        81.9700   49.0510   25.9300 C.3    80  ILE80       0.0252
     39  CG1       83.4570   48.9130   25.6120 C.3    80  ILE80       0.0019
     40  CG2       81.4110   47.8520   26.6820 C.3    80  ILE80       0.0019
     41  CD1       84.1200   50.2410   25.4320 C.3    80  ILE80       0.0001
     42  N         87.4410   43.7580   24.2150 N.3    96  MET96      -0.1230
     43  CA        86.4900   44.8110   23.9180 C.3    96  MET96       0.1702
     44  C         87.1680   45.9880   23.2590 C.2    96  MET96       0.2592
     45  O         88.3850   46.2000   23.3920 O.2    96  MET96      -0.2718
     46  CB        85.8930   45.3620   25.2010 C.3    96  MET96       0.0401
     47  CG        85.2010   44.3490   26.0690 C.3    96  MET96       0.0596
     48  SD        84.5680   45.1210   27.5850 S.3    96  MET96      -0.1393
     49  CE        86.0940   45.2330   28.5030 C.3    96  MET96       0.0692
     50  N         86.3340   46.7880   22.6070 N.am   97  GLU97      -0.1966
     51  CA        86.6740   48.1190   22.2040 C.3    97  GLU97       0.1733
     52  C         87.4740   48.7840   23.3270 C.2    97  GLU97       0.2616
     53  O         87.1050   48.6790   24.4970 O.2    97  GLU97      -0.2715
     54  CB        85.3690   48.8630   21.9290 C.3    97  GLU97       0.0429
     55  CG        85.4820   50.3590   21.7930 C.3    97  GLU97       0.1163
     56  CD        84.1490   51.0370   21.5730 C.2    97  GLU97       0.3649
     57  OE1       83.0930   50.4440   21.8750 O.co2  97  GLU97      -0.2457
     58  OE2       84.1450   52.1800   21.0910 O.co2  97  GLU97      -0.2457
     59  N         88.5780   49.4380   22.9640 N.am   98  TYR98      -0.1960
     60  CA        89.3480   50.2650   23.8940 C.3    98  TYR98       0.1771
     61  C         89.1070   51.7430   23.6080 C.2    98  TYR98       0.2619
     62  O         89.1340   52.1560   22.4600 O.2    98  TYR98      -0.2715
     63  CB        90.8420   49.9110   23.8310 C.3    98  TYR98       0.0574
     64  CG        91.7710   50.9230   24.4620 C.ar   98  TYR98      -0.0198
     65  CD1       91.9350   50.9800   25.8350 C.ar   98  TYR98      -0.0009
     66  CD2       92.4930   51.8280   23.6730 C.ar   98  TYR98      -0.0009
     67  CE1       92.7810   51.9060   26.4140 C.ar   98  TYR98       0.0417
     68  CE2       93.3420   52.7630   24.2470 C.ar   98  TYR98       0.0417
     69  CZ        93.4790   52.8010   25.6260 C.ar   98  TYR98       0.1957
     70  OH        94.3310   53.7260   26.2180 O.3    98  TYR98      -0.2866
     71  N         88.8420   52.5200   24.6560 N.am   99  VAL99      -0.1977
     72  CA        88.6590   53.9620   24.5530 C.3    99  VAL99       0.1596
     73  C         89.9260   54.6480   25.0570 C.2    99  VAL99       0.2287
     74  O         90.2310   54.5960   26.2420 O.2    99  VAL99      -0.2864
     75  CB        87.4800   54.4450   25.4320 C.3    99  VAL99       0.0276
     76  CG1       87.2450   55.9360   25.2580 C.3    99  VAL99       0.0022
     77  CG2       86.2260   53.6880   25.1290 C.3    99  VAL99       0.0022
     78  N         92.2290   57.3260   26.5970 N.3   101  GLY101     -0.1210
     79  CA        92.0250   58.4550   27.5120 C.3   101  GLY101      0.1956
     80  C         90.6570   58.5230   28.1810 C.2   101  GLY101      0.2612
     81  O         90.1300   59.6090   28.4250 O.2   101  GLY101     -0.2717
     82  N         90.0700   57.3630   28.4690 N.am  102  GLY102     -0.1942
     83  CA        88.8360   57.2980   29.2480 C.3   102  GLY102      0.2014
     84  C         89.0340   57.7210   30.7030 C.2   102  GLY102      0.2639
     85  O         90.1340   57.5660   31.2640 O.2   102  GLY102     -0.2714
     86  N         87.9860   58.2930   31.2990 N.am  103  GLU103     -0.1963
     87  CA        87.9410   58.5770   32.7390 C.3   103  GLU103      0.1733
     88  C         86.5970   58.0400   33.2480 C.2   103  GLU103      0.2616
     89  O         85.5520   58.3630   32.6710 O.2   103  GLU103     -0.2715
     90  CB        88.0910   60.0870   33.0160 C.3   103  GLU103      0.0429
     91  CG        89.5110   60.6290   32.8320 C.3   103  GLU103      0.1163
     92  CD        89.5970   61.5840   31.6690 C.2   103  GLU103      0.3649
     93  OE1       88.4360   62.0490   31.4790 O.co2 103  GLU103     -0.2457
     94  OE2       90.5640   61.9130   30.9950 O.co2 103  GLU103     -0.2457
     95  N         86.6250   57.1970   34.2880 N.am  104  LEU104     -0.1977
     96  CA        85.3920   56.6620   34.8870 C.3   104  LEU104      0.1596
     97  C         84.5760   57.7560   35.5460 C.2   104  LEU104      0.2287
     98  O         85.1010   58.7410   36.0600 O.2   104  LEU104     -0.2864
     99  CB        85.6670   55.5580   35.9020 C.3   104  LEU104      0.0297
    100  CG        85.9500   54.1350   35.4180 C.3   104  LEU104      0.0022
    101  CD1       86.1240   53.2260   36.6350 C.3   104  LEU104      0.0001
    102  CD2       84.8520   53.6050   34.5070 C.3   104  LEU104      0.0001
    103  N         80.7010   54.0210   38.4070 N.3   147  GLU147     -0.1245
    104  CA        81.8730   53.1760   38.0850 C.3   147  GLU147      0.1567
    105  C         81.6760   52.2970   36.8280 C.2   147  GLU147      0.2260
    106  O         82.6230   51.6820   36.3470 O.2   147  GLU147     -0.2867
    107  CB        82.3160   52.3220   39.2800 C.3   147  GLU147      0.0388
    108  CG        81.1990   51.4390   39.8270 C.3   147  GLU147      0.1160
    109  CD        81.6420   50.4740   40.9170 C.2   147  GLU147      0.3649
    110  OE1       81.4850   50.7960   42.1160 O.co2 147  GLU147     -0.2457
    111  OE2       82.1280   49.3800   40.5680 O.co2 147  GLU147     -0.2457
    112  N         81.9560   55.3050   31.3310 N.3   150  LEU150     -0.1245
    113  CA        83.2280   55.9190   30.9890 C.3   150  LEU150      0.1561
    114  C         82.9850   57.2180   30.2790 C.2   150  LEU150      0.2260
    115  O         82.2080   57.2700   29.3300 O.2   150  LEU150     -0.2867
    116  CB        84.0460   54.9830   30.1050 C.3   150  LEU150      0.0270
    117  CG        85.5200   55.3350   29.9380 C.3   150  LEU150      0.0019
    118  CD1       86.2980   55.2750   31.2790 C.3   150  LEU150      0.0001
    119  CD2       86.1220   54.4020   28.9070 C.3   150  LEU150      0.0001
    120  N         80.3290   50.8030   30.0570 N.3   162  ILE162     -0.1245
    121  CA        81.4370   49.8660   29.8440 C.3   162  ILE162      0.1561
    122  C         81.3600   48.5080   30.5430 C.2   162  ILE162      0.2260
    123  O         82.3310   47.7350   30.4810 O.2   162  ILE162     -0.2867
    124  CB        82.8160   50.5080   30.1510 C.3   162  ILE162      0.0252
    125  CG1       82.8100   51.2150   31.5150 C.3   162  ILE162      0.0019
    126  CG2       83.2500   51.4410   28.9890 C.3   162  ILE162      0.0019
    127  CD1       82.7940   50.2770   32.6950 C.3   162  ILE162      0.0001
@<TRIPOS>BOND
     1    58    56   ar
     2    56    55    1
     3    56    57   ar
     4    55    54    1
     5    54    51    1
     6    51    50    1
     7    51    52    1
     8    62    61    2
     9    50    44   am
    10    59    52   am
    11    59    60    1
    12    44    45    2
    13    44    43    1
    14    52    53    2
    15    61    60    1
    16    61    71   am
    17    66    68   ar
    18    66    64   ar
    19    63    60    1
    20    63    64    1
    21    36    37    2
    22    36    35    1
    23    43    42    1
    24    43    46    1
    25    68    69   ar
    26    64    65   ar
    27    72    71    1
    28    72    73    1
    29    72    75    1
    30    35    34    1
    31    35    38    1
    32    20    21    1
    33    73    74    2
    34    77    75    1
    35    46    47    1
    36    76    75    1
    37    41    39    1
    38    39    38    1
    39    69    70    1
    40    69    67   ar
    41    65    67   ar
    42    38    40    1
    43    23    22    2
    44    47    48    1
    45    21    22    1
    46    21    24    1
    47    78    79    1
    48    79    80    1
    49    48    49    1
    50    80    81    2
    51    80    82   am
    52    82    83    1
    53   119   117    1
    54   126   124    1
    55     7     6    1
    56    83    84    1
    57   115   114    2
    58    25    26    1
    59   121   120    1
    60   121   124    1
    61   121   122    1
    62   117   116    1
    63   117   118    1
    64   116   113    1
    65   124   125    1
    66     8     6    1
    67   114   113    1
    68     6     5    1
    69   123   122    2
    70    84    85    2
    71    84    86   am
    72    28    27    2
    73    29    26    1
    74    29    30    1
    75    26    27    1
    76   113   112    1
    77    94    92   ar
    78    18    17    1
    79    86    87    1
    80    93    92   ar
    81   125   127    1
    82    92    91    1
    83     5     2    1
    84    30    31    1
    85    31    32    1
    86    15    14    1
    87    15    16    2
    88    17    14    1
    89    17    19    1
    90    89    88    2
    91    87    90    1
    92    87    88    1
    93    14    13    1
    94    91    90    1
    95     2     1    1
    96     2     3    1
    97    33    32    1
    98    88    95   am
    99     3     4    2
   100     3     9   am
   101    95    96    1
   102   102   100    1
   103    96    97    1
   104    96    99    1
   105     9    10    1
   106   100    99    1
   107   100   101    1
   108    97    98    2
   109    10    11    1
   110   106   105    2
   111    12    11    2
   112   105   104    1
   113   104   103    1
   114   104   107    1
   115   107   108    1
   116   108   109    1
   117   111   109   ar
   118   109   110   ar
