@<TRIPOS>MOLECULE
tmp/2x4mA02.pdb
 89 86 0 0 0
SMALL
GASTEIGER

@<TRIPOS>ATOM
      1  N         -5.9580  -47.9800   12.4630 N.3   120  LEU120     -0.1231
      2  CA        -5.8790  -48.2350   13.9100 C.3   120  LEU120      0.1693
      3  C         -7.2650  -48.2840   14.5130 C.2   120  LEU120      0.2592
      4  O         -8.0970  -47.4180   14.2120 O.2   120  LEU120     -0.2718
      5  CB        -5.1050  -47.1320   14.6330 C.3   120  LEU120      0.0284
      6  CG        -3.5830  -47.0380   14.5340 C.3   120  LEU120      0.0019
      7  CD1       -3.0940  -45.6570   15.0010 C.3   120  LEU120      0.0001
      8  CD2       -2.9160  -48.1700   15.3210 C.3   120  LEU120      0.0001
      9  N         -7.4980  -49.2760   15.3790 N.am  121  GLN121     -0.1966
     10  CA        -8.7880  -49.4560   16.0580 C.3   121  GLN121      0.1733
     11  C         -8.6870  -50.1390   17.4250 C.2   121  GLN121      0.2616
     12  O         -8.0890  -51.2020   17.5550 O.2   121  GLN121     -0.2715
     13  CB        -9.7480  -50.3030   15.2070 C.3   121  GLN121      0.0408
     14  CG        -9.8300  -49.9620   13.7290 C.3   121  GLN121      0.0908
     15  CD        -9.9510  -51.2130   12.8670 C.2   121  GLN121      0.2608
     16  OE1      -10.0280  -51.1400   11.6390 O.2   121  GLN121     -0.2717
     17  NE2       -9.9550  -52.3720   13.5140 N.am  121  GLN121     -0.0878
     18  N         -9.3040  -49.5430   18.4380 N.am  122  ASP122     -0.1971
     19  CA        -9.7000  -50.3120   19.6120 C.3   122  ASP122      0.1709
     20  C        -11.1860  -50.0640   19.9470 C.2   122  ASP122      0.2293
     21  O        -11.9670  -49.5890   19.1030 O.2   122  ASP122     -0.2864
     22  CB        -8.7820  -50.0640   20.8110 C.3   122  ASP122      0.1436
     23  CG        -8.8890  -48.6620   21.3540 C.2   122  ASP122      0.3671
     24  OD1       -9.0690  -48.4940   22.5860 O.co2 122  ASP122     -0.2456
     25  OD2       -8.7850  -47.7320   20.5400 O.co2 122  ASP122     -0.2456
     26  N        -11.7440  -45.8890   20.0010 N.3   125  TYR125     -0.1227
     27  CA       -11.1610  -45.0150   18.9950 C.3   125  TYR125      0.1736
     28  C        -10.9620  -45.7330   17.6750 C.2   125  TYR125      0.2595
     29  O        -10.8820  -46.9640   17.5960 O.2   125  TYR125     -0.2718
     30  CB        -9.8080  -44.4600   19.4590 C.3   125  TYR125      0.0548
     31  CG        -9.8740  -43.4310   20.5670 C.ar  125  TYR125     -0.0200
     32  CD1       -9.7270  -43.7990   21.9020 C.ar  125  TYR125     -0.0009
     33  CD2      -10.0660  -42.0930   20.2800 C.ar  125  TYR125     -0.0009
     34  CE1       -9.7800  -42.8600   22.9200 C.ar  125  TYR125      0.0417
     35  CE2      -10.1230  -41.1480   21.2890 C.ar  125  TYR125      0.0417
     36  CZ        -9.9750  -41.5340   22.6080 C.ar  125  TYR125      0.1957
     37  OH       -10.0210  -40.5830   23.6100 O.3   125  TYR125     -0.2866
     38  N        -10.8650  -44.9360   16.6300 N.am  126  LYS126     -0.1966
     39  CA       -10.6060  -45.4710   15.3180 C.3   126  LYS126      0.1728
     40  C         -9.9710  -44.3610   14.5310 C.2   126  LYS126      0.2616
     41  O        -10.3720  -43.2130   14.6420 O.2   126  LYS126     -0.2715
     42  CB       -11.9080  -45.8830   14.6610 C.3   126  LYS126      0.0311
     43  CG       -11.8050  -47.0800   13.7500 C.3   126  LYS126      0.0038
     44  CD       -13.2000  -47.4900   13.2660 C.3   126  LYS126      0.0206
     45  CE       -14.1140  -47.9060   14.4280 C.3   126  LYS126      0.1093
     46  NZ       -15.5640  -47.7070   14.1250 N.3   126  LYS126     -0.1314
     47  N         -8.9560  -44.6960   13.7590 N.am  127  ALA127     -0.1977
     48  CA        -8.4160  -43.7410   12.8280 C.3   127  ALA127      0.1597
     49  C         -8.0970  -44.4370   11.5060 C.2   127  ALA127      0.2287
     50  O         -7.6660  -45.5930   11.4810 O.2   127  ALA127     -0.2864
     51  CB        -7.2030  -43.0780   13.4100 C.3   127  ALA127      0.0319
     52  N        -11.5070  -40.0680   11.7350 N.3   180  GLY180     -0.1210
     53  CA       -11.3560  -40.4530   13.1210 C.3   180  GLY180      0.1956
     54  C        -12.6860  -40.8650   13.7020 C.2   180  GLY180      0.2612
     55  O        -13.7220  -40.3950   13.2480 O.2   180  GLY180     -0.2717
     56  N        -12.6660  -41.7500   14.6920 N.am  181  GLN181     -0.1965
     57  CA       -13.8850  -42.0610   15.4360 C.3   181  GLN181      0.1733
     58  C        -13.6460  -42.2740   16.9200 C.2   181  GLN181      0.2616
     59  O        -12.6450  -42.8570   17.3340 O.2   181  GLN181     -0.2715
     60  CB       -14.6350  -43.2650   14.8570 C.3   181  GLN181      0.0408
     61  CG       -15.9320  -43.5610   15.5900 C.3   181  GLN181      0.0908
     62  CD       -16.3070  -45.0210   15.5240 C.2   181  GLN181      0.2608
     63  OE1      -17.0920  -45.4200   14.6750 O.2   181  GLN181     -0.2717
     64  NE2      -15.7330  -45.8350   16.4140 N.am  181  GLN181     -0.0878
     65  N        -14.5980  -41.8030   17.7100 N.am  182  TYR182     -0.1974
     66  CA       -14.5490  -41.9490   19.1580 C.3   182  TYR182      0.1639
     67  C        -15.9050  -42.4300   19.6850 C.2   182  TYR182      0.2290
     68  O        -16.9230  -41.7980   19.4370 O.2   182  TYR182     -0.2864
     69  CB       -14.1100  -40.6250   19.8100 C.3   182  TYR182      0.0560
     70  CG       -14.2140  -40.5880   21.3240 C.ar  182  TYR182     -0.0198
     71  CD1      -13.7120  -41.6270   22.1070 C.ar  182  TYR182     -0.0009
     72  CD2      -14.7970  -39.5000   21.9700 C.ar  182  TYR182     -0.0009
     73  CE1      -13.8070  -41.5940   23.4920 C.ar  182  TYR182      0.0417
     74  CE2      -14.8980  -39.4560   23.3540 C.ar  182  TYR182      0.0417
     75  CZ       -14.4020  -40.5050   24.1110 C.ar  182  TYR182      0.1957
     76  OH       -14.4980  -40.4570   25.4880 O.3   182  TYR182     -0.2866
     77  N        -18.9070  -40.3370   18.3180 N.3   189  LEU189     -0.1245
     78  CA       -18.5860  -39.1260   17.5830 C.3   189  LEU189      0.1561
     79  C        -17.7020  -39.4380   16.3790 C.2   189  LEU189      0.2260
     80  O        -16.7500  -40.1990   16.4770 O.2   189  LEU189     -0.2867
     81  CB       -17.8800  -38.1440   18.5000 C.3   189  LEU189      0.0270
     82  CG       -17.3360  -36.8760   17.8530 C.3   189  LEU189      0.0019
     83  CD1      -17.8290  -35.6620   18.6160 C.3   189  LEU189      0.0001
     84  CD2      -15.8140  -36.9120   17.7960 C.3   189  LEU189      0.0001
     85  N        -15.4740  -37.6270   13.2450 N.3   191  ALA191     -0.1245
     86  CA       -14.9010  -36.5120   12.5080 C.3   191  ALA191      0.1562
     87  C        -14.2210  -37.0050   11.2350 C.2   191  ALA191      0.2260
     88  O        -13.6960  -38.1250   11.1680 O.2   191  ALA191     -0.2867
     89  CB       -13.9230  -35.7170   13.3780 C.3   191  ALA191      0.0290
@<TRIPOS>BOND
     1    88    87    2
     2    87    86    1
     3    50    49    2
     4    49    48    1
     5    16    15    2
     6    52    53    1
     7     1     2    1
     8    86    85    1
     9    86    89    1
    10    48    51    1
    11    48    47    1
    12    15    17   am
    13    15    14    1
    14    53    54    1
    15    55    54    2
    16    44    43    1
    17    44    45    1
    18    54    56   am
    19    14    13    1
    20    43    42    1
    21    47    40   am
    22     2     3    1
    23     2     5    1
    24    46    45    1
    25     4     3    2
    26     3     9   am
    27    40    41    2
    28    40    39    1
    29     6     5    1
    30     6     7    1
    31     6     8    1
    32    42    39    1
    33    63    62    2
    34    56    57    1
    35    60    57    1
    36    60    61    1
    37    13    10    1
    38    39    38    1
    39     9    10    1
    40    57    58    1
    41    62    61    1
    42    62    64   am
    43    10    11    1
    44    79    80    2
    45    79    78    1
    46    38    28   am
    47    58    59    2
    48    58    65   am
    49    11    12    2
    50    11    18   am
    51    78    77    1
    52    78    81    1
    53    29    28    2
    54    28    27    1
    55    65    66    1
    56    84    82    1
    57    82    81    1
    58    82    83    1
    59    18    19    1
    60    27    30    1
    61    27    26    1
    62    21    20    2
    63    66    67    1
    64    66    69    1
    65    68    67    2
    66    30    31    1
    67    19    20    1
    68    19    22    1
    69    69    70    1
    70    33    31   ar
    71    33    35   ar
    72    25    23   ar
    73    31    32   ar
    74    22    23    1
    75    35    36   ar
    76    70    72   ar
    77    70    71   ar
    78    23    24   ar
    79    32    34   ar
    80    72    74   ar
    81    71    73   ar
    82    36    34   ar
    83    36    37    1
    84    74    75   ar
    85    73    75   ar
    86    75    76    1
