@<TRIPOS>MOLECULE
tmp/2x4mC01.pdb
 128 117 0 0 0
SMALL
GASTEIGER

@<TRIPOS>ATOM
      1  N          8.1890  -23.8880  -13.1420 N.3    27  GLU27      -0.1231
      2  CA         8.0240  -22.4820  -13.4760 C.3    27  GLU27       0.1699
      3  C          7.2700  -22.4140  -14.7830 C.2    27  GLU27       0.2592
      4  O          7.8070  -22.7670  -15.8340 O.2    27  GLU27      -0.2718
      5  CB         9.3800  -21.8220  -13.6340 C.3    27  GLU27       0.0402
      6  CG         9.3400  -20.3590  -13.9660 C.3    27  GLU27       0.1161
      7  CD        10.7350  -19.8200  -14.2120 C.2    27  GLU27       0.3649
      8  OE1       10.8640  -18.6000  -14.4250 O.co2  27  GLU27      -0.2457
      9  OE2       11.7060  -20.6190  -14.1890 O.co2  27  GLU27      -0.2457
     10  N          6.0210  -21.9610  -14.7020 N.am   28  MET28      -0.1965
     11  CA         5.0990  -22.0460  -15.8140 C.3    28  MET28       0.1736
     12  C          4.7790  -20.7090  -16.4230 C.2    28  MET28       0.2616
     13  O          4.7060  -19.6940  -15.7340 O.2    28  MET28      -0.2715
     14  CB         3.8040  -22.7230  -15.3840 C.3    28  MET28       0.0427
     15  CG         3.7520  -24.1910  -15.7150 C.3    28  MET28       0.0599
     16  SD         4.8680  -25.1470  -14.6870 S.3    28  MET28      -0.1393
     17  CE         3.9830  -26.7090  -14.6450 C.3    28  MET28       0.0692
     18  N          4.5870  -20.7360  -17.7330 N.am   29  LEU29      -0.1977
     19  CA         4.1590  -19.5770  -18.4870 C.3    29  LEU29       0.1596
     20  C          3.0040  -19.9670  -19.4000 C.2    29  LEU29       0.2287
     21  O          3.1310  -20.8940  -20.2050 O.2    29  LEU29      -0.2864
     22  CB         5.3140  -19.0230  -19.3130 C.3    29  LEU29       0.0297
     23  CG         4.9640  -17.7620  -20.1020 C.3    29  LEU29       0.0022
     24  CD1        4.6620  -16.5910  -19.1680 C.3    29  LEU29       0.0001
     25  CD2        6.0840  -17.4160  -21.0560 C.3    29  LEU29       0.0001
     26  N          5.4660  -22.4210  -21.8980 N.3    39  SER39      -0.1217
     27  CA         6.7940  -22.6750  -21.3730 C.3    39  SER39       0.1889
     28  C          6.7950  -23.4430  -20.0600 C.2    39  SER39       0.2288
     29  O          5.7790  -23.5560  -19.3840 O.2    39  SER39      -0.2866
     30  CB         7.5740  -21.3690  -21.2300 C.3    39  SER39       0.2089
     31  OG         8.1300  -20.9860  -22.4760 O.3    39  SER39      -0.2183
     32  N          9.9940  -24.5860  -17.0220 N.3    41  LEU41      -0.1245
     33  CA        11.3220  -24.9290  -16.5490 C.3    41  LEU41       0.1561
     34  C         11.1460  -25.8060  -15.3140 C.2    41  LEU41       0.2260
     35  O         10.4450  -25.4220  -14.3840 O.2    41  LEU41      -0.2867
     36  CB        12.0730  -23.6520  -16.1670 C.3    41  LEU41       0.0270
     37  CG        11.9430  -22.3280  -16.9540 C.3    41  LEU41       0.0019
     38  CD1       13.2370  -21.9550  -17.6250 C.3    41  LEU41       0.0001
     39  CD2       10.7960  -22.2540  -17.9690 C.3    41  LEU41       0.0001
     40  N         14.1850  -26.7950  -19.9050 N.3    82  ASP82      -0.1239
     41  CA        13.3920  -25.6590  -20.3340 C.3    82  ASP82       0.1674
     42  C         12.6280  -25.9690  -21.6220 C.2    82  ASP82       0.2266
     43  O         13.2210  -26.1120  -22.6990 O.2    82  ASP82      -0.2867
     44  CB        14.3080  -24.4430  -20.5040 C.3    82  ASP82       0.1410
     45  CG        13.5490  -23.1800  -20.8240 C.2    82  ASP82       0.3668
     46  OD1       12.3640  -23.2670  -21.1900 O.co2  82  ASP82      -0.2456
     47  OD2       14.1510  -22.0950  -20.7190 O.co2  82  ASP82      -0.2456
     48  N          8.2020  -15.8440   -7.0740 N.3   202  ASP202     -0.1239
     49  CA         9.4070  -16.3150   -7.7400 C.3   202  ASP202      0.1674
     50  C         10.1140  -15.2020   -8.5120 C.2   202  ASP202      0.2266
     51  O          9.5150  -14.1830   -8.8650 O.2   202  ASP202     -0.2867
     52  CB         9.1480  -17.5760   -8.5920 C.3   202  ASP202      0.1410
     53  CG         8.5410  -17.2750   -9.9480 C.2   202  ASP202      0.3668
     54  OD1        8.5240  -16.1040  -10.3700 O.co2 202  ASP202     -0.2456
     55  OD2        8.0930  -18.2340  -10.6080 O.co2 202  ASP202     -0.2456
     56  N         13.0610  -14.5370  -11.6910 N.3   204  ASP204     -0.1239
     57  CA        13.7520  -15.1590  -12.8040 C.3   204  ASP204      0.1674
     58  C         14.6120  -14.1420  -13.5410 C.2   204  ASP204      0.2266
     59  O         14.1470  -13.0760  -13.9090 O.2   204  ASP204     -0.2867
     60  CB        12.7370  -15.8090  -13.7500 C.3   204  ASP204      0.1410
     61  CG        13.3860  -16.4860  -14.9360 C.2   204  ASP204      0.3668
     62  OD1       14.1660  -15.8200  -15.6620 O.co2 204  ASP204     -0.2456
     63  OD2       13.1010  -17.6830  -15.1490 O.co2 204  ASP204     -0.2456
     64  N         16.9180  -14.0440  -16.8700 N.3   206  HIS206     -0.1241
     65  CA        17.4020  -14.7240  -18.0680 C.3   206  HIS206      0.1621
     66  C         18.5760  -13.9120  -18.5430 C.2   206  HIS206      0.2264
     67  O         18.4010  -12.8490  -19.1360 O.2   206  HIS206     -0.2867
     68  CB        16.3300  -14.7830  -19.1590 C.3   206  HIS206      0.0745
     69  CG        15.4790  -16.0200  -19.1130 C.ar  206  HIS206      0.0817
     70  ND1       14.8440  -16.4530  -17.9680 N.ar  206  HIS206     -0.2268
     71  CD2       15.1370  -16.8980  -20.0870 C.ar  206  HIS206      0.1154
     72  CE1       14.1630  -17.5540  -18.2330 C.ar  206  HIS206      0.1986
     73  NE2       14.3230  -17.8450  -19.5110 N.ar  206  HIS206     -0.2212
     74  N         19.0430  -13.0050  -22.6570 N.3   209  ARG209     -0.1245
     75  CA        18.2360  -11.9850  -23.3250 C.3   209  ARG209      0.1563
     76  C         17.9250  -10.7670  -22.4390 C.2   209  ARG209      0.2260
     77  O         16.9940  -10.0160  -22.7140 O.2   209  ARG209     -0.2867
     78  CB        16.9610  -12.5740  -23.9560 C.3   209  ARG209      0.0307
     79  CG        16.3060  -13.6980  -23.1750 C.3   209  ARG209      0.0489
     80  CD        16.5570  -15.0550  -23.8340 C.3   209  ARG209      0.2205
     81  NE        16.0480  -15.1280  -25.2040 N.pl3 209  ARG209     -0.0865
     82  CZ        15.7760  -16.2640  -25.8460 C.cat 209  ARG209      0.5346
     83  NH1       15.9490  -17.4400  -25.2520 N.pl3 209  ARG209      0.1354
     84  NH2       15.3270  -16.2220  -27.0890 N.pl3 209  ARG209      0.1354
     85  N         16.5680  -10.1190  -19.3660 N.3   211  LEU211     -0.1245
     86  CA        15.1960  -10.0050  -18.8880 C.3   211  LEU211      0.1561
     87  C         15.0180  -10.5220  -17.4560 C.2   211  LEU211      0.2260
     88  O         15.3490  -11.6680  -17.1530 O.2   211  LEU211     -0.2867
     89  CB        14.2460  -10.7580  -19.8220 C.3   211  LEU211      0.0270
     90  CG        14.1840  -10.3820  -21.3030 C.3   211  LEU211      0.0019
     91  CD1       13.1160  -11.2190  -22.0130 C.3   211  LEU211      0.0001
     92  CD2       13.9240   -8.8860  -21.4870 C.3   211  LEU211      0.0001
     93  N         12.1950  -11.3610  -14.3910 N.3   213  PHE213     -0.1241
     94  CA        10.7710  -11.6620  -14.2020 C.3   213  PHE213      0.1605
     95  C         10.4050  -11.7850  -12.7230 C.2   213  PHE213      0.2264
     96  O         11.1460  -12.3800  -11.9410 O.2   213  PHE213     -0.2867
     97  CB        10.3750  -12.9670  -14.9090 C.3   213  PHE213      0.0534
     98  CG        10.8020  -13.0420  -16.3510 C.ar  213  PHE213     -0.0203
     99  CD1       10.0260  -12.4830  -17.3500 C.ar  213  PHE213     -0.0042
    100  CD2       11.9690  -13.7000  -16.7070 C.ar  213  PHE213     -0.0042
    101  CE1       10.4190  -12.5660  -18.6700 C.ar  213  PHE213     -0.0003
    102  CE2       12.3690  -13.7880  -18.0320 C.ar  213  PHE213     -0.0003
    103  CZ        11.6010  -13.2210  -19.0100 C.ar  213  PHE213     -0.0000
    104  N          7.0240  -12.9950  -10.2420 N.3   215  GLU215     -0.1245
    105  CA         5.6860  -13.5780  -10.2270 C.3   215  GLU215      0.1567
    106  C          5.1840  -13.7860   -8.8010 C.2   215  GLU215      0.2260
    107  O          5.9210  -14.2710   -7.9270 O.2   215  GLU215     -0.2867
    108  CB         5.6360  -14.8960  -11.0080 C.3   215  GLU215      0.0388
    109  CG         5.6760  -14.7490  -12.5320 C.3   215  GLU215      0.1160
    110  CD         7.0800  -14.7050  -13.1180 C.2   215  GLU215      0.3649
    111  OE1        7.9640  -15.4640  -12.6610 O.co2 215  GLU215     -0.2457
    112  OE2        7.2920  -13.9150  -14.0620 O.co2 215  GLU215     -0.2457
    113  N          2.5660  -11.9800  -14.4050 N.3   255  THR255     -0.1218
    114  CA         4.0100  -11.9260  -14.5110 C.3   255  THR255      0.1862
    115  C          4.4500  -10.5010  -14.7430 C.2   255  THR255      0.2287
    116  O          3.8810   -9.8000  -15.5720 O.2   255  THR255     -0.2866
    117  CB         4.5230  -12.7470  -15.7040 C.3   255  THR255      0.1770
    118  OG1        4.1100  -12.1150  -16.9220 O.3   255  THR255     -0.2211
    119  CG2        3.9860  -14.1620  -15.6570 C.3   255  THR255      0.0375
    120  N          1.2010  -17.3570  -15.2200 N.3   273  ALA273     -0.1231
    121  CA         2.3460  -17.9110  -14.5030 C.3   273  ALA273      0.1694
    122  C          1.9460  -18.9350  -13.4640 C.2   273  ALA273      0.2592
    123  O          0.8890  -18.8350  -12.8540 O.2   273  ALA273     -0.2718
    124  CB         3.1470  -16.8060  -13.8540 C.3   273  ALA273      0.0304
    125  N          2.8160  -19.9140  -13.2660 N.am  274  GLY274     -0.1957
    126  CA         2.6310  -20.9390  -12.2550 C.3   274  GLY274      0.1869
    127  C          3.8960  -21.0570  -11.4230 C.2   274  GLY274      0.2309
    128  O          4.9820  -20.6760  -11.8700 O.2   274  GLY274     -0.2863
@<TRIPOS>BOND
     1    84    82    1
     2    82    83    1
     3    82    81    2
     4    81    80    1
     5    78    75    1
     6    78    79    1
     7    80    79    1
     8    75    74    1
     9    75    76    1
    10    77    76    2
    11    43    42    2
    12    31    30    1
    13    91    90    1
    14    26    27    1
    15    42    41    1
    16    92    90    1
    17    27    30    1
    18    27    28    1
    19    90    89    1
    20    46    45   ar
    21    25    23    1
    22    45    47   ar
    23    45    44    1
    24    44    41    1
    25    41    40    1
    26    21    20    2
    27    23    22    1
    28    23    24    1
    29    71    73   ar
    30    71    69   ar
    31    28    29    2
    32    89    86    1
    33    73    72   ar
    34    20    19    1
    35    85    86    1
    36    22    19    1
    37    68    69    1
    38    68    65    1
    39    67    66    2
    40    69    70   ar
    41   103   101   ar
    42   103   102   ar
    43    86    87    1
    44   101    99   ar
    45    66    65    1
    46    19    18    1
    47    72    70   ar
    48    65    64    1
    49   102   100   ar
    50    39    37    1
    51    18    12   am
    52    38    37    1
    53    87    88    2
    54    99    98   ar
    55    32    33    1
    56    37    36    1
    57   118   117    1
    58   100    98   ar
    59    33    36    1
    60    33    34    1
    61    12    11    1
    62    12    13    2
    63    98    97    1
    64     4     3    2
    65    11    14    1
    66    11    10    1
    67    15    14    1
    68    15    16    1
    69   117   119    1
    70   117   114    1
    71    62    61   ar
    72   116   115    2
    73    34    35    2
    74   120   121    1
    75    63    61   ar
    76    61    60    1
    77    97    94    1
    78     3    10   am
    79     3     2    1
    80   115   114    1
    81    16    17    1
    82   114   113    1
    83   121   124    1
    84   121   122    1
    85     8     7   ar
    86    93    94    1
    87     7     9   ar
    88     7     6    1
    89    94    95    1
    90   112   110   ar
    91     6     5    1
    92    59    58    2
    93    60    57    1
    94     5     2    1
    95    58    57    1
    96     2     1    1
    97   122   125   am
    98   122   123    2
    99   125   126    1
   100   110   111   ar
   101   110   109    1
   102    57    56    1
   103    95    96    2
   104   109   108    1
   105   126   127    1
   106   128   127    2
   107   108   105    1
   108    55    53   ar
   109    54    53   ar
   110   104   105    1
   111   105   106    1
   112    53    52    1
   113    51    50    2
   114   106   107    2
   115    52    49    1
   116    50    49    1
   117    49    48    1
