@<TRIPOS>MOLECULE
tmp/2x4mD00.pdb
 102 100 0 0 0
SMALL
GASTEIGER

@<TRIPOS>ATOM
      1  N         31.6460  -40.9900  -45.0570 N.3    17  ALA17      -0.1245
      2  CA        32.3120  -42.0150  -45.8360 C.3    17  ALA17       0.1562
      3  C         32.6250  -43.1810  -44.9360 C.2    17  ALA17       0.2260
      4  O         33.0800  -43.0070  -43.8070 O.2    17  ALA17      -0.2867
      5  CB        33.5800  -41.4770  -46.4650 C.3    17  ALA17       0.0290
      6  N         34.1910  -49.0410  -50.5720 N.3    52  LEU52      -0.1231
      7  CA        34.2440  -47.7060  -50.0570 C.3    52  LEU52       0.1693
      8  C         32.8330  -47.1610  -50.1750 C.2    52  LEU52       0.2592
      9  O         32.2740  -47.0890  -51.2700 O.2    52  LEU52      -0.2718
     10  CB        35.2330  -46.8810  -50.8800 C.3    52  LEU52       0.0284
     11  CG        35.8460  -45.6620  -50.1930 C.3    52  LEU52       0.0019
     12  CD1       36.5310  -46.0590  -48.8950 C.3    52  LEU52       0.0001
     13  CD2       36.8130  -44.9490  -51.1220 C.3    52  LEU52       0.0001
     14  N         32.2480  -46.8070  -49.0390 N.am   53  LYS53      -0.1966
     15  CA        30.8950  -46.2670  -49.0280 C.3    53  LYS53       0.1728
     16  C         30.9680  -44.7520  -48.9090 C.2    53  LYS53       0.2616
     17  O         32.0000  -44.2140  -48.4980 O.2    53  LYS53      -0.2715
     18  CB        30.0680  -46.8770  -47.8870 C.3    53  LYS53       0.0311
     19  CG        28.8940  -47.6760  -48.3630 C.3    53  LYS53       0.0038
     20  CD        28.0110  -48.0770  -47.2080 C.3    53  LYS53       0.0206
     21  CE        26.6050  -48.4170  -47.6730 C.3    53  LYS53       0.1093
     22  NZ        26.6000  -49.5460  -48.6400 N.3    53  LYS53      -0.1314
     23  N         29.8760  -44.0810  -49.2800 N.am   54  GLY54      -0.1955
     24  CA        29.7970  -42.6260  -49.2940 C.3    54  GLY54       0.1869
     25  C         28.3920  -42.0560  -49.1250 C.2    54  GLY54       0.2309
     26  O         27.4030  -42.7290  -49.4050 O.2    54  GLY54      -0.2863
     27  N         24.0510  -41.0940  -52.4740 N.3    69  ARG69      -0.1231
     28  CA        24.7630  -42.1800  -51.8490 C.3    69  ARG69       0.1694
     29  C         25.4090  -43.0640  -52.8990 C.2    69  ARG69       0.2593
     30  O         25.1460  -42.9380  -54.0920 O.2    69  ARG69      -0.2718
     31  CB        23.8160  -42.9790  -50.9560 C.3    69  ARG69       0.0321
     32  CG        23.2220  -42.1650  -49.8210 C.3    69  ARG69       0.0489
     33  CD        22.1880  -42.9620  -49.0550 C.3    69  ARG69       0.2205
     34  NE        22.7760  -44.1230  -48.3940 N.pl3  69  ARG69      -0.0865
     35  CZ        23.2090  -44.1290  -47.1380 C.cat  69  ARG69       0.5346
     36  NH1       23.1200  -43.0280  -46.3990 N.pl3  69  ARG69       0.1354
     37  NH2       23.7300  -45.2360  -46.6210 N.pl3  69  ARG69       0.1354
     38  N         26.2850  -43.9470  -52.4590 N.am   70  GLY70      -0.1942
     39  CA        26.9000  -44.8600  -53.3900 C.3    70  GLY70       0.2014
     40  C         28.1080  -45.5250  -52.7870 C.2    70  GLY70       0.2639
     41  O         28.6720  -45.0400  -51.8180 O.2    70  GLY70      -0.2714
     42  N         28.4980  -46.6560  -53.3460 N.am   71  TRP71      -0.1959
     43  CA        29.7000  -47.3260  -52.9010 C.3    71  TRP71       0.1771
     44  C         30.3360  -48.0140  -54.0780 C.2    71  TRP71       0.2620
     45  O         29.7150  -48.1720  -55.1310 O.2    71  TRP71      -0.2715
     46  CB        29.4240  -48.3300  -51.7760 C.3    71  TRP71       0.0590
     47  CG        28.3220  -49.2990  -52.0570 C.ar   71  TRP71       0.0006
     48  CD1       27.0550  -49.2560  -51.5570 C.ar   71  TRP71       0.0946
     49  CD2       28.3800  -50.4620  -52.9000 C.ar   71  TRP71       0.0152
     50  NE1       26.3170  -50.3120  -52.0350 N.ar   71  TRP71      -0.2442
     51  CE2       27.1040  -51.0670  -52.8620 C.ar   71  TRP71       0.0810
     52  CE3       29.3820  -51.0460  -53.6820 C.ar   71  TRP71       0.0012
     53  CZ2       26.8020  -52.2240  -53.5740 C.ar   71  TRP71       0.0191
     54  CZ3       29.0830  -52.1990  -54.3840 C.ar   71  TRP71       0.0001
     55  CH2       27.7960  -52.7750  -54.3260 C.ar   71  TRP71       0.0015
     56  N         31.5870  -48.4150  -53.9070 N.am   72  THR72      -0.1951
     57  CA        32.2850  -49.0640  -54.9890 C.3    72  THR72       0.1897
     58  C         33.2460  -50.1110  -54.4790 C.2    72  THR72       0.2313
     59  O         33.7650  -50.0240  -53.3700 O.2    72  THR72      -0.2863
     60  CB        33.0140  -48.0500  -55.8800 C.3    72  THR72       0.1794
     61  OG1       33.6900  -48.7520  -56.9290 O.3    72  THR72      -0.2208
     62  CG2       34.0150  -47.2250  -55.0670 C.3    72  THR72       0.0378
     63  N         29.4250  -51.7670  -57.7090 N.3   109  ASN109     -0.1225
     64  CA        29.1470  -50.3970  -57.3360 C.3   109  ASN109      0.1785
     65  C         27.6630  -50.1020  -57.3360 C.2   109  ASN109      0.2597
     66  O         26.8600  -50.7870  -57.9750 O.2   109  ASN109     -0.2718
     67  CB        29.8830  -49.4170  -58.2490 C.3   109  ASN109      0.1169
     68  CG        29.4340  -49.5070  -59.6950 C.2   109  ASN109      0.2627
     69  OD1       30.1890  -49.9510  -60.5610 O.2   109  ASN109     -0.2716
     70  ND2       28.1960  -49.0840  -59.9670 N.am  109  ASN109     -0.0877
     71  N         27.3060  -49.0690  -56.5970 N.am  110  GLU110     -0.1965
     72  CA        25.9410  -48.6190  -56.5580 C.3   110  GLU110      0.1733
     73  C         25.9310  -47.1190  -56.3690 C.2   110  GLU110      0.2616
     74  O         26.8610  -46.5590  -55.7960 O.2   110  GLU110     -0.2715
     75  CB        25.2210  -49.2920  -55.3960 C.3   110  GLU110      0.0429
     76  CG        23.8180  -48.7600  -55.1690 C.3   110  GLU110      0.1163
     77  CD        23.5760  -48.3840  -53.7260 C.2   110  GLU110      0.3649
     78  OE1       23.1710  -49.2880  -52.9710 O.co2 110  GLU110     -0.2457
     79  OE2       23.8060  -47.2070  -53.3470 O.co2 110  GLU110     -0.2457
     80  N         24.8950  -46.4640  -56.8720 N.am  111  TYR111     -0.1974
     81  CA        24.5970  -45.1110  -56.4300 C.3   111  TYR111      0.1639
     82  C         23.1210  -45.0190  -56.1110 C.2   111  TYR111      0.2290
     83  O         22.3200  -45.8100  -56.5910 O.2   111  TYR111     -0.2864
     84  CB        25.0050  -44.0570  -57.4630 C.3   111  TYR111      0.0560
     85  CG        24.2280  -44.1100  -58.7490 C.ar  111  TYR111     -0.0198
     86  CD1       24.6940  -44.8530  -59.8320 C.ar  111  TYR111     -0.0009
     87  CD2       23.0340  -43.4120  -58.8850 C.ar  111  TYR111     -0.0009
     88  CE1       23.9940  -44.9030  -61.0060 C.ar  111  TYR111      0.0417
     89  CE2       22.3220  -43.4560  -60.0580 C.ar  111  TYR111      0.0417
     90  CZ        22.8020  -44.2050  -61.1210 C.ar  111  TYR111      0.1957
     91  OH        22.0910  -44.2550  -62.3050 O.3   111  TYR111     -0.2866
     92  N         25.5250  -52.4430  -59.9420 N.3   137  ARG137     -0.1245
     93  CA        26.2280  -53.2270  -60.9420 C.3   137  ARG137      0.1563
     94  C         27.1700  -54.2590  -60.3280 C.2   137  ARG137      0.2260
     95  O         27.8340  -53.9900  -59.3310 O.2   137  ARG137     -0.2867
     96  CB        27.0120  -52.3130  -61.8740 C.3   137  ARG137      0.0307
     97  CG        26.1880  -51.3010  -62.6390 C.3   137  ARG137      0.0489
     98  CD        27.1030  -50.4020  -63.4100 C.3   137  ARG137      0.2205
     99  NE        26.4940  -49.8820  -64.6170 N.pl3 137  ARG137     -0.0865
    100  CZ        25.8670  -48.7160  -64.6840 C.cat 137  ARG137      0.5346
    101  NH1       25.7670  -47.9500  -63.5990 N.pl3 137  ARG137      0.1354
    102  NH2       25.3400  -48.3200  -65.8390 N.pl3 137  ARG137      0.1354
@<TRIPOS>BOND
     1   102   100    1
     2   100    99    2
     3   100   101    1
     4    99    98    1
     5    98    97    1
     6    97    96    1
     7    91    90    1
     8    96    93    1
     9    90    88   ar
    10    90    89   ar
    11    88    86   ar
    12    93    94    1
    13    93    92    1
    14    69    68    2
    15    94    95    2
    16    89    87   ar
    17    70    68   am
    18    86    85   ar
    19    68    67    1
    20    87    85   ar
    21    85    84    1
    22    67    64    1
    23    66    65    2
    24    63    64    1
    25    84    81    1
    26    64    65    1
    27    65    71   am
    28    61    60    1
    29    80    81    1
    30    80    73   am
    31    71    72    1
    32    83    82    2
    33    72    73    1
    34    72    75    1
    35    81    82    1
    36    73    74    2
    37    60    62    1
    38    60    57    1
    39    75    76    1
    40    76    77    1
    41    45    44    2
    42    57    58    1
    43    57    56    1
    44    58    59    2
    45    54    55   ar
    46    54    52   ar
    47    55    53   ar
    48    30    29    2
    49    44    56   am
    50    44    43    1
    51    77    79   ar
    52    77    78   ar
    53    52    49   ar
    54    53    51   ar
    55    39    40    1
    56    39    38    1
    57    42    43    1
    58    42    40   am
    59    43    46    1
    60    49    51   ar
    61    49    47   ar
    62    29    38   am
    63    29    28    1
    64    51    50   ar
    65    40    41    2
    66    27    28    1
    67    47    46    1
    68    47    48   ar
    69    50    48   ar
    70    28    31    1
    71     9     8    2
    72    13    11    1
    73    31    32    1
    74    10    11    1
    75    10     7    1
    76     6     7    1
    77    11    12    1
    78     8     7    1
    79     8    14   am
    80    32    33    1
    81    26    25    2
    82    24    23    1
    83    24    25    1
    84    23    16   am
    85    33    34    1
    86    14    15    1
    87    15    16    1
    88    15    18    1
    89    16    17    2
    90    22    21    1
    91    34    35    2
    92    19    18    1
    93    19    20    1
    94    21    20    1
    95    35    37    1
    96    35    36    1
    97     5     2    1
    98     2     1    1
    99     2     3    1
   100     3     4    2
