@<TRIPOS>MOLECULE
tmp/2x4mB01.pdb
 102 100 0 0 0
SMALL
GASTEIGER

@<TRIPOS>ATOM
      1  N        -17.0850  -52.4740  -37.6770 N.3     6  ALA6       -0.1245
      2  CA       -17.7690  -52.7600  -38.9310 C.3     6  ALA6        0.1562
      3  C        -17.9440  -51.4780  -39.7100 C.2     6  ALA6        0.2260
      4  O        -18.3260  -50.4350  -39.1510 O.2     6  ALA6       -0.2867
      5  CB       -19.1100  -53.4250  -38.6870 C.3     6  ALA6        0.0290
      6  N        -19.4940  -54.6540  -47.2260 N.3    41  LEU41      -0.1231
      7  CA       -19.5260  -54.5680  -45.7860 C.3    41  LEU41       0.1693
      8  C        -18.2010  -55.0970  -45.2440 C.2    41  LEU41       0.2592
      9  O        -17.9820  -56.3100  -45.2340 O.2    41  LEU41      -0.2718
     10  CB       -20.6530  -55.4330  -45.2550 C.3    41  LEU41       0.0284
     11  CG       -20.8500  -55.3020  -43.7520 C.3    41  LEU41       0.0019
     12  CD1      -21.2480  -53.8690  -43.3880 C.3    41  LEU41       0.0001
     13  CD2      -21.8830  -56.3150  -43.2880 C.3    41  LEU41       0.0001
     14  N        -17.3120  -54.2010  -44.8180 N.am   42  LYS42      -0.1966
     15  CA       -16.1150  -54.6030  -44.0790 C.3    42  LYS42       0.1728
     16  C        -16.4570  -54.8270  -42.6110 C.2    42  LYS42       0.2616
     17  O        -17.4590  -54.3150  -42.1150 O.2    42  LYS42      -0.2715
     18  CB       -15.0570  -53.5030  -44.1220 C.3    42  LYS42       0.0311
     19  CG       -14.3700  -53.2690  -45.4530 C.3    42  LYS42       0.0038
     20  CD       -13.1120  -52.4100  -45.2710 C.3    42  LYS42       0.0206
     21  CE       -11.9820  -53.2320  -44.7010 C.3    42  LYS42       0.1093
     22  NZ       -12.3690  -53.9730  -43.4590 N.3    42  LYS42      -0.1314
     23  N        -15.5990  -55.5430  -41.9000 N.am   43  GLY43      -0.1955
     24  CA       -15.7910  -55.7190  -40.4780 C.3    43  GLY43       0.1869
     25  C        -14.6920  -56.5120  -39.8110 C.2    43  GLY43       0.2309
     26  O        -13.9780  -57.2820  -40.4560 O.2    43  GLY43      -0.2863
     27  N        -10.1680  -59.7070  -39.9940 N.3    58  ARG58      -0.1231
     28  CA       -11.0110  -58.8610  -40.8360 C.3    58  ARG58       0.1694
     29  C        -11.5240  -59.5690  -42.0970 C.2    58  ARG58       0.2593
     30  O        -11.2850  -60.7610  -42.3050 O.2    58  ARG58      -0.2718
     31  CB       -10.3030  -57.5540  -41.2210 C.3    58  ARG58       0.0321
     32  CG        -8.9130  -57.3300  -40.6170 C.3    58  ARG58       0.0489
     33  CD        -8.2120  -56.1310  -41.2820 C.3    58  ARG58       0.2205
     34  NE        -7.9500  -56.3620  -42.7090 N.pl3  58  ARG58      -0.0865
     35  CZ        -8.0780  -55.4400  -43.6670 C.cat  58  ARG58       0.5346
     36  NH1       -8.4690  -54.2080  -43.3550 N.pl3  58  ARG58       0.1354
     37  NH2       -7.8180  -55.7470  -44.9380 N.pl3  58  ARG58       0.1354
     38  N        -12.2340  -58.8130  -42.9310 N.am   59  GLY59      -0.1942
     39  CA       -12.8450  -59.3180  -44.1480 C.3    59  GLY59       0.2014
     40  C        -13.9730  -58.4000  -44.5970 C.2    59  GLY59       0.2639
     41  O        -14.5020  -57.6200  -43.8040 O.2    59  GLY59      -0.2714
     42  N        -14.3340  -58.4720  -45.8740 N.am   60  TRP60      -0.1959
     43  CA       -15.4840  -57.7390  -46.3760 C.3    60  TRP60       0.1771
     44  C        -16.1880  -58.5350  -47.4450 C.2    60  TRP60       0.2620
     45  O        -15.6520  -59.5060  -47.9760 O.2    60  TRP60      -0.2715
     46  CB       -15.0880  -56.3640  -46.9210 C.3    60  TRP60       0.0590
     47  CG       -13.9480  -56.3830  -47.9040 C.ar   60  TRP60       0.0006
     48  CD1      -12.6460  -56.0520  -47.6570 C.ar   60  TRP60       0.0946
     49  CD2      -14.0130  -56.7490  -49.2920 C.ar   60  TRP60       0.0152
     50  NE1      -11.8950  -56.1920  -48.8050 N.ar   60  TRP60      -0.2442
     51  CE2      -12.7110  -56.6170  -49.8210 C.ar   60  TRP60       0.0810
     52  CE3      -15.0470  -57.1720  -50.1380 C.ar   60  TRP60       0.0012
     53  CZ2      -12.4150  -56.8940  -51.1570 C.ar   60  TRP60       0.0191
     54  CZ3      -14.7470  -57.4440  -51.4660 C.ar   60  TRP60       0.0001
     55  CH2      -13.4390  -57.2980  -51.9600 C.ar   60  TRP60       0.0015
     56  N        -17.3990  -58.1110  -47.7630 N.am   61  THR61      -0.1951
     57  CA       -18.1720  -58.8080  -48.7610 C.3    61  THR61       0.1897
     58  C        -19.0420  -57.8690  -49.5840 C.2    61  THR61       0.2313
     59  O        -19.4890  -56.8130  -49.1110 O.2    61  THR61      -0.2863
     60  CB       -19.0380  -59.9180  -48.1310 C.3    61  THR61       0.1794
     61  OG1      -19.7650  -60.5940  -49.1650 O.3    61  THR61      -0.2208
     62  CG2      -20.0090  -59.3360  -47.1290 C.3    61  THR61       0.0378
     63  N        -15.4040  -60.6750  -52.2540 N.3    98  ASN98      -0.1225
     64  CA       -15.1620  -60.8430  -50.8310 C.3    98  ASN98       0.1785
     65  C        -13.6970  -61.0980  -50.5190 C.2    98  ASN98       0.2597
     66  O        -12.9270  -61.5520  -51.3630 O.2    98  ASN98      -0.2718
     67  CB       -16.0330  -61.9650  -50.2480 C.3    98  ASN98       0.1169
     68  CG       -15.6920  -63.3290  -50.8190 C.2    98  ASN98       0.2627
     69  OD1      -16.4790  -63.9140  -51.5660 O.2    98  ASN98      -0.2716
     70  ND2      -14.5170  -63.8440  -50.4710 N.am   98  ASN98      -0.0877
     71  N        -13.3280  -60.7920  -49.2890 N.am   99  GLU99      -0.1965
     72  CA       -11.9930  -61.0590  -48.8230 C.3    99  GLU99       0.1733
     73  C        -12.0460  -61.3910  -47.3500 C.2    99  GLU99       0.2616
     74  O        -12.9740  -60.9950  -46.6540 O.2    99  GLU99      -0.2715
     75  CB       -11.1210  -59.8270  -49.0260 C.3    99  GLU99       0.0429
     76  CG        -9.7430  -59.9410  -48.3950 C.3    99  GLU99       0.1163
     77  CD        -9.4150  -58.7420  -47.5510 C.2    99  GLU99       0.3649
     78  OE1       -8.8880  -57.7670  -48.1170 O.co2  99  GLU99      -0.2457
     79  OE2       -9.6980  -58.7670  -46.3340 O.co2  99  GLU99      -0.2457
     80  N        -11.0610  -62.1410  -46.8820 N.am  100  TYR100     -0.1974
     81  CA       -10.8370  -62.2590  -45.4580 C.3   100  TYR100      0.1639
     82  C         -9.3500  -62.1480  -45.2380 C.2   100  TYR100      0.2290
     83  O         -8.5620  -62.3840  -46.1510 O.2   100  TYR100     -0.2864
     84  CB       -11.3850  -63.5670  -44.8870 C.3   100  TYR100      0.0560
     85  CG       -10.7020  -64.8280  -45.3830 C.ar  100  TYR100     -0.0198
     86  CD1      -11.2310  -65.5560  -46.4430 C.ar  100  TYR100     -0.0009
     87  CD2       -9.5420  -65.3040  -44.7790 C.ar  100  TYR100     -0.0009
     88  CE1      -10.6220  -66.7120  -46.8950 C.ar  100  TYR100      0.0417
     89  CE2       -8.9250  -66.4630  -45.2270 C.ar  100  TYR100      0.0417
     90  CZ        -9.4720  -67.1610  -46.2840 C.ar  100  TYR100      0.1957
     91  OH        -8.8750  -68.3150  -46.7420 O.3   100  TYR100     -0.2866
     92  N        -11.6830  -62.8830  -53.6030 N.3   126  ARG126     -0.1245
     93  CA       -12.4500  -63.4690  -54.7060 C.3   126  ARG126      0.1563
     94  C        -13.2970  -62.4520  -55.4790 C.2   126  ARG126      0.2260
     95  O        -13.9130  -61.5680  -54.8820 O.2   126  ARG126     -0.2867
     96  CB       -13.3650  -64.5740  -54.1850 C.3   126  ARG126      0.0307
     97  CG       -12.6500  -65.7390  -53.5110 C.3   126  ARG126      0.0489
     98  CD       -13.6790  -66.6960  -52.9430 C.3   126  ARG126      0.2205
     99  NE       -13.1890  -68.0660  -52.8580 N.pl3 126  ARG126     -0.0865
    100  CZ       -12.6290  -68.5860  -51.7720 C.cat 126  ARG126      0.5346
    101  NH1      -12.4880  -67.8430  -50.6770 N.pl3 126  ARG126      0.1354
    102  NH2      -12.2110  -69.8480  -51.7810 N.pl3 126  ARG126      0.1354
@<TRIPOS>BOND
     1    94    95    2
     2    94    93    1
     3    93    96    1
     4    93    92    1
     5    96    97    1
     6    97    98    1
     7    98    99    1
     8    99   100    2
     9    63    64    1
    10    55    54   ar
    11    55    53   ar
    12   102   100    1
    13   100   101    1
    14    69    68    2
    15    54    52   ar
    16    66    65    2
    17    53    51   ar
    18    64    65    1
    19    64    67    1
    20    68    70   am
    21    68    67    1
    22    65    71   am
    23    52    49   ar
    24    51    49   ar
    25    51    50   ar
    26    58    59    2
    27    58    57    1
    28    49    47   ar
    29    71    72    1
    30    61    60    1
    31    75    72    1
    32    75    76    1
    33    72    73    1
    34    50    48   ar
    35    57    60    1
    36    57    56    1
    37    76    77    1
    38    60    62    1
    39    78    77   ar
    40    45    44    2
    41    47    48   ar
    42    47    46    1
    43    56    44   am
    44    77    79   ar
    45    44    43    1
    46    73    80   am
    47    73    74    2
    48     6     7    1
    49    46    43    1
    50    88    86   ar
    51    88    90   ar
    52    80    81    1
    53    91    90    1
    54    86    85   ar
    55    43    42    1
    56    90    89   ar
    57    83    82    2
    58    42    40   am
    59     7    10    1
    60     7     8    1
    61    81    82    1
    62    81    84    1
    63    19    20    1
    64    19    18    1
    65    85    84    1
    66    85    87   ar
    67    20    21    1
    68    10    11    1
    69     8     9    2
    70     8    14   am
    71    89    87   ar
    72    37    35    1
    73    14    15    1
    74    21    22    1
    75    40    39    1
    76    40    41    2
    77    39    38    1
    78    18    15    1
    79    15    16    1
    80    11    12    1
    81    11    13    1
    82    35    36    1
    83    35    34    2
    84    38    29   am
    85    34    33    1
    86    16    17    2
    87    16    23   am
    88    30    29    2
    89    29    28    1
    90    23    24    1
    91    33    32    1
    92    31    28    1
    93    31    32    1
    94    28    27    1
    95    24    25    1
    96    26    25    2
    97     3     4    2
    98     3     2    1
    99     2     5    1
   100     2     1    1
