@<TRIPOS>MOLECULE
tmp/2x4mB00.pdb
 128 117 0 0 0
SMALL
GASTEIGER

@<TRIPOS>ATOM
      1  N         -7.0260  -60.5680  -67.6460 N.3    17  GLU17      -0.1231
      2  CA        -7.0060  -61.9760  -68.0080 C.3    17  GLU17       0.1699
      3  C         -6.2270  -62.1050  -69.3040 C.2    17  GLU17       0.2592
      4  O         -6.6960  -61.6840  -70.3660 O.2    17  GLU17      -0.2718
      5  CB        -8.4350  -62.4680  -68.2000 C.3    17  GLU17       0.0402
      6  CG        -8.5510  -63.9150  -68.5620 C.3    17  GLU17       0.1161
      7  CD        -9.9830  -64.3100  -68.8450 C.2    17  GLU17       0.3649
      8  OE1      -10.2330  -65.5100  -69.0590 O.co2  17  GLU17      -0.2457
      9  OE2      -10.8550  -63.4210  -68.8560 O.co2  17  GLU17      -0.2457
     10  N         -5.0290  -62.6700  -69.2090 N.am   18  MET18      -0.1965
     11  CA        -4.0990  -62.6510  -70.3310 C.3    18  MET18       0.1736
     12  C         -3.8950  -64.0000  -70.9670 C.2    18  MET18       0.2616
     13  O         -3.9160  -65.0340  -70.2910 O.2    18  MET18      -0.2715
     14  CB        -2.7470  -62.1040  -69.9010 C.3    18  MET18       0.0427
     15  CG        -2.5470  -60.6420  -70.2380 C.3    18  MET18       0.0599
     16  SD        -3.5720  -59.5800  -69.2340 S.3    18  MET18      -0.1393
     17  CE        -2.5200  -58.1410  -69.1080 C.3    18  MET18       0.0692
     18  N         -3.6840  -63.9750  -72.2760 N.am   19  LEU19      -0.1977
     19  CA        -3.3610  -65.1810  -73.0170 C.3    19  LEU19       0.1596
     20  C         -2.1690  -64.8990  -73.9010 C.2    19  LEU19       0.2287
     21  O         -2.1920  -63.9710  -74.7140 O.2    19  LEU19      -0.2864
     22  CB        -4.5370  -65.6160  -73.8740 C.3    19  LEU19       0.0297
     23  CG        -4.2820  -66.8880  -74.6770 C.3    19  LEU19       0.0022
     24  CD1       -4.0980  -68.0790  -73.7390 C.3    19  LEU19       0.0001
     25  CD2       -5.4250  -67.1360  -75.6490 C.3    19  LEU19       0.0001
     26  N         -4.4170  -62.3370  -76.5540 N.3    29  SER29      -0.1217
     27  CA        -5.7160  -62.0020  -76.0290 C.3    29  SER29       0.1889
     28  C         -5.5480  -61.4010  -74.6380 C.2    29  SER29       0.2288
     29  O         -4.6000  -61.7140  -73.9140 O.2    29  SER29      -0.2866
     30  CB        -6.6120  -63.2470  -76.0120 C.3    29  SER29       0.2089
     31  OG        -7.9120  -62.9430  -75.5330 O.3    29  SER29      -0.2183
     32  N         -8.4310  -59.8210  -71.6360 N.3    31  LEU31      -0.1245
     33  CA        -9.7430  -59.3960  -71.2030 C.3    31  LEU31       0.1561
     34  C         -9.5870  -58.5230  -69.9640 C.2    31  LEU31       0.2260
     35  O         -8.8440  -58.8650  -69.0480 O.2    31  LEU31      -0.2867
     36  CB       -10.6000  -60.6110  -70.8460 C.3    31  LEU31       0.0270
     37  CG       -10.8550  -61.7850  -71.7990 C.3    31  LEU31       0.0019
     38  CD1      -12.2750  -61.7420  -72.3110 C.3    31  LEU31       0.0001
     39  CD2       -9.8570  -61.8920  -72.9400 C.3    31  LEU31       0.0001
     40  N        -12.6050  -56.9680  -74.4940 N.3    72  ASP72      -0.1239
     41  CA       -11.9270  -58.1920  -74.9110 C.3    72  ASP72       0.1674
     42  C        -11.1130  -57.9660  -76.1790 C.2    72  ASP72       0.2266
     43  O        -11.6700  -57.7740  -77.2550 O.2    72  ASP72      -0.2867
     44  CB       -12.9520  -59.3160  -75.0970 C.3    72  ASP72       0.1410
     45  CG       -12.3190  -60.6380  -75.4500 C.2    72  ASP72       0.3668
     46  OD1      -11.1510  -60.6330  -75.8780 O.co2  72  ASP72      -0.2456
     47  OD2      -12.9830  -61.6880  -75.3090 O.co2  72  ASP72      -0.2456
     48  N         -7.9450  -68.6160  -61.6950 N.3   192  ASP192     -0.1239
     49  CA        -9.0880  -68.0170  -62.3550 C.3   192  ASP192      0.1674
     50  C         -9.8900  -69.0550  -63.1360 C.2   192  ASP192      0.2266
     51  O         -9.3950  -70.1390  -63.4670 O.2   192  ASP192     -0.2867
     52  CB        -8.6970  -66.7770  -63.1950 C.3   192  ASP192      0.1410
     53  CG        -8.0430  -67.1240  -64.5210 C.2   192  ASP192      0.3668
     54  OD1       -8.1070  -68.2910  -64.9540 O.co2 192  ASP192     -0.2456
     55  OD2       -7.4740  -66.2060  -65.1460 O.co2 192  ASP192     -0.2456
     56  N        -12.8380  -69.3440  -66.4120 N.3   194  ASP194     -0.1239
     57  CA       -13.4510  -68.6400  -67.5110 C.3   194  ASP194      0.1674
     58  C        -14.3930  -69.5540  -68.2720 C.2   194  ASP194      0.2266
     59  O        -14.0450  -70.6780  -68.6410 O.2   194  ASP194     -0.2867
     60  CB       -12.3760  -68.0990  -68.4400 C.3   194  ASP194      0.1410
     61  CG       -12.9460  -67.3700  -69.6500 C.2   194  ASP194      0.3668
     62  OD1      -13.7440  -67.9690  -70.4050 O.co2 194  ASP194     -0.2456
     63  OD2      -12.5600  -66.1970  -69.8650 O.co2 194  ASP194     -0.2456
     64  N        -16.4600  -69.3870  -71.6270 N.3   196  HIS196     -0.1241
     65  CA       -16.8330  -68.7970  -72.8960 C.3   196  HIS196      0.1621
     66  C        -18.0970  -69.5050  -73.3500 C.2   196  HIS196      0.2264
     67  O        -18.0710  -70.4760  -74.1110 O.2   196  HIS196     -0.2867
     68  CB       -15.6860  -68.8850  -73.9140 C.3   196  HIS196      0.0745
     69  CG       -14.8740  -67.6270  -74.0070 C.ar  196  HIS196      0.0817
     70  ND1      -14.2500  -67.0630  -72.9140 N.ar  196  HIS196     -0.2268
     71  CD2      -14.6110  -66.8090  -75.0540 C.ar  196  HIS196      0.1154
     72  CE1      -13.6310  -65.9570  -73.2870 C.ar  196  HIS196      0.1986
     73  NE2      -13.8340  -65.7810  -74.5810 N.ar  196  HIS196     -0.2212
     74  N        -19.1570  -70.3820  -76.8880 N.3   199  ARG199     -0.1245
     75  CA       -18.1980  -71.2040  -77.6130 C.3   199  ARG199      0.1563
     76  C        -18.2320  -72.6110  -77.0760 C.2   199  ARG199      0.2260
     77  O        -17.6160  -73.4990  -77.6420 O.2   199  ARG199     -0.2867
     78  CB       -16.7740  -70.6510  -77.4610 C.3   199  ARG199      0.0307
     79  CG       -16.6390  -69.1420  -77.5980 C.3   199  ARG199      0.0489
     80  CD       -15.3610  -68.7330  -78.3390 C.3   199  ARG199      0.2205
     81  NE       -15.4210  -69.0500  -79.7670 N.pl3 199  ARG199     -0.0865
     82  CZ       -15.4360  -68.1530  -80.7540 C.cat 199  ARG199      0.5346
     83  NH1      -15.3850  -66.8450  -80.4960 N.pl3 199  ARG199      0.1354
     84  NH2      -15.4960  -68.5750  -82.0120 N.pl3 199  ARG199      0.1354
     85  N        -16.8620  -73.5510  -74.2450 N.3   201  LEU201     -0.1245
     86  CA       -15.5130  -73.7640  -73.7100 C.3   201  LEU201      0.1561
     87  C        -15.3580  -73.1970  -72.2970 C.2   201  LEU201      0.2260
     88  O        -15.9870  -72.1850  -71.9440 O.2   201  LEU201     -0.2867
     89  CB       -14.4570  -73.1230  -74.6080 C.3   201  LEU201      0.0270
     90  CG       -14.4710  -73.4910  -76.0840 C.3   201  LEU201      0.0019
     91  CD1      -13.4930  -72.6090  -76.8230 C.3   201  LEU201      0.0001
     92  CD2      -14.1540  -74.9570  -76.2700 C.3   201  LEU201      0.0001
     93  N        -12.1820  -72.4570  -69.2560 N.3   203  PHE203     -0.1241
     94  CA       -10.7300  -72.3770  -69.0100 C.3   203  PHE203      0.1605
     95  C        -10.3590  -72.3690  -67.5260 C.2   203  PHE203      0.2264
     96  O        -11.1050  -71.8650  -66.6920 O.2   203  PHE203     -0.2867
     97  CB       -10.1190  -71.1470  -69.6920 C.3   203  PHE203      0.0534
     98  CG       -10.5350  -70.9800  -71.1190 C.ar  203  PHE203     -0.0203
     99  CD1       -9.8790  -71.6540  -72.1260 C.ar  203  PHE203     -0.0042
    100  CD2      -11.5880  -70.1490  -71.4530 C.ar  203  PHE203     -0.0042
    101  CE1      -10.2720  -71.4990  -73.4440 C.ar  203  PHE203     -0.0003
    102  CE2      -11.9780  -69.9900  -72.7620 C.ar  203  PHE203     -0.0003
    103  CZ       -11.3170  -70.6640  -73.7610 C.ar  203  PHE203     -0.0000
    104  N         -6.9840  -71.6160  -65.0060 N.3   205  GLU205     -0.1245
    105  CA        -5.6040  -71.2270  -64.7800 C.3   205  GLU205      0.1567
    106  C         -5.2580  -71.3200  -63.3070 C.2   205  GLU205      0.2260
    107  O         -6.0530  -70.9490  -62.4570 O.2   205  GLU205     -0.2867
    108  CB        -5.3430  -69.8090  -65.2940 C.3   205  GLU205      0.0388
    109  CG        -5.0770  -69.7200  -66.7970 C.3   205  GLU205      0.1160
    110  CD        -6.3380  -69.8330  -67.6600 C.2   205  GLU205      0.3649
    111  OE1       -7.3320  -69.1030  -67.3960 O.co2 205  GLU205     -0.2457
    112  OE2       -6.3240  -70.6420  -68.6200 O.co2 205  GLU205     -0.2457
    113  N         -2.6060  -72.9320  -69.0310 N.3   245  THR245     -0.1218
    114  CA        -4.0540  -72.8610  -69.1410 C.3   245  THR245      0.1862
    115  C         -4.6290  -74.2450  -69.3820 C.2   245  THR245      0.2287
    116  O         -4.1230  -75.0140  -70.1930 O.2   245  THR245     -0.2866
    117  CB        -4.4830  -71.9650  -70.3080 C.3   245  THR245      0.1770
    118  OG1       -4.1320  -72.5940  -71.5440 O.3   245  THR245     -0.2211
    119  CG2       -3.7800  -70.6330  -70.2290 C.3   245  THR245      0.0375
    120  N         -0.7060  -67.7450  -69.7280 N.3   263  ALA263     -0.1231
    121  CA        -1.7980  -67.0730  -69.0430 C.3   263  ALA263      0.1694
    122  C         -1.3170  -66.0970  -67.9870 C.2   263  ALA263      0.2592
    123  O         -0.2760  -66.2920  -67.3780 O.2   263  ALA263     -0.2718
    124  CB        -2.7130  -68.0870  -68.4200 C.3   263  ALA263      0.0304
    125  N         -2.1000  -65.0510  -67.7720 N.am  264  GLY264     -0.1957
    126  CA        -1.8280  -64.0630  -66.7520 C.3   264  GLY264      0.1869
    127  C         -3.0750  -63.8260  -65.9340 C.2   264  GLY264      0.2309
    128  O         -4.1830  -64.0700  -66.3940 O.2   264  GLY264     -0.2863
@<TRIPOS>BOND
     1    84    82    1
     2    82    83    1
     3    82    81    2
     4    81    80    1
     5    80    79    1
     6    77    76    2
     7    75    78    1
     8    75    76    1
     9    75    74    1
    10    79    78    1
    11    43    42    2
    12    91    90    1
    13    26    27    1
    14    92    90    1
    15    42    41    1
    16    90    89    1
    17    27    30    1
    18    27    28    1
    19    30    31    1
    20    46    45   ar
    21    25    23    1
    22    45    47   ar
    23    45    44    1
    24    44    41    1
    25    71    73   ar
    26    71    69   ar
    27    41    40    1
    28    21    20    2
    29    23    22    1
    30    23    24    1
    31    28    29    2
    32    89    86    1
    33    73    72   ar
    34    85    86    1
    35    67    66    2
    36    69    68    1
    37    69    70   ar
    38    68    65    1
    39    20    19    1
    40    22    19    1
    41   103   101   ar
    42   103   102   ar
    43    86    87    1
    44   101    99   ar
    45    66    65    1
    46    72    70   ar
    47    19    18    1
    48    39    37    1
    49    65    64    1
    50   102   100   ar
    51    38    37    1
    52    87    88    2
    53    18    12   am
    54    99    98   ar
    55    37    36    1
    56    32    33    1
    57   118   117    1
    58   100    98   ar
    59    33    36    1
    60    33    34    1
    61    98    97    1
    62    12    11    1
    63    12    13    2
    64    62    61   ar
    65     4     3    2
    66    11    14    1
    67    11    10    1
    68   117   119    1
    69   117   114    1
    70    15    14    1
    71    15    16    1
    72   116   115    2
    73    34    35    2
    74    63    61   ar
    75   120   121    1
    76    97    94    1
    77    61    60    1
    78   115   114    1
    79     3    10   am
    80     3     2    1
    81    93    94    1
    82    16    17    1
    83   114   113    1
    84     8     7   ar
    85   121   124    1
    86   121   122    1
    87    94    95    1
    88     9     7   ar
    89     7     6    1
    90    59    58    2
    91   112   110   ar
    92     6     5    1
    93    60    57    1
    94    58    57    1
    95     5     2    1
    96     2     1    1
    97   122   125   am
    98   122   123    2
    99   125   126    1
   100   110   111   ar
   101   110   109    1
   102    95    96    2
   103    57    56    1
   104   109   108    1
   105   126   127    1
   106   128   127    2
   107   108   105    1
   108    55    53   ar
   109   104   105    1
   110    54    53   ar
   111   105   106    1
   112    53    52    1
   113    51    50    2
   114   106   107    2
   115    52    49    1
   116    50    49    1
   117    49    48    1
