@<TRIPOS>MOLECULE
tmp/2x4mD02.pdb
 103 95 0 0 0
SMALL
GASTEIGER

@<TRIPOS>ATOM
      1  N         21.3440  -66.6320  -62.3720 N.3    28  GLU28      -0.1231
      2  CA        21.1940  -66.4630  -63.8040 C.3    28  GLU28       0.1699
      3  C         20.4310  -67.6590  -64.3160 C.2    28  GLU28       0.2592
      4  O         20.9610  -68.7640  -64.3640 O.2    28  GLU28      -0.2718
      5  CB        22.5640  -66.4070  -64.4690 C.3    28  GLU28       0.0402
      6  CG        22.5370  -66.2300  -65.9720 C.3    28  GLU28       0.1161
      7  CD        23.9260  -66.2350  -66.5560 C.2    28  GLU28       0.3649
      8  OE1       24.0630  -65.9920  -67.7770 O.co2  28  GLU28      -0.2457
      9  OE2       24.8910  -66.4710  -65.7860 O.co2  28  GLU28      -0.2457
     10  N         19.1810  -67.4340  -64.6940 N.am   29  MET29      -0.1965
     11  CA        18.2850  -68.5290  -65.0350 C.3    29  MET29       0.1736
     12  C         17.9740  -68.6410  -66.5160 C.2    29  MET29       0.2616
     13  O         17.9070  -67.6480  -67.2480 O.2    29  MET29      -0.2715
     14  CB        16.9870  -68.4170  -64.2480 C.3    29  MET29       0.0427
     15  CG        16.9690  -69.2480  -62.9800 C.3    29  MET29       0.0599
     16  SD        18.1120  -68.6760  -61.7210 S.3    29  MET29      -0.1393
     17  CE        17.1700  -69.0830  -60.2470 C.3    29  MET29       0.0692
     18  N         17.7830  -69.8790  -66.9400 N.am   30  LEU30      -0.1977
     19  CA        17.3460  -70.1820  -68.2910 C.3    30  LEU30       0.1596
     20  C         16.1770  -71.1740  -68.2180 C.2    30  LEU30       0.2287
     21  O         16.2840  -72.2410  -67.6070 O.2    30  LEU30      -0.2864
     22  CB        18.5000  -70.7580  -69.1060 C.3    30  LEU30       0.0297
     23  CG        18.1340  -71.0640  -70.5500 C.3    30  LEU30       0.0022
     24  CD1       17.8540  -69.7640  -71.2880 C.3    30  LEU30       0.0001
     25  CD2       19.2470  -71.8340  -71.2060 C.3    30  LEU30       0.0001
     26  N         18.4910  -74.4110  -66.7350 N.3    40  SER40      -0.1217
     27  CA        19.8050  -73.8870  -66.3740 C.3    40  SER40       0.1889
     28  C         19.6980  -72.9350  -65.1740 C.2    40  SER40       0.2288
     29  O         18.6590  -72.3020  -64.9590 O.2    40  SER40      -0.2866
     30  CB        20.4360  -73.1860  -67.5870 C.3    40  SER40       0.2089
     31  OG        21.6830  -72.5910  -67.2800 O.3    40  SER40      -0.2183
     32  N         22.7900  -70.5020  -62.8550 N.3    42  LEU42      -0.1245
     33  CA        24.1350  -70.1900  -62.3880 C.3    42  LEU42       0.1561
     34  C         24.0410  -69.4340  -61.0730 C.2    42  LEU42       0.2260
     35  O         23.3440  -68.4250  -60.9740 O.2    42  LEU42      -0.2867
     36  CB        24.8710  -69.3320  -63.4180 C.3    42  LEU42       0.0270
     37  CG        25.0690  -69.8300  -64.8650 C.3    42  LEU42       0.0019
     38  CD1       26.3880  -70.5850  -65.0520 C.3    42  LEU42       0.0001
     39  CD2       23.8810  -70.6420  -65.4010 C.3    42  LEU42       0.0001
     40  N         26.2850  -62.0550  -70.6090 N.3   205  ASP205     -0.1239
     41  CA        26.9590  -63.3230  -70.4100 C.3   205  ASP205      0.1674
     42  C         27.8370  -63.6710  -71.6130 C.2   205  ASP205      0.2266
     43  O         27.3730  -63.7270  -72.7550 O.2   205  ASP205     -0.2867
     44  CB        25.9360  -64.4280  -70.1300 C.3   205  ASP205      0.1410
     45  CG        26.5780  -65.7720  -69.9030 C.2   205  ASP205      0.3668
     46  OD1       27.3670  -66.2010  -70.7720 O.co2 205  ASP205     -0.2456
     47  OD2       26.2900  -66.3910  -68.8560 O.co2 205  ASP205     -0.2456
     48  N         30.0500  -66.6430  -72.8390 N.3   207  HIS207     -0.1241
     49  CA        30.5750  -67.9870  -72.7770 C.3   207  HIS207      0.1621
     50  C         31.7600  -68.0100  -73.7050 C.2   207  HIS207      0.2264
     51  O         31.6430  -68.3670  -74.8800 O.2   207  HIS207     -0.2867
     52  CB        29.5260  -68.9940  -73.2190 C.3   207  HIS207      0.0745
     53  CG        28.6970  -69.5190  -72.0910 C.ar  207  HIS207      0.0817
     54  ND1       28.0070  -68.6950  -71.2370 N.ar  207  HIS207     -0.2268
     55  CD2       28.4630  -70.7820  -71.6670 C.ar  207  HIS207      0.1154
     56  CE1       27.3740  -69.4240  -70.3370 C.ar  207  HIS207      0.1986
     57  NE2       27.6350  -70.6950  -70.5750 N.ar  207  HIS207     -0.2212
     58  N         32.5150  -70.7790  -76.0130 N.3   210  ARG210     -0.1245
     59  CA        31.7210  -71.0500  -77.2030 C.3   210  ARG210      0.1563
     60  C         31.5480  -69.7810  -77.9950 C.2   210  ARG210      0.2260
     61  O         30.7140  -69.7070  -78.8900 O.2   210  ARG210     -0.2867
     62  CB        30.3570  -71.5760  -76.8040 C.3   210  ARG210      0.0307
     63  CG        30.2060  -71.7140  -75.3140 C.3   210  ARG210      0.0489
     64  CD        30.8520  -72.9860  -74.8250 C.3   210  ARG210      0.2205
     65  NE        30.1290  -74.1710  -75.2830 N.pl3 210  ARG210     -0.0865
     66  CZ        29.1030  -74.7160  -74.6350 C.cat 210  ARG210      0.5346
     67  NH1       28.6750  -74.1730  -73.5030 N.pl3 210  ARG210      0.1354
     68  NH2       28.5080  -75.8030  -75.1150 N.pl3 210  ARG210      0.1354
     69  N         29.8330  -67.2400  -77.6670 N.3   212  LEU212     -0.1245
     70  CA        28.5270  -66.6520  -77.8430 C.3   212  LEU212      0.1561
     71  C         28.4810  -65.6690  -76.7230 C.2   212  LEU212      0.2260
     72  O         29.2280  -65.8070  -75.7620 O.2   212  LEU212     -0.2867
     73  CB        27.4130  -67.6650  -77.6190 C.3   212  LEU212      0.0270
     74  CG        27.5530  -69.0510  -78.2270 C.3   212  LEU212      0.0019
     75  CD1       26.3860  -69.8840  -77.7460 C.3   212  LEU212      0.0001
     76  CD2       27.6370  -68.9960  -79.7600 C.3   212  LEU212      0.0001
     77  N         25.2860  -63.2000  -74.5140 N.3   214  PHE214     -0.1241
     78  CA        23.8330  -63.1360  -74.2700 C.3   214  PHE214      0.1605
     79  C         23.3610  -61.8650  -73.5740 C.2   214  PHE214      0.2264
     80  O         24.0510  -61.3410  -72.7120 O.2   214  PHE214     -0.2867
     81  CB        23.4100  -64.3020  -73.3870 C.3   214  PHE214      0.0534
     82  CG        24.0500  -65.5850  -73.7610 C.ar  214  PHE214     -0.0203
     83  CD1       23.4600  -66.4150  -74.6890 C.ar  214  PHE214     -0.0042
     84  CD2       25.2510  -65.9520  -73.2050 C.ar  214  PHE214     -0.0042
     85  CE1       24.0550  -67.5980  -75.0420 C.ar  214  PHE214     -0.0003
     86  CE2       25.8470  -67.1300  -73.5550 C.ar  214  PHE214     -0.0003
     87  CZ        25.2520  -67.9570  -74.4740 C.ar  214  PHE214     -0.0000
     88  N         19.9270  -59.8330  -71.5430 N.3   216  GLU216     -0.1245
     89  CA        18.6940  -60.0130  -70.7820 C.3   216  GLU216      0.1567
     90  C         18.1930  -58.6850  -70.2080 C.2   216  GLU216      0.2260
     91  O         18.9860  -57.8630  -69.7520 O.2   216  GLU216     -0.2867
     92  CB        18.9250  -60.9920  -69.6260 C.3   216  GLU216      0.0388
     93  CG        18.7100  -62.4540  -69.9560 C.3   216  GLU216      0.1160
     94  CD        19.8480  -63.0980  -70.7050 C.2   216  GLU216      0.3649
     95  OE1       21.0110  -63.0550  -70.2270 O.co2 216  GLU216     -0.2457
     96  OE2       19.5690  -63.6870  -71.7690 O.co2 216  GLU216     -0.2457
     97  N         15.7740  -63.7400  -74.0220 N.3   256  THR256     -0.1218
     98  CA        17.2240  -63.8130  -74.1000 C.3   256  THR256      0.1862
     99  C         17.6810  -63.5170  -75.5120 C.2   256  THR256      0.2287
    100  O         17.1120  -64.0190  -76.4790 O.2   256  THR256     -0.2866
    101  CB        17.7490  -65.2140  -73.7330 C.3   256  THR256      0.1770
    102  OG1       17.3380  -66.1530  -74.7360 O.3   256  THR256     -0.2211
    103  CG2       17.2140  -65.6630  -72.3780 C.3   256  THR256      0.0375
@<TRIPOS>BOND
     1    76    74    1
     2    61    60    2
     3    74    75    1
     4    74    73    1
     5    60    59    1
     6    70    69    1
     7    70    73    1
     8    70    71    1
     9    59    62    1
    10    59    58    1
    11    62    63    1
    12    71    72    2
    13   100    99    2
    14    99    98    1
    15    63    64    1
    16    65    64    1
    17    65    66    2
    18    68    66    1
    19    85    83   ar
    20    85    87   ar
    21    51    50    2
    22   102   101    1
    23    83    82   ar
    24    66    67    1
    25    77    78    1
    26    87    86   ar
    27    78    79    1
    28    78    81    1
    29    98    97    1
    30    98   101    1
    31    82    81    1
    32    82    84   ar
    33   101   103    1
    34    50    49    1
    35    79    80    2
    36    86    84   ar
    37    52    49    1
    38    52    53    1
    39    48    49    1
    40    43    42    2
    41    53    55   ar
    42    53    54   ar
    43    96    94   ar
    44    55    57   ar
    45    42    41    1
    46    88    89    1
    47    24    23    1
    48    54    56   ar
    49    25    23    1
    50    89    90    1
    51    89    92    1
    52    46    45   ar
    53    94    95   ar
    54    94    93    1
    55    40    41    1
    56    57    56   ar
    57    23    22    1
    58    41    44    1
    59    90    91    2
    60    44    45    1
    61    93    92    1
    62    45    47   ar
    63    22    19    1
    64    19    20    1
    65    19    18    1
    66    20    21    2
    67     8     7   ar
    68    30    31    1
    69    30    27    1
    70    13    12    2
    71    18    12   am
    72    26    27    1
    73     7     6    1
    74     7     9   ar
    75    12    11    1
    76    27    28    1
    77     6     5    1
    78    39    37    1
    79    28    29    2
    80    38    37    1
    81    11    10    1
    82    11    14    1
    83    37    36    1
    84    10     3   am
    85     5     2    1
    86     4     3    2
    87     3     2    1
    88    14    15    1
    89     2     1    1
    90    36    33    1
    91    15    16    1
    92    32    33    1
    93    33    34    1
    94    16    17    1
    95    34    35    2
