@<TRIPOS>MOLECULE
tmp/2x4mC02.pdb
 97 96 0 0 0
SMALL
GASTEIGER

@<TRIPOS>ATOM
      1  N         21.0220  -28.7340    7.4950 N.3    51  LEU51      -0.1231
      2  CA        21.0950  -28.7320    8.9420 C.3    51  LEU51       0.1693
      3  C         19.7640  -28.3090    9.5330 C.2    51  LEU51       0.2592
      4  O         19.3860  -27.1370    9.4600 O.2    51  LEU51      -0.2718
      5  CB        22.1770  -27.7670    9.4030 C.3    51  LEU51       0.0284
      6  CG        22.6580  -28.0420   10.8190 C.3    51  LEU51       0.0019
      7  CD1       23.4000  -29.3790   10.8660 C.3    51  LEU51       0.0001
      8  CD2       23.5470  -26.9010   11.2310 C.3    51  LEU51       0.0001
      9  N         19.0660  -29.2710   10.1260 N.am   52  LYS52      -0.1966
     10  CA        17.7120  -29.0420   10.6190 C.3    52  LYS52       0.1728
     11  C         17.7420  -28.7920   12.1220 C.2    52  LYS52       0.2616
     12  O         18.6010  -29.3430   12.8270 O.2    52  LYS52      -0.2715
     13  CB        16.8330  -30.2480   10.2970 C.3    52  LYS52       0.0311
     14  CG        15.3410  -29.9890   10.3020 C.3    52  LYS52       0.0038
     15  CD        14.5680  -31.2640    9.9510 C.3    52  LYS52       0.0206
     16  CE        13.1350  -30.9760    9.5550 C.3    52  LYS52       0.1093
     17  NZ        12.4500  -30.1510   10.5870 N.3    52  LYS52      -0.1314
     18  N         16.8070  -27.9720   12.6110 N.am   53  GLY53      -0.1955
     19  CA        16.8100  -27.5430   14.0060 C.3    53  GLY53       0.1869
     20  C         15.4380  -27.3080   14.6210 C.2    53  GLY53       0.2309
     21  O         14.5110  -26.9060   13.9220 O.2    53  GLY53      -0.2863
     22  N         11.1950  -24.2870   14.5400 N.3    68  ARG68      -0.1231
     23  CA        11.9580  -25.2360   13.7380 C.3    68  ARG68       0.1694
     24  C         12.3320  -24.6470   12.3770 C.2    68  ARG68       0.2593
     25  O         11.8370  -23.5910   11.9870 O.2    68  ARG68      -0.2718
     26  CB        11.1540  -26.5250   13.5780 C.3    68  ARG68       0.0321
     27  CG         9.8790  -26.5330   14.4100 C.3    68  ARG68       0.0489
     28  CD         9.3970  -27.9310   14.7220 C.3    68  ARG68       0.2205
     29  NE         8.7850  -28.5600   13.5650 N.pl3  68  ARG68      -0.0865
     30  CZ         9.4350  -29.3410   12.7170 C.cat  68  ARG68       0.5346
     31  NH1       10.7210  -29.5920   12.9030 N.pl3  68  ARG68       0.1354
     32  NH2        8.8010  -29.8770   11.6880 N.pl3  68  ARG68       0.1354
     33  N         13.2100  -25.3370   11.6560 N.am   69  GLY69      -0.1942
     34  CA        13.7560  -24.8250   10.4070 C.3    69  GLY69       0.2014
     35  C         15.0120  -25.5720    9.9880 C.2    69  GLY69       0.2639
     36  O         15.6330  -26.2740   10.7900 O.2    69  GLY69      -0.2714
     37  N         15.3830  -25.4490    8.7210 N.am   70  TRP70      -0.1959
     38  CA        16.6000  -26.0760    8.2380 C.3    70  TRP70       0.1771
     39  C         17.2350  -25.1980    7.1910 C.2    70  TRP70       0.2620
     40  O         16.6110  -24.2670    6.6680 O.2    70  TRP70      -0.2715
     41  CB        16.3430  -27.4810    7.6800 C.3    70  TRP70       0.0590
     42  CG        15.2320  -27.5590    6.6870 C.ar   70  TRP70       0.0006
     43  CD1       13.9610  -28.0220    6.9100 C.ar   70  TRP70       0.0946
     44  CD2       15.2770  -27.1650    5.3090 C.ar   70  TRP70       0.0152
     45  NE1       13.2160  -27.9380    5.7600 N.ar   70  TRP70      -0.2442
     46  CE2       13.9980  -27.4170    4.7610 C.ar   70  TRP70       0.0810
     47  CE3       16.2690  -26.6250    4.4840 C.ar   70  TRP70       0.0012
     48  CZ2       13.6910  -27.1470    3.4270 C.ar   70  TRP70       0.0191
     49  CZ3       15.9620  -26.3600    3.1620 C.ar   70  TRP70       0.0001
     50  CH2       14.6830  -26.6200    2.6460 C.ar   70  TRP70       0.0015
     51  N         18.4930  -25.4950    6.8950 N.am   71  THR71      -0.1951
     52  CA        19.2030  -24.7140    5.9090 C.3    71  THR71       0.1897
     53  C         20.1700  -25.5480    5.0800 C.2    71  THR71       0.2313
     54  O         20.7100  -26.5550    5.5450 O.2    71  THR71      -0.2863
     55  CB        19.9260  -23.5250    6.5590 C.3    71  THR71       0.1794
     56  OG1       20.5870  -22.7670    5.5400 O.3    71  THR71      -0.2208
     57  CG2       20.9390  -24.0150    7.5800 C.3    71  THR71       0.0378
     58  N         16.3220  -23.0760    2.4050 N.3   108  ASN108     -0.1225
     59  CA        16.0400  -22.9640    3.8250 C.3   108  ASN108      0.1785
     60  C         14.5410  -22.8660    4.1160 C.2   108  ASN108      0.2597
     61  O         13.7240  -22.4890    3.2600 O.2   108  ASN108     -0.2718
     62  CB        16.7770  -21.7670    4.4300 C.3   108  ASN108      0.1169
     63  CG        16.3050  -20.4500    3.8520 C.2   108  ASN108      0.2627
     64  OD1       17.0360  -19.7830    3.1320 O.2   108  ASN108     -0.2716
     65  ND2       15.0670  -20.0800    4.1480 N.am  108  ASN108     -0.0877
     66  N         14.1880  -23.2130    5.3430 N.am  109  GLU109     -0.1965
     67  CA        12.8270  -23.0970    5.7810 C.3   109  GLU109      0.1733
     68  C         12.8390  -22.7630    7.2570 C.2   109  GLU109      0.2616
     69  O         13.7810  -23.0760    7.9720 O.2   109  GLU109     -0.2715
     70  CB        12.0990  -24.4150    5.5390 C.3   109  GLU109      0.0429
     71  CG        10.7160  -24.4570    6.1310 C.3   109  GLU109      0.1163
     72  CD        10.5060  -25.6860    6.9570 C.2   109  GLU109      0.3649
     73  OE1       10.0890  -26.6980    6.3690 O.co2 109  GLU109     -0.2457
     74  OE2       10.7810  -25.6570    8.1770 O.co2 109  GLU109     -0.2457
     75  N         11.7990  -22.0950    7.7100 N.am  110  TYR110     -0.1974
     76  CA        11.5210  -22.0470    9.1280 C.3   110  TYR110      0.1639
     77  C         10.0340  -22.3090    9.3290 C.2   110  TYR110      0.2290
     78  O          9.2210  -22.1070    8.4200 O.2   110  TYR110     -0.2864
     79  CB        11.9330  -20.7110    9.7320 C.3   110  TYR110      0.0560
     80  CG        11.1330  -19.5280    9.2420 C.ar  110  TYR110     -0.0198
     81  CD1       11.5920  -18.7510    8.1800 C.ar  110  TYR110     -0.0009
     82  CD2        9.9260  -19.1760    9.8510 C.ar  110  TYR110     -0.0009
     83  CE1       10.8770  -17.6600    7.7360 C.ar  110  TYR110      0.0417
     84  CE2        9.1990  -18.0830    9.4100 C.ar  110  TYR110      0.0417
     85  CZ         9.6780  -17.3290    8.3520 C.ar  110  TYR110      0.1957
     86  OH         8.9590  -16.2430    7.9010 O.3   110  TYR110     -0.2866
     87  N         12.3940  -21.2480    1.0170 N.3   136  ARG136     -0.1245
     88  CA        13.0910  -20.5760   -0.0750 C.3   136  ARG136      0.1563
     89  C         14.0370  -21.5110   -0.8210 C.2   136  ARG136      0.2260
     90  O         14.6970  -22.3500   -0.2070 O.2   136  ARG136     -0.2867
     91  CB        13.8810  -19.3880    0.4540 C.3   136  ARG136      0.0307
     92  CG        13.0600  -18.3490    1.1620 C.3   136  ARG136      0.0489
     93  CD        13.9700  -17.2910    1.7630 C.3   136  ARG136      0.2205
     94  NE        13.3360  -15.9740    1.8460 N.pl3 136  ARG136     -0.0865
     95  CZ        12.6890  -15.5180    2.9160 C.cat 136  ARG136      0.5346
     96  NH1       12.5760  -16.2770    4.0030 N.pl3 136  ARG136      0.1354
     97  NH2       12.1540  -14.3000    2.8990 N.pl3 136  ARG136      0.1354
@<TRIPOS>BOND
     1    89    90    2
     2    89    88    1
     3    88    91    1
     4    88    87    1
     5    91    92    1
     6    92    93    1
     7    93    94    1
     8    94    95    2
     9    58    59    1
    10    50    49   ar
    11    50    48   ar
    12    97    95    1
    13    95    96    1
    14    64    63    2
    15    49    47   ar
    16    61    60    2
    17    48    46   ar
    18    59    60    1
    19    59    62    1
    20    63    65   am
    21    63    62    1
    22    60    66   am
    23    47    44   ar
    24    46    44   ar
    25    46    45   ar
    26    53    54    2
    27    53    52    1
    28    44    42   ar
    29    66    67    1
    30    70    67    1
    31    70    71    1
    32    56    55    1
    33    45    43   ar
    34    67    68    1
    35    52    55    1
    36    52    51    1
    37    71    72    1
    38    73    72   ar
    39    55    57    1
    40    40    39    2
    41    42    43   ar
    42    42    41    1
    43    51    39   am
    44    72    74   ar
    45    39    38    1
    46    68    75   am
    47    68    69    2
    48     1     2    1
    49    41    38    1
    50    75    76    1
    51    83    81   ar
    52    83    85   ar
    53    86    85    1
    54    81    80   ar
    55    38    37    1
    56    85    84   ar
    57    78    77    2
    58    37    35   am
    59     2     5    1
    60     2     3    1
    61    76    77    1
    62    76    79    1
    63    80    79    1
    64    80    82   ar
    65     5     6    1
    66    84    82   ar
    67     4     3    2
    68     3     9   am
    69    16    15    1
    70    16    17    1
    71    15    14    1
    72    35    34    1
    73    35    36    2
    74     9    10    1
    75    13    14    1
    76    13    10    1
    77    34    33    1
    78    10    11    1
    79     6     7    1
    80     6     8    1
    81    33    24   am
    82    32    30    1
    83    25    24    2
    84    11    18   am
    85    11    12    2
    86    24    23    1
    87    18    19    1
    88    30    31    1
    89    30    29    2
    90    29    28    1
    91    26    23    1
    92    26    27    1
    93    23    22    1
    94    21    20    2
    95    19    20    1
    96    27    28    1
