@<TRIPOS>MOLECULE
tmp/2x4mB02.pdb
 73 68 0 0 0
SMALL
GASTEIGER

@<TRIPOS>ATOM
      1  N          8.2120  -50.9660  -31.2130 N.3   109  LEU109     -0.1245
      2  CA         8.4250  -49.6910  -30.5750 C.3   109  LEU109      0.1561
      3  C          7.0360  -49.2420  -30.1720 C.2   109  LEU109      0.2260
      4  O          6.0920  -49.3390  -30.9550 O.2   109  LEU109     -0.2867
      5  CB         9.0840  -48.7090  -31.5520 C.3   109  LEU109      0.0270
      6  CG        10.1580  -49.3170  -32.4770 C.3   109  LEU109      0.0019
      7  CD1       10.5360  -48.3780  -33.6250 C.3   109  LEU109      0.0001
      8  CD2       11.4060  -49.7790  -31.7100 C.3   109  LEU109      0.0001
      9  N          4.5470  -48.7640  -33.2780 N.3   116  ALA116     -0.1231
     10  CA         4.9670  -49.2480  -34.5860 C.3   116  ALA116      0.1697
     11  C          5.4220  -50.6920  -34.4810 C.2   116  ALA116      0.2631
     12  O          5.9270  -51.1230  -33.4390 O.2   116  ALA116     -0.2714
     13  CB         6.0860  -48.3690  -35.1470 C.3   116  ALA116      0.0304
     14  N          5.2400  -51.4390  -35.5630 N.am  117  GLY117     -0.1732
     15  CA         5.5190  -52.8550  -35.5320 C.2   117  GLY117      0.1340
     16  C          5.4020  -53.5800  -36.8540 C.2   117  GLY117      0.2521
     17  O          5.2160  -52.9770  -37.9190 O.2   117  GLY117     -0.2816
     18  N          4.5380  -53.7900  -42.4570 N.3   167  LEU167     -0.1231
     19  CA         4.9470  -52.8380  -41.4400 C.3   167  LEU167      0.1693
     20  C          3.7220  -52.0420  -41.0320 C.2   167  LEU167      0.2592
     21  O          2.8280  -51.8180  -41.8350 O.2   167  LEU167     -0.2718
     22  CB         6.0270  -51.8940  -41.9940 C.3   167  LEU167      0.0284
     23  CG         7.4650  -52.4070  -42.1150 C.3   167  LEU167      0.0019
     24  CD1        7.9440  -52.9240  -40.7720 C.3   167  LEU167      0.0001
     25  CD2        7.5700  -53.5010  -43.1450 C.3   167  LEU167      0.0001
     26  N          3.6790  -51.6030  -39.7870 N.am  168  ALA168     -0.1966
     27  CA         2.4760  -50.9640  -39.2870 C.3   168  ALA168      0.1728
     28  C          2.7980  -50.0110  -38.1560 C.2   168  ALA168      0.2616
     29  O          3.6500  -50.2830  -37.3220 O.2   168  ALA168     -0.2715
     30  CB         1.4960  -52.0140  -38.8190 C.3   168  ALA168      0.0334
     31  N          2.1200  -48.8810  -38.1360 N.am  169  GLY169     -0.1955
     32  CA         2.3020  -47.9280  -37.0620 C.3   169  GLY169      0.1869
     33  C          0.9600  -47.3510  -36.6670 C.2   169  GLY169      0.2309
     34  O         -0.0520  -47.6010  -37.3350 O.2   169  GLY169     -0.2863
     35  N         -1.5360  -46.8450  -39.9880 N.3   180  ALA180     -0.1231
     36  CA        -1.3350  -47.2450  -41.3690 C.3   180  ALA180      0.1694
     37  C         -0.5350  -48.5370  -41.4390 C.2   180  ALA180      0.2592
     38  O          0.3940  -48.7540  -40.6540 O.2   180  ALA180     -0.2718
     39  CB        -0.6390  -46.1260  -42.1510 C.3   180  ALA180      0.0304
     40  N         -0.9150  -49.4000  -42.3750 N.am  181  LEU181     -0.1966
     41  CA        -0.2130  -50.6520  -42.6050 C.3   181  LEU181      0.1728
     42  C          0.3520  -50.6570  -43.9960 C.2   181  LEU181      0.2616
     43  O         -0.1550  -49.9830  -44.8900 O.2   181  LEU181     -0.2715
     44  CB        -1.1600  -51.8460  -42.4910 C.3   181  LEU181      0.0311
     45  CG        -0.9190  -52.8750  -41.3910 C.3   181  LEU181      0.0022
     46  CD1       -1.5460  -52.3770  -40.1020 C.3   181  LEU181      0.0001
     47  CD2       -1.5080  -54.2160  -41.7930 C.3   181  LEU181      0.0001
     48  N          1.4060  -51.4320  -44.1770 N.am  182  PHE182     -0.1974
     49  CA         1.8640  -51.7500  -45.5030 C.3   182  PHE182      0.1639
     50  C          2.1260  -53.2470  -45.5440 C.2   182  PHE182      0.2290
     51  O          2.8430  -53.7690  -44.6980 O.2   182  PHE182     -0.2864
     52  CB         3.1160  -50.9560  -45.8470 C.3   182  PHE182      0.0560
     53  CG         3.7210  -51.3520  -47.1530 C.ar  182  PHE182     -0.0200
     54  CD1        3.1800  -50.8920  -48.3520 C.ar  182  PHE182     -0.0042
     55  CD2        4.8120  -52.2170  -47.1940 C.ar  182  PHE182     -0.0042
     56  CE1        3.7300  -51.2730  -49.5710 C.ar  182  PHE182     -0.0003
     57  CE2        5.3740  -52.6030  -48.4090 C.ar  182  PHE182     -0.0003
     58  CZ         4.8300  -52.1350  -49.5970 C.ar  182  PHE182     -0.0000
     59  N         -1.8360  -51.5240  -48.7930 N.3   215  THR215     -0.1218
     60  CA        -1.9110  -50.5480  -47.7180 C.3   215  THR215      0.1862
     61  C         -3.2750  -50.5820  -47.0520 C.2   215  THR215      0.2287
     62  O         -4.2570  -51.0760  -47.6060 O.2   215  THR215     -0.2866
     63  CB        -1.6750  -49.1070  -48.2160 C.3   215  THR215      0.1770
     64  OG1       -0.9680  -48.3650  -47.2110 O.3   215  THR215     -0.2211
     65  CG2       -3.0190  -48.4120  -48.5430 C.3   215  THR215      0.0375
     66  N         -5.1480  -47.5620  -44.5010 N.3   217  ILE217     -0.1245
     67  CA        -5.0090  -46.3040  -43.7810 C.3   217  ILE217      0.1561
     68  C         -6.3750  -45.8720  -43.2910 C.2   217  ILE217      0.2260
     69  O         -7.2940  -45.6770  -44.0960 O.2   217  ILE217     -0.2867
     70  CB        -4.4650  -45.1770  -44.6850 C.3   217  ILE217      0.0252
     71  CG1       -3.1200  -45.5670  -45.3160 C.3   217  ILE217      0.0019
     72  CG2       -4.3630  -43.8610  -43.9020 C.3   217  ILE217      0.0019
     73  CD1       -2.7270  -44.6980  -46.5240 C.3   217  ILE217      0.0001
@<TRIPOS>BOND
     1    58    56   ar
     2    58    57   ar
     3    56    54   ar
     4    59    60    1
     5    65    63    1
     6    57    55   ar
     7    54    53   ar
     8    63    60    1
     9    63    64    1
    10    60    61    1
    11    62    61    2
    12    55    53   ar
    13    53    52    1
    14    73    71    1
    15    52    49    1
    16    50    49    1
    17    50    51    2
    18    49    48    1
    19    71    70    1
    20    43    42    2
    21    70    72    1
    22    70    67    1
    23    66    67    1
    24    48    42   am
    25    69    68    2
    26    42    41    1
    27    67    68    1
    28    25    23    1
    29    41    44    1
    30    41    40    1
    31    44    45    1
    32    18    19    1
    33    40    37   am
    34    39    36    1
    35    23    22    1
    36    23    24    1
    37    22    19    1
    38    21    20    2
    39    47    45    1
    40    19    20    1
    41    37    36    1
    42    37    38    2
    43    45    46    1
    44    36    35    1
    45    20    26   am
    46    26    27    1
    47    27    30    1
    48    27    28    1
    49    28    31   am
    50    28    29    2
    51    31    32    1
    52    17    16    2
    53    34    33    2
    54    32    33    1
    55    16    15    1
    56    14    15    2
    57    14    11    1
    58    13    10    1
    59    10    11    1
    60    10     9    1
    61    11    12    2
    62     7     6    1
    63     6     8    1
    64     6     5    1
    65     5     2    1
    66     1     2    1
    67     4     3    2
    68     2     3    1
