@<TRIPOS>MOLECULE
tmp/2x4nD00.pdb
 180 174 0 0 0
SMALL
GASTEIGER

@<TRIPOS>ATOM
      1  N         49.4950   11.9790   19.4800 N.3     5  MET5       -0.1245
      2  CA        49.8820   10.7310   18.8440 C.3     5  MET5        0.1570
      3  C         50.8080   10.0380   19.8210 C.2     5  MET5        0.2261
      4  O         51.6730   10.6800   20.4220 O.2     5  MET5       -0.2867
      5  CB        50.5860   10.9590   17.4980 C.3     5  MET5        0.0387
      6  CG        50.7960    9.6660   16.6910 C.3     5  MET5        0.0595
      7  SD        51.3500    9.8950   14.9810 S.3     5  MET5       -0.1393
      8  CE        52.8670   10.8150   15.2280 C.3     5  MET5        0.0692
      9  N         52.7590    5.9630   20.5320 N.3     7  TYR7       -0.1241
     10  CA        53.0190    4.5790   20.1370 C.3     7  TYR7        0.1605
     11  C         53.3540    3.7390   21.3540 C.2     7  TYR7        0.2264
     12  O         54.0540    4.1890   22.2620 O.2     7  TYR7       -0.2867
     13  CB        54.1700    4.4880   19.1290 C.3     7  TYR7        0.0534
     14  CG        53.8010    4.9220   17.7330 C.ar    7  TYR7       -0.0201
     15  CD1       53.1950    4.0410   16.8530 C.ar    7  TYR7       -0.0009
     16  CD2       54.0570    6.2160   17.2980 C.ar    7  TYR7       -0.0009
     17  CE1       52.8450    4.4320   15.5700 C.ar    7  TYR7        0.0417
     18  CE2       53.7110    6.6220   16.0190 C.ar    7  TYR7        0.0417
     19  CZ        53.1070    5.7230   15.1580 C.ar    7  TYR7        0.1957
     20  OH        52.7610    6.1110   13.8850 O.3     7  TYR7       -0.2866
     21  N         54.8010   -0.0530   22.7180 N.3     9  PHE9       -0.1241
     22  CA        55.6440   -1.1660   22.3220 C.3     9  PHE9        0.1605
     23  C         55.7870   -2.1420   23.4870 C.2     9  PHE9        0.2264
     24  O         56.0580   -1.7290   24.6120 O.2     9  PHE9       -0.2867
     25  CB        57.0190   -0.6520   21.8840 C.3     9  PHE9        0.0534
     26  CG        56.9800    0.2110   20.6510 C.ar    9  PHE9       -0.0203
     27  CD1       56.8960   -0.3640   19.3900 C.ar    9  PHE9       -0.0042
     28  CD2       57.0180    1.5930   20.7510 C.ar    9  PHE9       -0.0042
     29  CE1       56.8500    0.4270   18.2510 C.ar    9  PHE9       -0.0003
     30  CE2       56.9730    2.3920   19.6160 C.ar    9  PHE9       -0.0003
     31  CZ        56.8870    1.8100   18.3640 C.ar    9  PHE9       -0.0000
     32  N         53.6170   -3.6630    9.3510 N.3    45  MET45      -0.1245
     33  CA        52.6830   -2.7220    9.9550 C.3    45  MET45       0.1570
     34  C         51.3490   -2.8420    9.2130 C.2    45  MET45       0.2261
     35  O         51.3150   -2.8670    7.9850 O.2    45  MET45      -0.2867
     36  CB        53.2110   -1.2890    9.8630 C.3    45  MET45       0.0387
     37  CG        52.4870   -0.3160   10.7720 C.3    45  MET45       0.0595
     38  SD        52.9300   -0.4670   12.5300 S.3    45  MET45      -0.1393
     39  CE        54.2810    0.7020   12.6960 C.3    45  MET45       0.0692
     40  N         54.8610    3.2190   -0.2040 N.3    58  GLU58      -0.1231
     41  CA        55.9120    4.0540    0.3610 C.3    58  GLU58       0.1699
     42  C         55.7050    4.2290    1.8600 C.2    58  GLU58       0.2592
     43  O         56.6630    4.2320    2.6340 O.2    58  GLU58      -0.2718
     44  CB        55.9430    5.4190   -0.3300 C.3    58  GLU58       0.0402
     45  CG        57.0600    6.3320    0.1500 C.3    58  GLU58       0.1161
     46  CD        56.7280    7.0200    1.4590 C.2    58  GLU58       0.3649
     47  OE1       55.5260    7.1850    1.7580 O.co2  58  GLU58      -0.2457
     48  OE2       57.6680    7.3960    2.1900 O.co2  58  GLU58      -0.2457
     49  N         54.4470    4.3720    2.2630 N.am   59  TYR59      -0.1976
     50  CA        54.1030    4.5210    3.6760 C.3    59  TYR59       0.1639
     51  C         54.1870    3.1920    4.4350 C.2    59  TYR59       0.2290
     52  O         54.9170    3.0820    5.4190 O.2    59  TYR59      -0.2864
     53  CB        52.7150    5.1300    3.8590 C.3    59  TYR59       0.0560
     54  CG        52.3390    5.3010    5.3180 C.ar   59  TYR59      -0.0198
     55  CD1       52.6260    6.4770    5.9990 C.ar   59  TYR59      -0.0009
     56  CD2       51.7080    4.2780    6.0160 C.ar   59  TYR59      -0.0009
     57  CE1       52.2870    6.6260    7.3300 C.ar   59  TYR59       0.0417
     58  CE2       51.3700    4.4190    7.3410 C.ar   59  TYR59       0.0417
     59  CZ        51.6590    5.5920    7.9960 C.ar   59  TYR59       0.1957
     60  OH        51.3120    5.7250    9.3250 O.3    59  TYR59      -0.2866
     61  N         56.8560    2.1240    7.3000 N.3    63  GLU63      -0.1245
     62  CA        56.4620    1.8340    8.6890 C.3    63  GLU63       0.1567
     63  C         56.8800    0.4250    9.1090 C.2    63  GLU63       0.2260
     64  O         57.3060    0.2070   10.2380 O.2    63  GLU63      -0.2867
     65  CB        54.9660    2.0540    8.9200 C.3    63  GLU63       0.0388
     66  CG        54.5410    3.4990    8.7350 C.3    63  GLU63       0.1160
     67  CD        55.2940    4.4610    9.6400 C.2    63  GLU63       0.3649
     68  OE1       55.1910    4.3450   10.8790 O.co2  63  GLU63      -0.2457
     69  OE2       55.9800    5.3500    9.1120 O.co2  63  GLU63      -0.2457
     70  N         60.7920    0.4120    9.7050 N.3    66  LYS66      -0.1231
     71  CA        61.1330    1.0010   10.9940 C.3    66  LYS66       0.1693
     72  C         60.6890    0.1470   12.1850 C.2    66  LYS66       0.2591
     73  O         61.4550   -0.0540   13.1250 O.2    66  LYS66      -0.2718
     74  CB        60.5630    2.4200   11.1040 C.3    66  LYS66       0.0285
     75  CG        61.2840    3.4350   10.2380 C.3    66  LYS66       0.0035
     76  CD        60.5840    4.7810   10.2320 C.3    66  LYS66       0.0206
     77  CE        59.2780    4.7280    9.4590 C.3    66  LYS66       0.1093
     78  NZ        58.5170    6.0090    9.5730 N.3    66  LYS66      -0.1314
     79  N         59.4610   -0.3590   12.1420 N.am   67  VAL67      -0.1980
     80  CA        58.9340   -1.1250   13.2640 C.3    67  VAL67       0.1595
     81  C         59.7060   -2.4250   13.4440 C.2    67  VAL67       0.2287
     82  O         59.8010   -2.9550   14.5490 O.2    67  VAL67      -0.2864
     83  CB        57.4190   -1.3960   13.1380 C.3    67  VAL67       0.0276
     84  CG1       57.1390   -2.4780   12.1070 C.3    67  VAL67       0.0022
     85  CG2       56.8400   -1.7780   14.4910 C.3    67  VAL67       0.0022
     86  N         62.6900   -1.3340   15.4870 N.3    70  HIS70      -0.1241
     87  CA        62.1840   -1.2630   16.8580 C.3    70  HIS70       0.1621
     88  C         62.2170   -2.6370   17.5160 C.2    70  HIS70       0.2264
     89  O         62.5420   -2.7710   18.7000 O.2    70  HIS70      -0.2867
     90  CB        60.7370   -0.7680   16.8660 C.3    70  HIS70       0.0745
     91  CG        60.5930    0.7230   16.8540 C.ar   70  HIS70       0.0817
     92  ND1       60.7410    1.4790   15.7110 N.ar   70  HIS70      -0.2268
     93  CD2       60.2710    1.5930   17.8410 C.ar   70  HIS70       0.1154
     94  CE1       60.5400    2.7520   15.9990 C.ar   70  HIS70       0.1986
     95  NE2       60.2510    2.8480   17.2850 N.ar   70  HIS70      -0.2212
     96  N         57.4830    0.2930   26.1830 N.3    97  ARG97      -0.1245
     97  CA        57.9450    1.5670   25.6550 C.3    97  ARG97       0.1563
     98  C         56.7510    2.3530   25.1500 C.2    97  ARG97       0.2260
     99  O         55.8680    1.7950   24.4980 O.2    97  ARG97      -0.2867
    100  CB        58.9310    1.3260   24.5100 C.3    97  ARG97       0.0307
    101  CG        59.2950    2.5580   23.6840 C.3    97  ARG97       0.0489
    102  CD        60.2770    2.1880   22.5670 C.3    97  ARG97       0.2205
    103  NE        60.9140    3.3600   21.9740 N.pl3  97  ARG97      -0.0865
    104  CZ        61.9350    3.3060   21.1230 C.cat  97  ARG97       0.5346
    105  NH1       62.4360    2.1340   20.7570 N.pl3  97  ARG97       0.1354
    106  NH2       62.4570    4.4250   20.6380 N.pl3  97  ARG97       0.1354
    107  N         55.9570    6.4840   23.4720 N.3    99  TYR99      -0.1241
    108  CA        56.3710    7.8380   23.1940 C.3    99  TYR99       0.1605
    109  C         55.2860    8.4730   22.3530 C.2    99  TYR99       0.2264
    110  O         54.3760    7.7860   21.8800 O.2    99  TYR99      -0.2867
    111  CB        57.7640    7.9000   22.5330 C.3    99  TYR99       0.0534
    112  CG        57.9190    7.1720   21.2140 C.ar   99  TYR99      -0.0201
    113  CD1       57.3940    7.6980   20.0400 C.ar   99  TYR99      -0.0009
    114  CD2       58.6220    5.9750   21.1380 C.ar   99  TYR99      -0.0009
    115  CE1       57.5510    7.0420   18.8290 C.ar   99  TYR99       0.0417
    116  CE2       58.7770    5.3110   19.9340 C.ar   99  TYR99       0.0417
    117  CZ        58.2420    5.8500   18.7840 C.ar   99  TYR99       0.1957
    118  OH        58.3950    5.1890   17.5850 O.3    99  TYR99      -0.2866
    119  N         67.9320   13.4840   19.2910 N.3   155  GLN155     -0.1231
    120  CA        67.2860   12.7010   18.2440 C.3   155  GLN155      0.1698
    121  C         65.7830   12.6110   18.5060 C.2   155  GLN155      0.2592
    122  O         64.9860   13.1280   17.7230 O.2   155  GLN155     -0.2718
    123  CB        67.9050   11.2990   18.1270 C.3   155  GLN155      0.0381
    124  CG        67.3770   10.4670   16.9520 C.3   155  GLN155      0.0905
    125  CD        68.1230    9.1500   16.7540 C.2   155  GLN155      0.2608
    126  OE1       69.1130    8.8730   17.4370 O.2   155  GLN155     -0.2717
    127  NE2       67.6610    8.3430   15.8040 N.am  155  GLN155     -0.0878
    128  N         65.4080   11.9660   19.6120 N.am  156  LEU156     -0.1980
    129  CA        64.0100   11.8590   20.0150 C.3   156  LEU156      0.1596
    130  C         63.3220   13.2150   19.9170 C.2   156  LEU156      0.2287
    131  O         62.2360   13.3260   19.3530 O.2   156  LEU156     -0.2864
    132  CB        63.8960   11.3220   21.4400 C.3   156  LEU156      0.0297
    133  CG        64.4470    9.9200   21.7140 C.3   156  LEU156      0.0022
    134  CD1       64.0080    9.4380   23.0880 C.3   156  LEU156      0.0001
    135  CD2       64.0120    8.9340   20.6350 C.3   156  LEU156      0.0001
    136  N         62.4270   14.2750   16.4390 N.3   159  TYR159     -0.1241
    137  CA        61.2590   13.5230   16.0100 C.3   159  TYR159      0.1605
    138  C         59.9930   14.1200   16.6190 C.2   159  TYR159      0.2264
    139  O         59.0230   14.4050   15.9160 O.2   159  TYR159     -0.2867
    140  CB        61.3910   12.0510   16.4000 C.3   159  TYR159      0.0534
    141  CG        60.1040   11.2700   16.2760 C.ar  159  TYR159     -0.0201
    142  CD1       59.5610   10.9690   15.0220 C.ar  159  TYR159     -0.0009
    143  CD2       59.4310   10.8210   17.4060 C.ar  159  TYR159     -0.0009
    144  CE1       58.3700   10.2450   14.9020 C.ar  159  TYR159      0.0417
    145  CE2       58.2450   10.0920   17.2970 C.ar  159  TYR159      0.0417
    146  CZ        57.7210    9.8120   16.0490 C.ar  159  TYR159      0.1957
    147  OH        56.5470    9.0980   15.9620 O.3   159  TYR159     -0.2866
    148  N         58.7040   15.2440   12.7040 N.3   163  THR163     -0.1218
    149  CA        57.9190   14.1190   12.2070 C.3   163  THR163      0.1862
    150  C         56.6190   13.8760   12.9870 C.2   163  THR163      0.2287
    151  O         55.5530   13.7130   12.3880 O.2   163  THR163     -0.2866
    152  CB        58.7610   12.8250   12.2160 C.3   163  THR163      0.1770
    153  OG1       60.1080   13.1240   11.8210 O.3   163  THR163     -0.2211
    154  CG2       58.1650   11.7780   11.2790 C.3   163  THR163      0.0375
    155  N         53.0000   14.5680   11.3000 N.3   167  TRP167     -0.1241
    156  CA        52.1410   13.4800   10.8300 C.3   167  TRP167      0.1605
    157  C         50.8520   13.3260   11.6300 C.2   167  TRP167      0.2264
    158  O         49.8640   12.7900   11.1270 O.2   167  TRP167     -0.2867
    159  CB        52.9160   12.1670   10.7100 C.3   167  TRP167      0.0550
    160  CG        53.7280   12.1820    9.4670 C.ar  167  TRP167      0.0003
    161  CD1       54.9400   12.7900    9.2870 C.ar  167  TRP167      0.0946
    162  CD2       53.3660   11.6240    8.2000 C.ar  167  TRP167      0.0152
    163  NE1       55.3630   12.6230    7.9930 N.ar  167  TRP167     -0.2442
    164  CE2       54.4150   11.9120    7.3030 C.ar  167  TRP167      0.0810
    165  CE3       52.2620   10.8980    7.7390 C.ar  167  TRP167      0.0012
    166  CZ2       54.3950   11.4960    5.9730 C.ar  167  TRP167      0.0191
    167  CZ3       52.2430   10.4880    6.4200 C.ar  167  TRP167      0.0001
    168  CH2       53.3040   10.7850    5.5520 C.ar  167  TRP167      0.0015
    169  N         47.1340   13.0170    9.7230 N.3   171  TYR171     -0.1241
    170  CA        46.0930   12.0870   10.1610 C.3   171  TYR171      0.1605
    171  C         44.8470   12.8390   10.6250 C.2   171  TYR171      0.2264
    172  O         43.7240   12.4760   10.2680 O.2   171  TYR171     -0.2867
    173  CB        46.5800   11.1650   11.2890 C.3   171  TYR171      0.0534
    174  CG        47.8490   10.4100   10.9840 C.ar  171  TYR171     -0.0201
    175  CD1       48.1430    9.9910    9.6920 C.ar  171  TYR171     -0.0009
    176  CD2       48.7540   10.1070   11.9900 C.ar  171  TYR171     -0.0009
    177  CE1       49.3160    9.3000    9.4100 C.ar  171  TYR171      0.0417
    178  CE2       49.9210    9.4180   11.7200 C.ar  171  TYR171      0.0417
    179  CZ        50.2000    9.0160   10.4300 C.ar  171  TYR171      0.1957
    180  OH        51.3590    8.3260   10.1740 O.3   171  TYR171     -0.2866
@<TRIPOS>BOND
     1    44    45    1
     2    44    41    1
     3    40    41    1
     4    45    46    1
     5    41    42    1
     6    46    47   ar
     7    46    48   ar
     8    42    49   am
     9    42    43    2
    10    49    50    1
    11    50    53    1
    12    50    51    1
    13    53    54    1
    14    51    52    2
    15    54    55   ar
    16    54    56   ar
    17   168   166   ar
    18   168   167   ar
    19   166   164   ar
    20    55    57   ar
    21    56    58   ar
    22   167   165   ar
    23    61    62    1
    24   164   163   ar
    25   164   162   ar
    26    57    59   ar
    27    58    59   ar
    28   165   162   ar
    29    35    34    2
    30   163   161   ar
    31    59    60    1
    32   162   160   ar
    33    62    65    1
    34    62    63    1
    35    66    65    1
    36    66    67    1
    37    63    64    2
    38    69    67   ar
    39    34    33    1
    40   161   160   ar
    41    32    33    1
    42   177   175   ar
    43   177   179   ar
    44    77    78    1
    45    77    76    1
    46   160   159    1
    47    67    68   ar
    48   175   174   ar
    49    70    71    1
    50   169   170    1
    51    36    33    1
    52    36    37    1
    53   170   171    1
    54   170   173    1
    55   180   179    1
    56    76    75    1
    57    75    74    1
    58   172   171    2
    59   179   178   ar
    60   159   156    1
    61    37    38    1
    62   156   155    1
    63   156   157    1
    64   174   173    1
    65   174   176   ar
    66    71    74    1
    67    71    72    1
    68   158   157    2
    69   154   152    1
    70   178   176   ar
    71   153   152    1
    72    84    83    1
    73    79    72   am
    74    79    80    1
    75    72    73    2
    76   149   152    1
    77   149   148    1
    78   149   150    1
    79   151   150    2
    80    38    39    1
    81    83    80    1
    82    83    85    1
    83    80    81    1
    84    81    82    2
    85    20    19    1
    86   144   142   ar
    87   144   146   ar
    88     7     8    1
    89     7     6    1
    90   142   141   ar
    91    19    17   ar
    92    19    18   ar
    93    86    87    1
    94    17    15   ar
    95    92    94   ar
    96    92    91   ar
    97   127   125   am
    98   139   138    2
    99   147   146    1
   100    94    95   ar
   101   137   140    1
   102   137   136    1
   103   137   138    1
   104    18    16   ar
   105   146   145   ar
   106   141   140    1
   107   141   143   ar
   108     6     5    1
   109   125   124    1
   110   125   126    2
   111    15    14   ar
   112    91    90    1
   113    91    93   ar
   114    87    90    1
   115    87    88    1
   116   124   123    1
   117    95    93   ar
   118   145   143   ar
   119    16    14   ar
   120     5     2    1
   121    88    89    2
   122   118   117    1
   123   122   121    2
   124    14    13    1
   125   123   120    1
   126   120   121    1
   127   120   119    1
   128    29    31   ar
   129    29    27   ar
   130    31    30   ar
   131   121   128   am
   132   117   115   ar
   133   117   116   ar
   134   115   113   ar
   135     2     1    1
   136     2     3    1
   137    13    10    1
   138   131   130    2
   139    27    26   ar
   140   128   129    1
   141    30    28   ar
   142     3     4    2
   143   130   129    1
   144   116   114   ar
   145   129   132    1
   146   113   112   ar
   147    10     9    1
   148    10    11    1
   149   135   133    1
   150   106   104    1
   151    26    28   ar
   152    26    25    1
   153   105   104    1
   154   104   103    2
   155   114   112   ar
   156   112   111    1
   157    11    12    2
   158   132   133    1
   159   133   134    1
   160   110   109    2
   161    25    22    1
   162   103   102    1
   163    22    21    1
   164    22    23    1
   165   109   108    1
   166   111   108    1
   167   102   101    1
   168   108   107    1
   169    23    24    2
   170   101   100    1
   171    99    98    2
   172   100    97    1
   173    98    97    1
   174    97    96    1
