@<TRIPOS>MOLECULE
tmp/2x4uA01.pdb
 81 80 0 0 0
SMALL
GASTEIGER

@<TRIPOS>ATOM
      1  N         23.2070    9.4300   11.4900 N.3   212  GLU212     -0.1231
      2  CA        23.2020   10.1900   10.2480 C.3   212  GLU212      0.1699
      3  C         24.6220   10.5830    9.8590 C.2   212  GLU212      0.2592
      4  O         25.3640   11.1520   10.6600 O.2   212  GLU212     -0.2718
      5  CB        22.3070   11.4270   10.3670 C.3   212  GLU212      0.0402
      6  CG        22.4310   12.3900    9.1970 C.3   212  GLU212      0.1161
      7  CD        21.9780   11.7830    7.8840 C.2   212  GLU212      0.3649
      8  OE1       20.8670   11.2150    7.8460 O.co2 212  GLU212     -0.2457
      9  OE2       22.7270   11.8830    6.8860 O.co2 212  GLU212     -0.2457
     10  N         25.0050   10.2510    8.6330 N.am  213  ILE213     -0.1966
     11  CA        26.3330   10.5860    8.1410 C.3   213  ILE213      0.1727
     12  C         26.3580   10.5160    6.6190 C.2   213  ILE213      0.2616
     13  O         25.5810    9.7840    6.0130 O.2   213  ILE213     -0.2715
     14  CB        27.3880    9.6160    8.7060 C.3   213  ILE213      0.0290
     15  CG1       28.7990   10.1460    8.4620 C.3   213  ILE213      0.0022
     16  CG2       27.2220    8.2190    8.0890 C.3   213  ILE213      0.0023
     17  CD1       29.8570    9.3680    9.1970 C.3   213  ILE213      0.0001
     18  N         27.2520   11.2860    6.0080 N.am  214  THR214     -0.1951
     19  CA        27.4620   11.2260    4.5680 C.3   214  THR214      0.1897
     20  C         28.9240   10.9600    4.2710 C.2   214  THR214      0.2313
     21  O         29.8000   11.6960    4.7260 O.2   214  THR214     -0.2863
     22  CB        27.0530   12.5390    3.8670 C.3   214  THR214      0.1794
     23  OG1       25.6830   12.8300    4.1580 O.3   214  THR214     -0.2208
     24  CG2       27.2290   12.4180    2.3550 C.3   214  THR214      0.0378
     25  N         33.7460   13.3530    4.4680 N.3   261  VAL261     -0.1231
     26  CA        32.9270   12.8880    5.5780 C.3   261  VAL261      0.1692
     27  C         32.1690   14.0320    6.2310 C.2   261  VAL261      0.2592
     28  O         32.7720   14.9840    6.7230 O.2   261  VAL261     -0.2718
     29  CB        33.7850   12.1930    6.6580 C.3   261  VAL261      0.0266
     30  CG1       32.8920   11.5030    7.6870 C.3   261  VAL261      0.0020
     31  CG2       34.7440   11.1980    6.0160 C.3   261  VAL261      0.0020
     32  N         30.8450   13.9330    6.2300 N.am  262  GLN262     -0.1966
     33  CA        29.9980   14.9090    6.9060 C.3   262  GLN262      0.1733
     34  C         29.2660   14.2670    8.0790 C.2   262  GLN262      0.2616
     35  O         28.6670   13.1990    7.9390 O.2   262  GLN262     -0.2715
     36  CB        28.9830   15.4950    5.9240 C.3   262  GLN262      0.0408
     37  CG        29.6090   16.3310    4.8280 C.3   262  GLN262      0.0908
     38  CD        28.6690   16.5460    3.6580 C.2   262  GLN262      0.2608
     39  OE1       28.5290   15.6840    2.7890 O.2   262  GLN262     -0.2717
     40  NE2       28.0230   17.7040    3.6270 N.am  262  GLN262     -0.0878
     41  N         29.3160   14.9280    9.2300 N.am  263  HIS263     -0.1959
     42  CA        28.6740   14.4340   10.4360 C.3   263  HIS263      0.1787
     43  C         28.4810   15.5680   11.4360 C.2   263  HIS263      0.2620
     44  O         29.3070   16.4780   11.5280 O.2   263  HIS263     -0.2715
     45  CB        29.4960   13.3130   11.0760 C.3   263  HIS263      0.0785
     46  CG        28.7910   12.6300   12.2070 C.ar  263  HIS263      0.0821
     47  ND1       28.8570   13.0810   13.5060 N.ar  263  HIS263     -0.2267
     48  CD2       27.9850   11.5430   12.2240 C.ar  263  HIS263      0.1154
     49  CE1       28.1280   12.2940   14.2810 C.ar  263  HIS263      0.1986
     50  NE2       27.5810   11.3590   13.5260 N.ar  263  HIS263     -0.2212
     51  N         27.3860   15.4880   12.1840 N.am  264  GLU264     -0.1977
     52  CA        27.0000   16.4930   13.1730 C.3   264  GLU264      0.1602
     53  C         28.1090   16.8050   14.1790 C.2   264  GLU264      0.2287
     54  O         28.2090   17.9240   14.6780 O.2   264  GLU264     -0.2864
     55  CB        25.7450   16.0160   13.9170 C.3   264  GLU264      0.0415
     56  CG        25.0230   17.0820   14.7240 C.3   264  GLU264      0.1163
     57  CD        23.8400   16.5200   15.5010 C.2   264  GLU264      0.3649
     58  OE1       23.3020   15.4660   15.1020 O.co2 264  GLU264     -0.2457
     59  OE2       23.4470   17.1360   16.5130 O.co2 264  GLU264     -0.2457
     60  N         31.3220   16.8510   13.6470 N.3   266  LEU266     -0.1231
     61  CA        32.5080   17.4680   13.0630 C.3   266  LEU266      0.1678
     62  C         32.3370   18.9770   12.9340 C.2   266  LEU266      0.2434
     63  O         31.3390   19.4470   12.3900 O.2   266  LEU266     -0.2733
     64  CB        32.8090   16.8650   11.6910 C.3   266  LEU266      0.0284
     65  CG        33.1520   15.3740   11.6290 C.3   266  LEU266      0.0019
     66  CD1       33.0900   14.8780   10.1810 C.3   266  LEU266      0.0001
     67  CD2       34.5170   15.1170   12.2400 C.3   266  LEU266      0.0001
     68  N         33.3100   19.7430   13.4460 N.am  267  PRO267     -0.2729
     69  CA        33.3250   21.1960   13.2530 C.3   267  PRO267      0.1401
     70  C         33.2490   21.5380   11.7700 C.2   267  PRO267      0.2269
     71  O         32.4910   22.4250   11.3770 O.2   267  PRO267     -0.2865
     72  CB        34.6880   21.6100   13.8350 C.3   267  PRO267      0.0296
     73  CG        35.4680   20.3160   13.9630 C.3   267  PRO267      0.0237
     74  CD        34.4230   19.3100   14.3030 C.3   267  PRO267      0.0939
     75  N         33.3670   19.4820    7.6750 N.3   269  PRO269     -0.2116
     76  CA        33.4620   18.1920    6.9860 C.3   269  PRO269      0.1372
     77  C         34.9290   17.8210    6.8000 C.2   269  PRO269      0.2244
     78  O         35.7610   18.7080    6.6210 O.2   269  PRO269     -0.2868
     79  CB        32.8030   18.4680    5.6330 C.3   269  PRO269      0.0268
     80  CG        31.8950   19.6250    5.8810 C.3   269  PRO269      0.0207
     81  CD        32.5860   20.4700    6.9130 C.3   269  PRO269      0.0892
@<TRIPOS>BOND
     1    24    22    1
     2    39    38    2
     3    40    38   am
     4    38    37    1
     5    22    23    1
     6    22    19    1
     7    20    19    1
     8    20    21    2
     9    25    26    1
    10    19    18    1
    11    37    36    1
    12    26    27    1
    13    26    29    1
    14    79    80    1
    15    79    76    1
    16    80    81    1
    17    36    33    1
    18    18    12   am
    19    13    12    2
    20    31    29    1
    21    32    27   am
    22    32    33    1
    23    27    28    2
    24    12    11    1
    25    78    77    2
    26    29    30    1
    27    77    76    1
    28     9     7   ar
    29    33    34    1
    30    81    75    1
    31    76    75    1
    32     8     7   ar
    33     7     6    1
    34    35    34    2
    35    34    41   am
    36    16    14    1
    37    11    10    1
    38    11    14    1
    39    15    14    1
    40    15    17    1
    41    10     3   am
    42     6     5    1
    43    41    42    1
    44     3     2    1
    45     3     4    2
    46    66    65    1
    47     2     5    1
    48     2     1    1
    49    42    45    1
    50    42    43    1
    51    45    46    1
    52    71    70    2
    53    43    44    2
    54    43    51   am
    55    65    64    1
    56    65    67    1
    57    64    61    1
    58    70    69    1
    59    51    52    1
    60    46    48   ar
    61    46    47   ar
    62    48    50   ar
    63    63    62    2
    64    62    61    1
    65    62    68   am
    66    61    60    1
    67    52    55    1
    68    52    53    1
    69    69    68    1
    70    69    72    1
    71    68    74    1
    72    47    49   ar
    73    50    49   ar
    74    72    73    1
    75    55    56    1
    76    73    74    1
    77    53    54    2
    78    56    57    1
    79    58    57   ar
    80    57    59   ar
