@<TRIPOS>MOLECULE
tmp/2x4zA00.pdb
 172 165 0 0 0
SMALL
GASTEIGER

@<TRIPOS>ATOM
      1  N         27.2150   14.7970   60.3280 N.3    29  ILE29      -0.1231
      2  CA        26.0090   14.0170   60.0980 C.3    29  ILE29       0.1696
      3  C         25.3400   14.3870   58.7830 C.2    29  ILE29       0.2632
      4  O         24.3590   13.7680   58.3820 O.2    29  ILE29      -0.2714
      5  CB        24.9430   14.2220   61.2590 C.3    29  ILE29       0.0266
      6  CG1       24.5660   15.7060   61.4020 C.3    29  ILE29       0.0019
      7  CG2       25.5110   13.6860   62.5730 C.3    29  ILE29       0.0020
      8  CD1       23.3360   15.9310   62.2640 C.3    29  ILE29       0.0001
      9  N         25.8650   15.4050   58.1150 N.am   30  GLY30      -0.1718
     10  CA        25.2670   15.8050   56.8610 C.2    30  GLY30       0.1480
     11  C         25.8670   17.0250   56.2040 C.2    30  GLY30       0.2820
     12  O         26.9370   17.5050   56.5810 O.2    30  GLY30      -0.2669
     13  N         25.1520   17.5260   55.2040 N.am   31  GLU31      -0.1929
     14  CA        25.5890   18.6900   54.4580 C.3    31  GLU31       0.1736
     15  C         24.4080   19.5230   53.9830 C.2    31  GLU31       0.2617
     16  O         23.2480   19.1130   54.0850 O.2    31  GLU31      -0.2715
     17  CB        26.4330   18.2550   53.2240 C.3    31  GLU31       0.0429
     18  CG        27.6060   17.3470   53.5600 C.3    31  GLU31       0.1163
     19  CD        28.5400   17.1320   52.3830 C.2    31  GLU31       0.3649
     20  OE1       29.4910   16.3330   52.5210 O.co2  31  GLU31      -0.2457
     21  OE2       28.3300   17.7650   51.3260 O.co2  31  GLU31      -0.2457
     22  N         24.7330   20.7030   53.4690 N.am   32  GLY32      -0.1940
     23  CA        23.7400   21.6150   52.9420 C.3    32  GLY32       0.2014
     24  C         24.3850   22.2440   51.7280 C.2    32  GLY32       0.2640
     25  O         25.4980   21.8680   51.3690 O.2    32  GLY32      -0.2714
     26  N         23.7130   23.2030   51.1010 N.am   33  SER33      -0.1935
     27  CA        24.2590   23.8420   49.9090 C.3    33  SER33       0.2055
     28  C         25.5250   24.6550   50.1620 C.2    33  SER33       0.2644
     29  O         26.3580   24.7880   49.2690 O.2    33  SER33      -0.2714
     30  CB        23.1780   24.7600   49.2420 C.3    33  SER33       0.2130
     31  OG        22.8020   25.8110   50.1180 O.3    33  SER33      -0.2179
     32  N         25.6740   25.1910   51.3720 N.am   34  THR34      -0.1936
     33  CA        26.8350   26.0180   51.6980 C.3    34  THR34       0.2028
     34  C         27.8830   25.3980   52.6240 C.2    34  THR34       0.2643
     35  O         28.9070   26.0240   52.9120 O.2    34  THR34      -0.2714
     36  CB        26.4100   27.3760   52.3660 C.3    34  THR34       0.1808
     37  OG1       25.6840   27.0980   53.5690 O.3    34  THR34      -0.2208
     38  CG2       25.5500   28.2300   51.4400 C.3    34  THR34       0.0379
     39  N         27.6420   24.1840   53.0980 N.am   35  GLY35      -0.1939
     40  CA        28.6150   23.5730   53.9830 C.3    35  GLY35       0.2014
     41  C         28.1580   22.2710   54.5960 C.2    35  GLY35       0.2639
     42  O         27.2910   21.5930   54.0550 O.2    35  GLY35      -0.2714
     43  N         28.7470   21.9180   55.7340 N.am   36  ILE36      -0.1963
     44  CA        28.3980   20.6780   56.4100 C.3    36  ILE36       0.1727
     45  C         27.8070   20.9230   57.7880 C.2    36  ILE36       0.2616
     46  O         27.8890   22.0270   58.3340 O.2    36  ILE36      -0.2715
     47  CB        29.6550   19.7420   56.5900 C.3    36  ILE36       0.0290
     48  CG1       30.6760   20.3960   57.5350 C.3    36  ILE36       0.0022
     49  CG2       30.3130   19.4810   55.2380 C.3    36  ILE36       0.0023
     50  CD1       31.8430   19.4940   57.8810 C.3    36  ILE36       0.0001
     51  N         27.2190   19.8750   58.3480 N.am   37  VAL37      -0.1977
     52  CA        26.6140   19.9440   59.6670 C.3    37  VAL37       0.1596
     53  C         27.1810   18.8610   60.5660 C.2    37  VAL37       0.2287
     54  O         27.2290   17.6890   60.1970 O.2    37  VAL37      -0.2864
     55  CB        25.0930   19.7380   59.6110 C.3    37  VAL37       0.0276
     56  CG1       24.5380   19.7200   61.0320 C.3    37  VAL37       0.0022
     57  CG2       24.4450   20.8530   58.7910 C.3    37  VAL37       0.0022
     58  N         23.9160   21.5770   66.9760 N.3    50  ALA50      -0.1245
     59  CA        24.3210   21.3350   65.5940 C.3    50  ALA50       0.1562
     60  C         25.2630   22.4590   65.1850 C.2    50  ALA50       0.2260
     61  O         25.0200   23.6210   65.5070 O.2    50  ALA50      -0.2867
     62  CB        23.1070   21.3200   64.6840 C.3    50  ALA50       0.0290
     63  N         26.9960   24.2920   61.9620 N.3    52  LYS52      -0.1245
     64  CA        27.0740   24.4820   60.5250 C.3    52  LYS52       0.1561
     65  C         28.4390   25.1030   60.1980 C.2    52  LYS52       0.2260
     66  O         28.7860   26.1680   60.7090 O.2    52  LYS52      -0.2867
     67  CB        25.8950   25.4070   60.0510 C.3    52  LYS52       0.0271
     68  CG        25.7670   25.5820   58.5530 C.3    52  LYS52       0.0035
     69  CD        24.3930   26.1120   58.1240 C.3    52  LYS52       0.0206
     70  CE        24.0960   27.4980   58.6450 C.3    52  LYS52       0.1093
     71  NZ        22.9660   28.1280   57.8990 N.3    52  LYS52      -0.1314
     72  N         13.9700   28.0060   63.7690 N.3    81  VAL81      -0.1245
     73  CA        15.1740   27.3470   64.2700 C.3    81  VAL81       0.1561
     74  C         16.0530   28.3530   65.0090 C.2    81  VAL81       0.2260
     75  O         16.2070   29.5000   64.5870 O.2    81  VAL81      -0.2867
     76  CB        15.9890   26.6780   63.1160 C.3    81  VAL81       0.0252
     77  CG1       17.2930   26.0510   63.6130 C.3    81  VAL81       0.0019
     78  CG2       15.1000   25.6060   62.5060 C.3    81  VAL81       0.0019
     79  N         24.0660   25.9610   66.3860 N.3    97  MET97      -0.1230
     80  CA        22.6230   26.0710   66.4150 C.3    97  MET97       0.1702
     81  C         21.9270   24.9210   67.1130 C.2    97  MET97       0.2592
     82  O         22.5470   23.9610   67.5600 O.2    97  MET97      -0.2718
     83  CB        22.1000   26.1390   65.0050 C.3    97  MET97       0.0401
     84  CG        22.7080   27.2180   64.1550 C.3    97  MET97       0.0596
     85  SD        22.2460   26.9580   62.4570 S.3    97  MET97      -0.1393
     86  CE        20.5200   27.4290   62.5280 C.3    97  MET97       0.0692
     87  N         20.6100   25.0470   67.1770 N.am   98  GLU98      -0.1966
     88  CA        19.7560   24.0440   67.7700 C.3    98  GLU98       0.1733
     89  C         19.7880   22.7880   66.9050 C.2    98  GLU98       0.2616
     90  O         19.8040   22.8600   65.6720 O.2    98  GLU98      -0.2715
     91  CB        18.3220   24.5870   67.8520 C.3    98  GLU98       0.0429
     92  CG        17.1790   23.6360   68.1010 C.3    98  GLU98       0.1163
     93  CD        15.8360   24.3470   68.1460 C.2    98  GLU98       0.3649
     94  OE1       15.6980   25.4200   67.5170 O.co2  98  GLU98      -0.2457
     95  OE2       14.9140   23.8240   68.7990 O.co2  98  GLU98      -0.2457
     96  N         19.8270   21.6350   67.5570 N.am   99  PHE99      -0.1960
     97  CA        19.8160   20.3770   66.8420 C.3    99  PHE99       0.1771
     98  C         18.3760   19.8490   66.8410 C.2    99  PHE99       0.2619
     99  O         17.7700   19.6770   67.8990 O.2    99  PHE99      -0.2715
    100  CB        20.7550   19.3740   67.5180 C.3    99  PHE99       0.0574
    101  CG        20.6060   17.9780   67.0050 C.ar   99  PHE99      -0.0200
    102  CD1       20.7670   17.7030   65.6530 C.ar   99  PHE99      -0.0042
    103  CD2       20.2690   16.9410   67.8670 C.ar   99  PHE99      -0.0042
    104  CE1       20.5940   16.4200   65.1620 C.ar   99  PHE99      -0.0003
    105  CE2       20.0930   15.6520   67.3870 C.ar   99  PHE99      -0.0003
    106  CZ        20.2550   15.3910   66.0310 C.ar   99  PHE99      -0.0000
    107  N         17.8180   19.6330   65.6550 N.am  100  LEU100     -0.1963
    108  CA        16.4590   19.1050   65.5370 C.3   100  LEU100      0.1728
    109  C         16.5340   17.6750   65.0020 C.2   100  LEU100      0.2616
    110  O         16.9820   17.4470   63.8800 O.2   100  LEU100     -0.2715
    111  CB        15.5880   19.9990   64.5900 C.3   100  LEU100      0.0311
    112  CG        15.2430   21.4480   65.0850 C.3   100  LEU100      0.0022
    113  CD1       16.4180   22.3630   64.8270 C.3   100  LEU100      0.0001
    114  CD2       14.0100   21.9790   64.3540 C.3   100  LEU100      0.0001
    115  N         16.0890   16.7210   65.8150 N.am  101  GLU101     -0.1963
    116  CA        16.1300   15.3010   65.4660 C.3   101  GLU101      0.1733
    117  C         15.1830   14.7900   64.3860 C.2   101  GLU101      0.2617
    118  O         15.4720   13.7820   63.7410 O.2   101  GLU101     -0.2715
    119  CB        15.9080   14.4630   66.7080 C.3   101  GLU101      0.0429
    120  CG        17.0220   14.2470   67.6980 C.3   101  GLU101      0.1163
    121  CD        16.5910   13.3490   68.8370 C.2   101  GLU101      0.3649
    122  OE1       15.8950   13.8420   69.7490 O.co2 101  GLU101     -0.2457
    123  OE2       16.9340   12.1480   68.8110 O.co2 101  GLU101     -0.2457
    124  N         14.0560   15.4680   64.1970 N.am  102  GLY102     -0.1940
    125  CA        13.0800   15.0330   63.2110 C.3   102  GLY102      0.2014
    126  C         13.4350   15.1740   61.7420 C.2   102  GLY102      0.2639
    127  O         12.7050   14.6770   60.8900 O.2   102  GLY102     -0.2714
    128  N         14.5390   15.8450   61.4280 N.am  103  GLY103     -0.1939
    129  CA        14.9080   16.0080   60.0310 C.3   103  GLY103      0.2014
    130  C         14.0490   17.0270   59.3000 C.2   103  GLY103      0.2638
    131  O         13.2320   17.7120   59.9140 O.2   103  GLY103     -0.2714
    132  N         14.2380   17.1290   57.9850 N.am  104  ALA104     -0.1977
    133  CA        13.4890   18.0690   57.1550 C.3   104  ALA104      0.1597
    134  C         12.1480   17.4980   56.7170 C.2   104  ALA104      0.2287
    135  O         11.9400   16.2820   56.7350 O.2   104  ALA104     -0.2864
    136  CB        14.3080   18.4500   55.9280 C.3   104  ALA104      0.0319
    137  N         12.3480   21.5490   52.2170 N.3   146  ASP146     -0.1225
    138  CA        13.7250   21.3830   52.6700 C.3   146  ASP146      0.1805
    139  C         14.0670   22.3730   53.7850 C.2   146  ASP146      0.2598
    140  O         14.9380   22.1070   54.6100 O.2   146  ASP146     -0.2718
    141  CB        14.7090   21.6020   51.5070 C.3   146  ASP146      0.1424
    142  CG        14.3270   20.8630   50.2450 C.2   146  ASP146      0.3668
    143  OD1       13.2190   21.1140   49.7200 O.co2 146  ASP146     -0.2456
    144  OD2       15.1370   20.0380   49.7750 O.co2 146  ASP146     -0.2456
    145  N         13.3790   23.5100   53.7990 N.am  147  SER147     -0.1952
    146  CA        13.6310   24.5510   54.7910 C.3   147  SER147      0.1924
    147  C         12.8510   24.3750   56.0910 C.2   147  SER147      0.2314
    148  O         12.9560   25.2010   57.0010 O.2   147  SER147     -0.2863
    149  CB        13.3120   25.9260   54.1890 C.3   147  SER147      0.2116
    150  OG        14.0190   26.1220   52.9780 O.3   147  SER147     -0.2180
    151  N         12.3190   22.1570   59.4070 N.3   149  LEU149     -0.1245
    152  CA        12.9220   21.1120   60.2300 C.3   149  LEU149      0.1561
    153  C         11.9680   20.7190   61.3520 C.2   149  LEU149      0.2260
    154  O         11.1290   21.5170   61.7810 O.2   149  LEU149     -0.2867
    155  CB        14.2860   21.5770   60.8180 C.3   149  LEU149      0.0270
    156  CG        15.4480   21.7500   59.8140 C.3   149  LEU149      0.0019
    157  CD1       16.6750   22.2610   60.5500 C.3   149  LEU149      0.0001
    158  CD2       15.7580   20.4180   59.1290 C.3   149  LEU149      0.0001
    159  N         13.6690   27.0870   58.9030 N.3   159  SER159     -0.1202
    160  CA        15.1250   27.1770   58.8700 C.3   159  SER159      0.2020
    161  C         15.6220   27.7140   57.5210 C.2   159  SER159      0.2618
    162  O         14.8280   28.1260   56.6740 O.2   159  SER159     -0.2717
    163  CB        15.7210   25.7700   59.1350 C.3   159  SER159      0.2103
    164  OG        17.1300   25.7710   59.0050 O.3   159  SER159     -0.2182
    165  N         16.9420   27.7160   57.3460 N.am  160  ASP160     -0.1973
    166  CA        17.5880   28.1710   56.1150 C.3   160  ASP160      0.1709
    167  C         17.2350   29.5820   55.6620 C.2   160  ASP160      0.2293
    168  O         16.6280   29.7640   54.6120 O.2   160  ASP160     -0.2864
    169  CB        17.2940   27.1680   54.9410 C.3   160  ASP160      0.1436
    170  CG        18.0360   25.8680   55.1770 C.2   160  ASP160      0.3671
    171  OD1       18.9460   25.8560   56.0340 O.co2 160  ASP160     -0.2456
    172  OD2       17.7190   24.8630   54.5030 O.co2 160  ASP160     -0.2456
@<TRIPOS>BOND
     1    30    27    1
     2    30    31    1
     3    29    28    2
     4   143   142   ar
     5   144   142   ar
     6    27    28    1
     7    27    26    1
     8    28    32   am
     9   142   141    1
    10    26    24   am
    11    21    19   ar
    12    25    24    2
    13    32    33    1
    14    38    36    1
    15   141   138    1
    16    33    36    1
    17    33    34    1
    18    24    23    1
    19   137   138    1
    20    36    37    1
    21    19    20   ar
    22    19    18    1
    23    34    35    2
    24    34    39   am
    25   138   139    1
    26    23    22    1
    27   150   149    1
    28    39    40    1
    29    17    18    1
    30    17    14    1
    31    22    15   am
    32   139   145   am
    33   139   140    2
    34   145   146    1
    35    15    16    2
    36    15    14    1
    37    40    41    1
    38    42    41    2
    39   149   146    1
    40    14    13    1
    41   172   170   ar
    42    41    43   am
    43   168   167    2
    44   146   147    1
    45   169   170    1
    46   169   166    1
    47   170   171   ar
    48    13    11   am
    49    49    47    1
    50   167   166    1
    51    43    44    1
    52   136   133    1
    53   147   148    2
    54   166   165    1
    55    11    12    2
    56    11    10    1
    57    44    47    1
    58    44    45    1
    59    47    48    1
    60   162   161    2
    61   134   135    2
    62   134   133    1
    63    10     9    2
    64   133   132    1
    65   165   161   am
    66   161   160    1
    67    48    50    1
    68    45    46    2
    69    45    51   am
    70    71    70    1
    71   132   130   am
    72     9     3    1
    73    69    68    1
    74    69    70    1
    75    51    52    1
    76     4     3    2
    77    68    67    1
    78     3     2    1
    79    57    55    1
    80   160   159    1
    81   160   163    1
    82   164   163    1
    83   158   156    1
    84   130   131    2
    85   130   129    1
    86   151   152    1
    87    55    52    1
    88    55    56    1
    89    52    53    1
    90   156   157    1
    91   156   155    1
    92   129   128    1
    93    67    64    1
    94     2     1    1
    95     2     5    1
    96    54    53    2
    97    65    64    1
    98    65    66    2
    99   152   155    1
   100   152   153    1
   101    64    63    1
   102   127   126    2
   103     5     6    1
   104     5     7    1
   105   153   154    2
   106     6     8    1
   107   128   126   am
   108   126   125    1
   109    85    86    1
   110    85    84    1
   111    78    76    1
   112    76    77    1
   113    76    73    1
   114   125   124    1
   115   118   117    2
   116    72    73    1
   117   110   109    2
   118    84    83    1
   119   124   117   am
   120    73    74    1
   121   114   112    1
   122   117   116    1
   123    75    74    2
   124   111   112    1
   125   111   108    1
   126    62    59    1
   127   113   112    1
   128   109   108    1
   129   109   115   am
   130    83    80    1
   131   104   102   ar
   132   104   106   ar
   133    60    61    2
   134    60    59    1
   135   116   115    1
   136   116   119    1
   137   108   107    1
   138    59    58    1
   139   102   101   ar
   140   107    98   am
   141    90    89    2
   142   106   105   ar
   143    79    80    1
   144    80    81    1
   145   119   120    1
   146    98    97    1
   147    98    99    2
   148    97   100    1
   149    97    96    1
   150    89    96   am
   151    89    88    1
   152   101   100    1
   153   101   103   ar
   154    81    87   am
   155    81    82    2
   156    87    88    1
   157   105   103   ar
   158    94    93   ar
   159   120   121    1
   160    88    91    1
   161    91    92    1
   162    92    93    1
   163    93    95   ar
   164   123   121   ar
   165   121   122   ar
