@<TRIPOS>MOLECULE
tmp/2x50A01.pdb
 179 171 0 0 0
SMALL
GASTEIGER

@<TRIPOS>ATOM
      1  N          8.2300   18.9330    3.8980 N.3    59  LYS59      -0.1245
      2  CA         8.5090   19.2520    2.4980 C.3    59  LYS59       0.1561
      3  C          9.6560   20.2550    2.3850 C.2    59  LYS59       0.2260
      4  O         10.6180   20.0190    1.6520 O.2    59  LYS59      -0.2867
      5  CB         7.2460   19.7860    1.8100 C.3    59  LYS59       0.0271
      6  CG         7.4120   20.2450    0.3570 C.3    59  LYS59       0.0035
      7  CD         8.0050   21.6580    0.2330 C.3    59  LYS59       0.0206
      8  CE         7.1360   22.7370    0.8830 C.3    59  LYS59       0.1093
      9  NZ         5.8680   22.9820    0.1390 N.3    59  LYS59      -0.1314
     10  N         -5.6380    7.7520   -9.5450 N.3   166  LEU166     -0.1245
     11  CA        -6.3190    7.5310  -10.8230 C.3   166  LEU166      0.1561
     12  C         -6.7770    6.0790  -10.9590 C.2   166  LEU166      0.2260
     13  O         -6.0210    5.1500  -10.6660 O.2   166  LEU166     -0.2867
     14  CB        -5.4580    7.9690  -12.0200 C.3   166  LEU166      0.0270
     15  CG        -4.1130    7.3050  -12.3390 C.3   166  LEU166      0.0019
     16  CD1       -3.8220    7.4050  -13.8250 C.3   166  LEU166      0.0001
     17  CD2       -2.9790    7.9170  -11.5340 C.3   166  LEU166      0.0001
     18  N          4.0330   11.4830  -11.4510 N.3   193  VAL193     -0.1231
     19  CA         2.8640   11.6640  -12.3060 C.3   193  VAL193      0.1692
     20  C          2.1170   12.9440  -11.9360 C.2   193  VAL193      0.2593
     21  O          1.7860   13.1680  -10.7720 O.2   193  VAL193     -0.2718
     22  CB         1.9130   10.4460  -12.2470 C.3   193  VAL193      0.0266
     23  CG1        0.7490   10.6190  -13.2160 C.3   193  VAL193      0.0020
     24  CG2        2.6740    9.1680  -12.5650 C.3   193  VAL193      0.0020
     25  N          1.8610   13.7770  -12.9400 N.am  194  GLY194     -0.1942
     26  CA         1.1650   15.0430  -12.7450 C.3   194  GLY194      0.2014
     27  C          2.0740   16.2360  -12.9630 C.2   194  GLY194      0.2639
     28  O          3.3000   16.0930  -13.0210 O.2   194  GLY194     -0.2714
     29  N          1.4700   17.4150  -13.0880 N.am  195  GLY195     -0.1939
     30  CA         2.2180   18.6540  -13.2840 C.3   195  GLY195      0.2014
     31  C          1.8150   19.7560  -12.3240 C.2   195  GLY195      0.2639
     32  O          1.9100   20.9370  -12.6550 O.2   195  GLY195     -0.2714
     33  N          1.3670   19.3650  -11.1320 N.am  196  GLY196     -0.1939
     34  CA         0.9170   20.3170  -10.1210 C.3   196  GLY196      0.2014
     35  C          1.9880   20.6720   -9.1110 C.2   196  GLY196      0.2639
     36  O          3.1570   20.3230   -9.2900 O.2   196  GLY196     -0.2714
     37  N          1.5760   21.3780   -8.0560 N.am  197  TYR197     -0.1959
     38  CA         2.4600   21.7980   -6.9650 C.3   197  TYR197      0.1771
     39  C          3.3720   20.6660   -6.4990 C.2   197  TYR197      0.2619
     40  O          4.5910   20.7490   -6.6400 O.2   197  TYR197     -0.2715
     41  CB         1.6340   22.2700   -5.7700 C.3   197  TYR197      0.0574
     42  CG         1.0540   23.6610   -5.8610 C.ar  197  TYR197     -0.0198
     43  CD1       -0.1750   23.8870   -6.4810 C.ar  197  TYR197     -0.0009
     44  CD2        1.7110   24.7460   -5.2840 C.ar  197  TYR197     -0.0009
     45  CE1       -0.7220   25.1670   -6.5430 C.ar  197  TYR197      0.0417
     46  CE2        1.1730   26.0280   -5.3370 C.ar  197  TYR197      0.0417
     47  CZ        -0.0420   26.2300   -5.9690 C.ar  197  TYR197      0.1957
     48  OH        -0.5740   27.4950   -6.0260 O.3   197  TYR197     -0.2866
     49  N          2.7590   19.6100   -5.9600 N.am  198  ILE198     -0.1977
     50  CA         3.4710   18.4690   -5.3710 C.3   198  ILE198      0.1596
     51  C          4.4470   17.8270   -6.3610 C.2   198  ILE198      0.2287
     52  O          5.5890   17.5190   -6.0040 O.2   198  ILE198     -0.2864
     53  CB         2.4790   17.3990   -4.8110 C.3   198  ILE198      0.0276
     54  CG1        1.5770   18.0070   -3.7290 C.3   198  ILE198      0.0022
     55  CG2        3.2290   16.1810   -4.2620 C.3   198  ILE198      0.0022
     56  CD1        0.5560   17.0460   -3.1450 C.3   198  ILE198      0.0001
     57  N          7.6150   20.0080   -6.9600 N.3   201  GLU201     -0.1245
     58  CA         8.3660   20.1170   -5.7110 C.3   201  GLU201      0.1567
     59  C          9.1180   18.8260   -5.4000 C.2   201  GLU201      0.2260
     60  O         10.3320   18.8500   -5.1760 O.2   201  GLU201     -0.2867
     61  CB         7.4370   20.4930   -4.5390 C.3   201  GLU201      0.0388
     62  CG         6.5720   21.7220   -4.8030 C.3   201  GLU201      0.1160
     63  CD         6.2970   22.4820   -3.4310 C.2   201  GLU201      0.3649
     64  OE1        6.1590   21.8000   -2.3390 O.co2 201  GLU201     -0.2457
     65  OE2        6.2010   23.7660   -3.4530 O.co2 201  GLU201     -0.2457
     66  N          3.2920   14.6330  -17.4790 N.3   220  TYR220     -0.1227
     67  CA         2.0980   15.4510  -17.3200 C.3   220  TYR220      0.1736
     68  C          1.1080   15.2190  -18.4570 C.2   220  TYR220      0.2595
     69  O          1.4970   15.0920  -19.6180 O.2   220  TYR220     -0.2718
     70  CB         2.4800   16.9320  -17.2080 C.3   220  TYR220      0.0548
     71  CG         1.3140   17.8980  -17.2460 C.ar  220  TYR220     -0.0200
     72  CD1        0.2540   17.7870  -16.3460 C.ar  220  TYR220     -0.0009
     73  CD2        1.2810   18.9380  -18.1730 C.ar  220  TYR220     -0.0009
     74  CE1       -0.8160   18.6740  -16.3840 C.ar  220  TYR220      0.0417
     75  CE2        0.2180   19.8330  -18.2140 C.ar  220  TYR220      0.0417
     76  CZ        -0.8270   19.6960  -17.3190 C.ar  220  TYR220      0.1957
     77  OH        -1.8820   20.5790  -17.3550 O.3   220  TYR220     -0.2866
     78  N         -0.1710   15.1670  -18.0970 N.am  221  ARG221     -0.1966
     79  CA        -1.2740   14.9050  -19.0210 C.3   221  ARG221      0.1729
     80  C         -1.3690   15.9090  -20.1830 C.2   221  ARG221      0.2616
     81  O         -1.6720   15.5200  -21.3130 O.2   221  ARG221     -0.2715
     82  CB        -2.5880   14.8590  -18.2280 C.3   221  ARG221      0.0348
     83  CG        -3.8310   14.4410  -19.0120 C.3   221  ARG221      0.0492
     84  CD        -5.0340   14.2600  -18.0830 C.3   221  ARG221      0.2205
     85  NE        -5.2640   15.4250  -17.2230 N.pl3 221  ARG221     -0.0865
     86  CZ        -6.2210   15.5110  -16.3010 C.cat 221  ARG221      0.5346
     87  NH1       -7.0630   14.5010  -16.1010 N.pl3 221  ARG221      0.1354
     88  NH2       -6.3380   16.6140  -15.5740 N.pl3 221  ARG221      0.1354
     89  N         -1.1090   17.1870  -19.9000 N.am  222  GLY222     -0.1955
     90  CA        -1.1760   18.2540  -20.9130 C.3   222  GLY222      0.1869
     91  C          0.1860   18.6380  -21.4680 C.2   222  GLY222      0.2309
     92  O          1.1590   17.9080  -21.2800 O.2   222  GLY222     -0.2863
     93  N          1.9300   22.9830  -14.5590 N.3   226  LEU226     -0.1231
     94  CA         1.4440   24.0440  -13.6710 C.3   226  LEU226      0.1693
     95  C          0.4800   25.0110  -14.3520 C.2   226  LEU226      0.2591
     96  O          0.7860   26.1940  -14.5130 O.2   226  LEU226     -0.2718
     97  CB         2.6100   24.8070  -13.0200 C.3   226  LEU226      0.0284
     98  CG         3.5900   24.0280  -12.1420 C.3   226  LEU226      0.0019
     99  CD1        4.8330   24.8550  -11.8970 C.3   226  LEU226      0.0001
    100  CD2        2.9540   23.6150  -10.8240 C.3   226  LEU226      0.0001
    101  N         -0.6850   24.5030  -14.7430 N.am  227  ARG227     -0.1980
    102  CA        -1.7530   25.3530  -15.2580 C.3   227  ARG227      0.1597
    103  C         -2.1690   26.3800  -14.2140 C.2   227  ARG227      0.2287
    104  O         -2.0590   26.1370  -13.0130 O.2   227  ARG227     -0.2864
    105  CB        -2.9700   24.5220  -15.6390 C.3   227  ARG227      0.0334
    106  CG        -2.9340   23.9140  -17.0260 C.3   227  ARG227      0.0492
    107  CD        -4.3390   23.5140  -17.4640 C.3   227  ARG227      0.2205
    108  NE        -5.2210   23.3080  -16.3130 N.pl3 227  ARG227     -0.0865
    109  CZ        -6.3680   22.6350  -16.3380 C.cat 227  ARG227      0.5346
    110  NH1       -6.7970   22.0700  -17.4610 N.pl3 227  ARG227      0.1354
    111  NH2       -7.0860   22.5190  -15.2270 N.pl3 227  ARG227      0.1354
    112  N          0.4730   10.0790  -20.1300 N.3   253  ASN253     -0.1240
    113  CA        -0.2330    9.5940  -18.9490 C.3   253  ASN253      0.1653
    114  C         -0.1910    8.0680  -18.8360 C.2   253  ASN253      0.2266
    115  O         -0.4980    7.3690  -19.8010 O.2   253  ASN253     -0.2867
    116  CB        -1.6860   10.0830  -18.9610 C.3   253  ASN253      0.1155
    117  CG        -2.3320   10.0290  -17.5900 C.2   253  ASN253      0.2627
    118  OD1       -1.8050   10.5720  -16.6170 O.2   253  ASN253     -0.2716
    119  ND2       -3.4880    9.3800  -17.5100 N.am  253  ASN253     -0.0877
    120  N          0.8020   12.7300   -8.1100 N.3   283  ALA283     -0.1231
    121  CA         0.4440   14.0690   -7.6500 C.3   283  ALA283      0.1694
    122  C         -0.8100   14.5470   -8.3820 C.2   283  ALA283      0.2592
    123  O         -0.8510   15.6510   -8.9260 O.2   283  ALA283     -0.2718
    124  CB         1.6040   15.0310   -7.8620 C.3   283  ALA283      0.0304
    125  N         -1.8340   13.6980   -8.3710 N.am  284  ILE284     -0.1966
    126  CA        -3.0570   13.8930   -9.1510 C.3   284  ILE284      0.1727
    127  C         -3.9300   15.0360   -8.6210 C.2   284  ILE284      0.2617
    128  O         -4.5480   15.7590   -9.4020 O.2   284  ILE284     -0.2715
    129  CB        -3.8790   12.5650   -9.2300 C.3   284  ILE284      0.0290
    130  CG1       -3.0410   11.4280   -9.8420 C.3   284  ILE284      0.0022
    131  CG2       -5.2050   12.7510   -9.9770 C.3   284  ILE284      0.0023
    132  CD1       -2.3070   11.7810  -11.1370 C.3   284  ILE284      0.0001
    133  N         -3.9740   15.1930   -7.3010 N.am  285  GLY285     -0.1940
    134  CA        -4.7910   16.2280   -6.6720 C.3   285  GLY285      0.2014
    135  C         -5.2110   15.8560   -5.2660 C.2   285  GLY285      0.2638
    136  O         -4.8610   14.7860   -4.7680 O.2   285  GLY285     -0.2714
    137  N         -5.9630   16.7440   -4.6220 N.am  286  ARG286     -0.1977
    138  CA        -6.4330   16.5090   -3.2580 C.3   286  ARG286      0.1597
    139  C         -7.9310   16.7820   -3.1000 C.2   286  ARG286      0.2287
    140  O         -8.3940   17.9130   -3.2670 O.2   286  ARG286     -0.2864
    141  CB        -5.6090   17.3200   -2.2510 C.3   286  ARG286      0.0334
    142  CG        -4.1630   16.8490   -2.1120 C.3   286  ARG286      0.0492
    143  CD        -3.3700   17.6740   -1.1010 C.3   286  ARG286      0.2205
    144  NE        -3.7970   17.4440    0.2810 N.pl3 286  ARG286     -0.0865
    145  CZ        -3.4000   16.4250    1.0400 C.cat 286  ARG286      0.5346
    146  NH1       -2.5600   15.5130    0.5650 N.pl3 286  ARG286      0.1354
    147  NH2       -3.8500   16.3150    2.2820 N.pl3 286  ARG286      0.1354
    148  N         -6.6310   25.9740   -1.0250 N.3   332  MET332     -0.1230
    149  CA        -5.9490   24.9640   -0.2110 C.3   332  MET332      0.1702
    150  C         -4.5250   25.3510    0.1950 C.2   332  MET332      0.2592
    151  O         -3.5470   24.8510   -0.3630 O.2   332  MET332     -0.2718
    152  CB        -5.9480   23.6100   -0.9240 C.3   332  MET332      0.0401
    153  CG        -7.3040   22.9450   -1.0060 C.3   332  MET332      0.0596
    154  SD        -7.1740   21.2930   -1.7070 S.3   332  MET332     -0.1393
    155  CE        -8.8610   20.7210   -1.5100 C.3   332  MET332      0.0692
    156  N         -4.4170   26.2430    1.1730 N.am  333  LEU333     -0.1980
    157  CA        -3.1220   26.6360    1.7200 C.3   333  LEU333      0.1596
    158  C         -3.1750   26.6750    3.2450 C.2   333  LEU333      0.2287
    159  O         -4.2550   26.7790    3.8360 O.2   333  LEU333     -0.2864
    160  CB        -2.6780   27.9970    1.1650 C.3   333  LEU333      0.0297
    161  CG        -2.5310   28.2110   -0.3480 C.3   333  LEU333      0.0022
    162  CD1       -2.3800   29.6910   -0.6490 C.3   333  LEU333      0.0001
    163  CD2       -1.3640   27.4220   -0.9370 C.3   333  LEU333      0.0001
    164  N          3.4290   30.4130   -3.0150 N.3   364  ALA364     -0.1245
    165  CA         4.6910   30.0240   -3.6340 C.3   364  ALA364      0.1562
    166  C          4.7150   28.5540   -4.0450 C.2   364  ALA364      0.2260
    167  O          3.8980   27.7570   -3.5800 O.2   364  ALA364     -0.2867
    168  CB         5.8490   30.3340   -2.7000 C.3   364  ALA364      0.0290
    169  N          7.7030   25.6590   -4.1540 N.3   366  PHE366     -0.1241
    170  CA         9.0850   25.3790   -3.7700 C.3   366  PHE366      0.1605
    171  C          9.7520   24.3800   -4.7180 C.2   366  PHE366      0.2264
    172  O         10.1570   23.2810   -4.3240 O.2   366  PHE366     -0.2867
    173  CB         9.1650   24.9480   -2.2990 C.3   366  PHE366      0.0534
    174  CG         8.7430   26.0250   -1.3350 C.ar  366  PHE366     -0.0203
    175  CD1        9.6680   26.9400   -0.8440 C.ar  366  PHE366     -0.0042
    176  CD2        7.4140   26.1360   -0.9340 C.ar  366  PHE366     -0.0042
    177  CE1        9.2780   27.9460    0.0390 C.ar  366  PHE366     -0.0003
    178  CE2        7.0160   27.1390   -0.0540 C.ar  366  PHE366     -0.0003
    179  CZ         7.9510   28.0430    0.4350 C.ar  366  PHE366     -0.0000
@<TRIPOS>BOND
     1    91    92    2
     2    91    90    1
     3    81    80    2
     4    90    89    1
     5    80    89   am
     6    80    79    1
     7   112   113    1
     8   115   114    2
     9    69    68    2
    10    79    82    1
    11    79    78    1
    12    83    82    1
    13    83    84    1
    14   116   113    1
    15   116   117    1
    16   113   114    1
    17    68    78   am
    18    68    67    1
    19    75    73   ar
    20    75    76   ar
    21    73    71   ar
    22    84    85    1
    23   117   119   am
    24   117   118    2
    25    66    67    1
    26   107   106    1
    27   107   108    1
    28   110   109    1
    29    77    76    1
    30    67    70    1
    31    76    74   ar
    32    71    70    1
    33    71    72   ar
    34    85    86    2
    35   106   105    1
    36    74    72   ar
    37   109   108    2
    38   109   111    1
    39    86    87    1
    40    86    88    1
    41   105   102    1
    42   102   101    1
    43   102   103    1
    44   101    95   am
    45    93    94    1
    46    96    95    2
    47    95    94    1
    48   103   104    2
    49    16    15    1
    50    94    97    1
    51    30    29    1
    52    30    31    1
    53    23    22    1
    54    29    27   am
    55    28    27    2
    56    97    98    1
    57    27    26    1
    58    25    26    1
    59    25    20   am
    60    32    31    2
    61    24    22    1
    62    15    14    1
    63    15    17    1
    64    31    33   am
    65    19    22    1
    66    19    20    1
    67    19    18    1
    68    98    99    1
    69    98   100    1
    70    14    11    1
    71    20    21    2
    72   132   130    1
    73    33    34    1
    74    12    11    1
    75    12    13    2
    76    11    10    1
    77    34    35    1
    78   131   129    1
    79   130   129    1
    80   128   127    2
    81    36    35    2
    82   129   126    1
    83   126   127    1
    84   126   125    1
    85    35    37   am
    86   123   122    2
    87   127   133   am
    88   122   125   am
    89   122   121    1
    90   120   121    1
    91    37    38    1
    92   124   121    1
    93   133   134    1
    94    38    39    1
    95    38    41    1
    96    57    58    1
    97   134   135    1
    98    40    39    2
    99    45    43   ar
   100    45    47   ar
   101    39    49   am
   102    43    42   ar
   103    51    52    2
   104    51    50    1
   105    48    47    1
   106    47    46   ar
   107    49    50    1
   108    42    41    1
   109    42    44   ar
   110    58    59    1
   111    58    61    1
   112    59    60    2
   113    50    53    1
   114    46    44   ar
   115   135   136    2
   116   135   137   am
   117    53    55    1
   118    53    54    1
   119    62    61    1
   120    62    63    1
   121   171   172    2
   122   171   170    1
   123   137   138    1
   124   169   170    1
   125   166   165    1
   126   166   167    2
   127   170   173    1
   128    54    56    1
   129   165   164    1
   130   165   168    1
   131    65    63   ar
   132    63    64   ar
   133   140   139    2
   134   138   139    1
   135   138   141    1
   136   173   174    1
   137   141   142    1
   138   142   143    1
   139   154   155    1
   140   154   153    1
   141   174   176   ar
   142   174   175   ar
   143   143   144    1
   144   148   149    1
   145   153   152    1
   146   163   161    1
   147   176   178   ar
   148   152   149    1
   149   175   177   ar
   150   162   161    1
   151   151   150    2
   152   161   160    1
   153   149   150    1
   154   178   179   ar
   155   177   179   ar
   156     9     8    1
   157   150   156   am
   158     7     6    1
   159     7     8    1
   160   144   145    2
   161     6     5    1
   162   146   145    1
   163   145   147    1
   164   160   157    1
   165   156   157    1
   166     4     3    2
   167   157   158    1
   168     5     2    1
   169     3     2    1
   170     2     1    1
   171   158   159    2
