@<TRIPOS>MOLECULE
tmp/2x52A00.pdb
 84 82 0 0 0
SMALL
GASTEIGER

@<TRIPOS>ATOM
      1  N         38.5120   29.4010    8.0480 N.3    42  SER42      -0.1217
      2  CA        37.8220   29.2450    6.7650 C.3    42  SER42       0.1889
      3  C         38.8150   29.1920    5.6110 C.2    42  SER42       0.2288
      4  O         39.8010   29.9320    5.5980 O.2    42  SER42      -0.2866
      5  CB        36.8360   30.4050    6.5450 C.3    42  SER42       0.2089
      6  OG        35.8910   30.4830    7.6070 O.3    42  SER42      -0.2183
      7  N         32.7030   34.5090   -0.1840 N.3    61  SER61      -0.1202
      8  CA        32.3910   35.9080    0.0840 C.3    61  SER61       0.2020
      9  C         33.1650   36.8380   -0.8300 C.2    61  SER61       0.2619
     10  O         34.1250   36.4280   -1.4780 O.2    61  SER61      -0.2717
     11  CB        32.7460   36.2640    1.5210 C.3    61  SER61       0.2103
     12  OG        34.1420   36.5070    1.6480 O.3    61  SER61      -0.2182
     13  N         32.7580   38.1040   -0.8320 N.am   62  GLN62      -0.1965
     14  CA        33.4480   39.1480   -1.5910 C.3    62  GLN62       0.1733
     15  C         34.9190   39.3130   -1.2000 C.2    62  GLN62       0.2616
     16  O         35.7240   39.8210   -1.9870 O.2    62  GLN62      -0.2715
     17  CB        32.7100   40.4820   -1.4440 C.3    62  GLN62       0.0408
     18  CG        32.6470   41.0310   -0.0250 C.3    62  GLN62       0.0908
     19  CD        31.8750   42.3330    0.0570 C.2    62  GLN62       0.2608
     20  OE1       31.9640   43.1840   -0.8330 O.2    62  GLN62      -0.2717
     21  NE2       31.1030   42.4920    1.1260 N.am   62  GLN62      -0.0878
     22  N         35.2560   38.8770    0.0110 N.am   63  TYR63      -0.1974
     23  CA        36.6050   39.0060    0.5420 C.3    63  TYR63       0.1639
     24  C         37.4310   37.7410    0.3380 C.2    63  TYR63       0.2290
     25  O         38.6070   37.6970    0.6980 O.2    63  TYR63      -0.2864
     26  CB        36.5570   39.3680    2.0240 C.3    63  TYR63       0.0560
     27  CG        35.7640   40.6120    2.3450 C.ar   63  TYR63      -0.0198
     28  CD1       35.8520   41.7610    1.5420 C.ar   63  TYR63      -0.0009
     29  CD2       34.9380   40.6480    3.4600 C.ar   63  TYR63      -0.0009
     30  CE1       35.1190   42.9080    1.8540 C.ar   63  TYR63       0.0417
     31  CE2       34.2080   41.7890    3.7810 C.ar   63  TYR63       0.0417
     32  CZ        34.3020   42.9090    2.9730 C.ar   63  TYR63       0.1957
     33  OH        33.5830   44.0320    3.2980 O.3    63  TYR63      -0.2866
     34  N         36.6380   34.4240    1.4490 N.3    65  HIS65      -0.1241
     35  CA        36.6160   33.4350    2.5290 C.3    65  HIS65       0.1621
     36  C         35.3710   32.5630    2.4020 C.2    65  HIS65       0.2264
     37  O         34.3030   33.0570    2.0390 O.2    65  HIS65      -0.2867
     38  CB        36.6180   34.1260    3.9010 C.3    65  HIS65       0.0745
     39  CG        37.8380   34.9520    4.1610 C.ar   65  HIS65       0.0817
     40  ND1       38.8880   34.5040    4.9330 N.ar   65  HIS65      -0.2268
     41  CD2       38.1830   36.1920    3.7380 C.ar   65  HIS65       0.1154
     42  CE1       39.8170   35.4430    4.9930 C.ar   65  HIS65       0.1986
     43  NE2       39.4190   36.4710    4.2660 N.ar   65  HIS65      -0.2212
     44  N         25.6650   32.3000    5.0840 N.3    69  GLY69      -0.1210
     45  CA        25.0050   33.4680    5.6590 C.3    69  GLY69       0.1956
     46  C         25.0810   34.6270    4.6880 C.2    69  GLY69       0.2612
     47  O         25.7960   34.5490    3.6830 O.2    69  GLY69      -0.2717
     48  N         24.3520   35.6980    4.9830 N.am   70  ALA70      -0.1965
     49  CA        24.3220   36.8850    4.1150 C.3    70  ALA70       0.1728
     50  C         25.7080   37.4390    3.7930 C.2    70  ALA70       0.2616
     51  O         25.9580   37.8730    2.6710 O.2    70  ALA70      -0.2715
     52  CB        23.4360   37.9720    4.7170 C.3    70  ALA70       0.0334
     53  N         26.6040   37.4350    4.7820 N.am   71  GLU71      -0.1963
     54  CA        27.9750   37.9320    4.6060 C.3    71  GLU71       0.1733
     55  C         28.7790   37.1770    3.5470 C.2    71  GLU71       0.2616
     56  O         29.7290   37.7280    2.9610 O.2    71  GLU71      -0.2715
     57  CB        28.7310   37.8520    5.9360 C.3    71  GLU71       0.0429
     58  CG        28.3620   38.9390    6.9530 C.3    71  GLU71       0.1163
     59  CD        27.1640   38.5990    7.8270 C.2    71  GLU71       0.3649
     60  OE1       26.3440   37.7130    7.4820 O.co2  71  GLU71      -0.2457
     61  OE2       27.0290   39.2550    8.8750 O.co2  71  GLU71      -0.2457
     62  N         28.4230   35.9120    3.3350 N.am   72  TYR72      -0.1974
     63  CA        29.1520   35.0310    2.4170 C.3    72  TYR72       0.1639
     64  C         28.3990   34.8180    1.1020 C.2    72  TYR72       0.2290
     65  O         28.9960   34.9250    0.0310 O.2    72  TYR72      -0.2864
     66  CB        29.5050   33.7020    3.1070 C.3    72  TYR72       0.0560
     67  CG        30.5120   33.8970    4.2320 C.ar   72  TYR72      -0.0198
     68  CD1       31.8810   33.7640    4.0020 C.ar   72  TYR72      -0.0009
     69  CD2       30.0940   34.2610    5.5110 C.ar   72  TYR72      -0.0009
     70  CE1       32.8100   33.9700    5.0320 C.ar   72  TYR72       0.0417
     71  CE2       31.0040   34.4750    6.5330 C.ar   72  TYR72       0.0417
     72  CZ        32.3510   34.3260    6.2950 C.ar   72  TYR72       0.1957
     73  OH        33.2430   34.5250    7.3220 O.3    72  TYR72      -0.2866
     74  N         23.3710   34.1480   -3.4700 N.3    83  ARG83      -0.1245
     75  CA        21.9610   34.5340   -3.4650 C.3    83  ARG83       0.1563
     76  C         21.5000   35.1050   -4.8120 C.2    83  ARG83       0.2260
     77  O         20.3480   34.9270   -5.2000 O.2    83  ARG83      -0.2867
     78  CB        21.6890   35.5170   -2.3290 C.3    83  ARG83       0.0307
     79  CG        21.8280   34.8970   -0.9360 C.3    83  ARG83       0.0489
     80  CD        21.6260   35.9190    0.1610 C.3    83  ARG83       0.2205
     81  NE        21.6510   35.2850    1.4740 N.pl3  83  ARG83      -0.0865
     82  CZ        21.1980   35.8420    2.5950 C.cat  83  ARG83       0.5346
     83  NH1       20.6610   37.0530    2.5790 N.pl3  83  ARG83       0.1354
     84  NH2       21.2640   35.1680    3.7300 N.pl3  83  ARG83       0.1354
@<TRIPOS>BOND
     1    77    76    2
     2    76    75    1
     3    74    75    1
     4    75    78    1
     5    78    79    1
     6    16    15    2
     7    14    17    1
     8    14    15    1
     9    14    13    1
    10    10     9    2
    11    17    18    1
    12    15    22   am
    13    79    80    1
    14    20    19    2
    15    13     9   am
    16     9     8    1
    17     7     8    1
    18    18    19    1
    19    22    23    1
    20    65    64    2
    21    19    21   am
    22     8    11    1
    23    80    81    1
    24    24    23    1
    25    24    25    2
    26    23    26    1
    27    64    63    1
    28    34    35    1
    29    81    82    2
    30    11    12    1
    31    28    30   ar
    32    28    27   ar
    33    30    32   ar
    34    26    27    1
    35    37    36    2
    36    27    29   ar
    37    36    35    1
    38    63    66    1
    39    63    62    1
    40    35    38    1
    41    83    82    1
    42    82    84    1
    43    51    50    2
    44    56    55    2
    45    32    33    1
    46    32    31   ar
    47    66    67    1
    48    62    55   am
    49    29    31   ar
    50    55    54    1
    51    47    46    2
    52    41    39   ar
    53    41    43   ar
    54    50    49    1
    55    50    53   am
    56    38    39    1
    57    68    67   ar
    58    68    70   ar
    59    49    52    1
    60    49    48    1
    61    39    40   ar
    62    67    69   ar
    63    43    42   ar
    64    54    53    1
    65    54    57    1
    66    46    48   am
    67    46    45    1
    68    40    42   ar
    69    70    72   ar
    70    44    45    1
    71    69    71   ar
    72     4     3    2
    73     3     2    1
    74    57    58    1
    75    72    71   ar
    76    72    73    1
    77     5     2    1
    78     5     6    1
    79     2     1    1
    80    58    59    1
    81    60    59   ar
    82    59    61   ar
