@<TRIPOS>MOLECULE
tmp/2x55A11.pdb
 104 96 0 0 0
SMALL
GASTEIGER

@<TRIPOS>ATOM
      1  N         -0.1190   64.0560    9.3960 N.3    26  GLU26      -0.1231
      2  CA         0.0910   65.4980    9.3520 C.3    26  GLU26       0.1699
      3  C          1.4750   65.6690    8.7460 C.2    26  GLU26       0.2592
      4  O          2.4700   65.2900    9.3680 O.2    26  GLU26      -0.2718
      5  CB         0.0780   66.0280   10.8040 C.3    26  GLU26       0.0402
      6  CG         0.3820   67.5360   10.9050 C.3    26  GLU26       0.1161
      7  CD         0.6210   68.0050   12.3320 C.2    26  GLU26       0.3649
      8  OE1        0.8490   69.2260   12.5250 O.co2  26  GLU26      -0.2457
      9  OE2        0.5790   67.1760   13.2620 O.co2  26  GLU26      -0.2457
     10  N          1.5400   66.2300    7.5420 N.am   27  MET27      -0.1965
     11  CA         2.7570   66.2070    6.7330 C.3    27  MET27       0.1736
     12  C          3.3290   67.5830    6.4300 C.2    27  MET27       0.2616
     13  O          2.5900   68.5300    6.1730 O.2    27  MET27      -0.2715
     14  CB         2.4370   65.5640    5.3840 C.3    27  MET27       0.0427
     15  CG         3.1940   64.3120    5.0920 C.3    27  MET27       0.0599
     16  SD         2.6160   63.0260    6.1770 S.3    27  MET27      -0.1393
     17  CE         2.8920   61.5900    5.1430 C.3    27  MET27       0.0692
     18  N          4.6550   67.6760    6.4080 N.am   28  LEU28      -0.1977
     19  CA         5.3260   68.8640    5.8700 C.3    28  LEU28       0.1596
     20  C          6.2790   68.4190    4.7680 C.2    28  LEU28       0.2287
     21  O          7.1430   67.5560    5.0000 O.2    28  LEU28      -0.2864
     22  CB         6.1190   69.5670    6.9730 C.3    28  LEU28       0.0297
     23  CG         6.9530   70.7640    6.5120 C.3    28  LEU28       0.0022
     24  CD1        6.0430   71.8260    5.9150 C.3    28  LEU28       0.0001
     25  CD2        7.7660   71.3300    7.6810 C.3    28  LEU28       0.0001
     26  N          8.6270   66.4160    7.4410 N.3    38  SER38      -0.1217
     27  CA         8.0530   65.9830    8.7150 C.3    38  SER38       0.1889
     28  C          6.8000   65.1480    8.4750 C.2    38  SER38       0.2288
     29  O          6.0890   65.3510    7.4940 O.2    38  SER38      -0.2866
     30  CB         7.6690   67.1830    9.5940 C.3    38  SER38       0.2089
     31  OG         8.7580   68.0890    9.7570 O.3    38  SER38      -0.2183
     32  N          3.7740   63.5000   11.1890 N.3    40  LEU40      -0.1245
     33  CA         3.2590   63.1060   12.4770 C.3    40  LEU40       0.1561
     34  C          2.1140   62.1310   12.2340 C.2    40  LEU40       0.2260
     35  O          1.1830   62.4300   11.4860 O.2    40  LEU40      -0.2867
     36  CB         2.7180   64.2940   13.2740 C.3    40  LEU40       0.0270
     37  CG         3.3910   65.6630   13.4880 C.3    40  LEU40       0.0019
     38  CD1        3.5560   65.9830   14.9740 C.3    40  LEU40       0.0001
     39  CD2        4.6610   65.9140   12.6850 C.3    40  LEU40       0.0001
     40  N         11.0410   63.3050   11.5980 N.3    83  ASP83      -0.1239
     41  CA        11.5930   64.3370   10.7200 C.3    83  ASP83       0.1674
     42  C         12.7720   63.8100    9.9250 C.2    83  ASP83       0.2266
     43  O         13.5630   63.0000   10.4310 O.2    83  ASP83      -0.2867
     44  CB        12.0710   65.5380   11.5340 C.3    83  ASP83       0.1410
     45  CG        10.9830   66.1190   12.3880 C.2    83  ASP83       0.3668
     46  OD1       10.1270   66.8490   11.8520 O.co2  83  ASP83      -0.2456
     47  OD2       10.9820   65.8390   13.6030 O.co2  83  ASP83      -0.2456
     48  N          2.1530   73.5340   18.8370 N.3   205  HIS205     -0.1241
     49  CA         3.3750   73.0060   19.4270 C.3   205  HIS205      0.1621
     50  C          3.6410   73.7850   20.7140 C.2   205  HIS205      0.2264
     51  O          4.3870   74.7770   20.7170 O.2   205  HIS205     -0.2867
     52  CB         4.5530   73.1410   18.4570 C.3   205  HIS205      0.0745
     53  CG         4.7740   71.9380   17.5870 C.ar  205  HIS205      0.0817
     54  ND1        3.7900   71.4030   16.7750 N.ar  205  HIS205     -0.2268
     55  CD2        5.8720   71.1680   17.4010 C.ar  205  HIS205      0.1154
     56  CE1        4.2760   70.3570   16.1290 C.ar  205  HIS205      0.1986
     57  NE2        5.5400   70.1940   16.4870 N.ar  205  HIS205     -0.2212
     58  N          7.1550   74.7360   21.8700 N.3   208  ARG208     -0.1245
     59  CA         7.8960   75.6030   20.9570 C.3   208  ARG208      0.1563
     60  C          7.2430   76.9740   20.8090 C.2   208  ARG208      0.2260
     61  O          7.7750   77.8250   20.0990 O.2   208  ARG208     -0.2867
     62  CB         8.0020   74.9710   19.5690 C.3   208  ARG208      0.0307
     63  CG         8.4060   73.5160   19.5570 C.3   208  ARG208      0.0489
     64  CD         9.8530   73.3070   19.9450 C.3   208  ARG208      0.2205
     65  NE        10.3090   71.9940   19.4920 N.pl3 208  ARG208     -0.0865
     66  CZ        11.5490   71.5340   19.6280 C.cat 208  ARG208      0.5346
     67  NH1       12.4770   72.2790   20.2110 N.pl3 208  ARG208      0.1354
     68  NH2       11.8590   70.3250   19.1780 N.pl3 208  ARG208      0.1354
     69  N          4.6740   77.6580   19.0780 N.3   210  LEU210     -0.1245
     70  CA         4.3600   77.8050   17.6670 C.3   210  LEU210      0.1561
     71  C          2.9890   77.2030   17.3970 C.2   210  LEU210      0.2260
     72  O          2.6300   76.2120   18.0120 O.2   210  LEU210     -0.2867
     73  CB         5.3870   77.0600   16.8080 C.3   210  LEU210      0.0270
     74  CG         6.8340   77.5480   16.8040 C.3   210  LEU210      0.0019
     75  CD1        7.7030   76.5900   15.9970 C.3   210  LEU210      0.0001
     76  CD2        6.8960   78.9440   16.2350 C.3   210  LEU210      0.0001
     77  N          0.5980   75.9900   13.9400 N.3   212  PHE212     -0.1241
     78  CA         0.5770   75.7900   12.4980 C.3   212  PHE212      0.1605
     79  C         -0.8620   75.6340   12.0290 C.2   212  PHE212      0.2264
     80  O         -1.7140   75.1120   12.7530 O.2   212  PHE212     -0.2867
     81  CB         1.3550   74.5290   12.1130 C.3   212  PHE212      0.0534
     82  CG         2.7630   74.5090   12.6140 C.ar  212  PHE212     -0.0203
     83  CD1        3.8150   74.8290   11.7680 C.ar  212  PHE212     -0.0042
     84  CD2        3.0410   74.1750   13.9310 C.ar  212  PHE212     -0.0042
     85  CE1        5.1210   74.8130   12.2250 C.ar  212  PHE212     -0.0003
     86  CE2        4.3520   74.1590   14.4000 C.ar  212  PHE212     -0.0003
     87  CZ         5.3910   74.4760   13.5430 C.ar  212  PHE212     -0.0000
     88  N         -2.7950   74.3330    8.3710 N.3   214  GLU214     -0.1245
     89  CA        -2.6320   73.8210    7.0100 C.3   214  GLU214      0.1567
     90  C         -3.9920   73.6580    6.3700 C.2   214  GLU214      0.2260
     91  O         -4.9990   73.3970    7.0370 O.2   214  GLU214     -0.2867
     92  CB        -1.9410   72.4510    6.9800 C.3   214  GLU214      0.0388
     93  CG        -0.5520   72.3590    7.5660 C.3   214  GLU214      0.1160
     94  CD         0.0510   70.9720    7.3620 C.2   214  GLU214      0.3649
     95  OE1        0.1870   70.5370    6.2000 O.co2 214  GLU214     -0.2457
     96  OE2        0.3760   70.3070    8.3600 O.co2 214  GLU214     -0.2457
     97  N          0.8650   76.8000    6.5780 N.3   251  ILE251     -0.1245
     98  CA         1.3890   75.8200    5.6100 C.3   251  ILE251      0.1561
     99  C          0.4420   75.5250    4.4430 C.2   251  ILE251      0.2260
    100  O         -0.6380   74.9550    4.6230 O.2   251  ILE251     -0.2867
    101  CB         1.7520   74.4750    6.2840 C.3   251  ILE251      0.0252
    102  CG1        2.7160   74.6950    7.4600 C.3   251  ILE251      0.0019
    103  CG2        2.3310   73.4990    5.2580 C.3   251  ILE251      0.0019
    104  CD1        2.9520   73.4530    8.3090 C.3   251  ILE251      0.0001
@<TRIPOS>BOND
     1    99   100    2
     2    99    98    1
     3    20    21    2
     4    20    19    1
     5    15    14    1
     6    15    16    1
     7    17    16    1
     8   103   101    1
     9    14    11    1
    10    98   101    1
    11    98    97    1
    12    19    18    1
    13    19    22    1
    14    24    23    1
    15    13    12    2
    16    95    94   ar
    17   101   102    1
    18    90    89    1
    19    90    91    2
    20    18    12   am
    21    12    11    1
    22    23    22    1
    23    23    25    1
    24    11    10    1
    25    92    89    1
    26    92    93    1
    27    89    88    1
    28    94    93    1
    29    94    96   ar
    30    26    27    1
    31   102   104    1
    32    29    28    2
    33    10     3   am
    34    28    27    1
    35    27    30    1
    36     3     2    1
    37     3     4    2
    38     2     1    1
    39     2     5    1
    40    30    31    1
    41    42    43    2
    42    42    41    1
    43    41    44    1
    44    41    40    1
    45     5     6    1
    46     6     7    1
    47    32    33    1
    48    35    34    2
    49    44    45    1
    50    83    85   ar
    51    83    82   ar
    52    46    45   ar
    53    79    78    1
    54    79    80    2
    55    81    78    1
    56    81    82    1
    57    85    87   ar
    58    34    33    1
    59     7     8   ar
    60     7     9   ar
    61    45    47   ar
    62    33    36    1
    63    78    77    1
    64    82    84   ar
    65    39    37    1
    66    36    37    1
    67    37    38    1
    68    87    86   ar
    69    84    86   ar
    70    75    74    1
    71    56    57   ar
    72    56    54   ar
    73    76    74    1
    74    57    55   ar
    75    54    53   ar
    76    74    73    1
    77    73    70    1
    78    71    70    1
    79    71    72    2
    80    55    53   ar
    81    53    52    1
    82    70    69    1
    83    52    49    1
    84    48    49    1
    85    68    66    1
    86    49    50    1
    87    65    66    2
    88    65    64    1
    89    63    62    1
    90    63    64    1
    91    62    59    1
    92    66    67    1
    93    61    60    2
    94    50    51    2
    95    60    59    1
    96    59    58    1
