@<TRIPOS>MOLECULE
tmp/2x55A02.pdb
 85 82 0 0 0
SMALL
GASTEIGER

@<TRIPOS>ATOM
      1  N        -28.1290   55.5610   -6.7650 N.3   127  ILE127     -0.1231
      2  CA       -27.0220   56.5010   -6.7090 C.3   127  ILE127      0.1692
      3  C        -27.2630   57.4400   -5.5500 C.2   127  ILE127      0.2593
      4  O        -28.4120   57.6680   -5.1460 O.2   127  ILE127     -0.2718
      5  CB       -26.9410   57.3160   -7.9880 C.3   127  ILE127      0.0266
      6  CG1      -28.2700   58.0360   -8.2270 C.3   127  ILE127      0.0019
      7  CG2      -26.6120   56.4030   -9.1550 C.3   127  ILE127      0.0020
      8  CD1      -28.3100   58.8300   -9.5260 C.3   127  ILE127      0.0001
      9  N        -26.1840   57.9990   -5.0190 N.am  128  THR128     -0.1939
     10  CA       -26.3000   58.8620   -3.8500 C.3   128  THR128      0.2028
     11  C        -25.4110   60.0790   -4.0560 C.2   128  THR128      0.2642
     12  O        -24.4260   60.0210   -4.8030 O.2   128  THR128     -0.2714
     13  CB       -25.9550   58.0970   -2.5390 C.3   128  THR128      0.1808
     14  OG1      -26.2530   58.9160   -1.4010 O.3   128  THR128     -0.2208
     15  CG2      -24.4780   57.6920   -2.5010 C.3   128  THR128      0.0379
     16  N        -25.8010   61.1890   -3.4460 N.am  129  ALA129     -0.1977
     17  CA       -24.9850   62.3970   -3.4270 C.3   129  ALA129      0.1597
     18  C        -25.2260   63.0820   -2.0890 C.2   129  ALA129      0.2287
     19  O        -26.3390   63.0630   -1.5650 O.2   129  ALA129     -0.2864
     20  CB       -25.3570   63.3160   -4.5530 C.3   129  ALA129      0.0319
     21  N        -20.2910   61.6870   -4.1200 N.3   174  ILE174     -0.1231
     22  CA       -21.2650   60.9120   -4.8800 C.3   174  ILE174      0.1696
     23  C        -21.0220   59.4490   -4.5770 C.2   174  ILE174      0.2632
     24  O        -19.9870   59.0870   -4.0110 O.2   174  ILE174     -0.2714
     25  CB       -21.1210   61.1590   -6.4040 C.3   174  ILE174      0.0266
     26  CG1      -19.7090   60.8000   -6.8710 C.3   174  ILE174      0.0019
     27  CG2      -21.4460   62.6100   -6.7390 C.3   174  ILE174      0.0020
     28  CD1      -19.4910   61.0140   -8.3560 C.3   174  ILE174      0.0001
     29  N        -21.9740   58.5920   -4.9270 N.am  175  GLY175     -0.1718
     30  CA       -21.7990   57.1890   -4.6250 C.2   175  GLY175      0.1480
     31  C        -22.8490   56.2600   -5.1860 C.2   175  GLY175      0.2820
     32  O        -23.7420   56.6770   -5.9250 O.2   175  GLY175     -0.2669
     33  N        -22.7100   54.9860   -4.8340 N.am  176  LEU176     -0.1943
     34  CA       -23.6370   53.9460   -5.2650 C.3   176  LEU176      0.1599
     35  C        -24.1870   53.2830   -4.0150 C.2   176  LEU176      0.2287
     36  O        -23.4640   53.1130   -3.0380 O.2   176  LEU176     -0.2864
     37  CB       -22.8960   52.8990   -6.0890 C.3   176  LEU176      0.0297
     38  CG       -22.8320   52.9910   -7.6160 C.3   176  LEU176      0.0022
     39  CD1      -23.3870   54.3000   -8.1710 C.3   176  LEU176      0.0001
     40  CD2      -21.4080   52.7500   -8.0610 C.3   176  LEU176      0.0001
     41  N        -21.0950   52.7430   -1.3630 N.3   191  PHE191     -0.1241
     42  CA       -19.7260   53.1240   -1.7290 C.3   191  PHE191      0.1605
     43  C        -19.7440   54.5970   -2.0780 C.2   191  PHE191      0.2264
     44  O        -20.5440   55.0330   -2.9030 O.2   191  PHE191     -0.2867
     45  CB       -19.2330   52.3180   -2.9260 C.3   191  PHE191      0.0534
     46  CG       -17.9890   52.8890   -3.5640 C.ar  191  PHE191     -0.0203
     47  CD1      -16.7670   52.8330   -2.9050 C.ar  191  PHE191     -0.0042
     48  CD2      -18.0450   53.4930   -4.8140 C.ar  191  PHE191     -0.0042
     49  CE1      -15.6220   53.3600   -3.4850 C.ar  191  PHE191     -0.0003
     50  CE2      -16.9060   54.0240   -5.4000 C.ar  191  PHE191     -0.0003
     51  CZ       -15.6920   53.9560   -4.7350 C.ar  191  PHE191     -0.0000
     52  N        -17.5570   58.3430   -2.9320 N.3   193  PHE193     -0.1241
     53  CA       -16.3530   58.8560   -3.5860 C.3   193  PHE193      0.1605
     54  C        -16.3740   60.3750   -3.6740 C.2   193  PHE193      0.2264
     55  O        -17.4200   60.9770   -3.8940 O.2   193  PHE193     -0.2867
     56  CB       -16.2340   58.2950   -5.0070 C.3   193  PHE193      0.0534
     57  CG       -15.0980   58.9060   -5.7910 C.ar  193  PHE193     -0.0203
     58  CD1      -15.3260   59.9630   -6.6660 C.ar  193  PHE193     -0.0042
     59  CD2      -13.8030   58.4470   -5.6250 C.ar  193  PHE193     -0.0042
     60  CE1      -14.2800   60.5400   -7.3770 C.ar  193  PHE193     -0.0003
     61  CE2      -12.7490   59.0230   -6.3360 C.ar  193  PHE193     -0.0003
     62  CZ       -12.9920   60.0670   -7.2090 C.ar  193  PHE193     -0.0000
     63  N         -8.8340   63.4530   -2.6830 N.3   220  ARG220     -0.1245
     64  CA        -9.7380   62.3390   -2.9260 C.3   220  ARG220      0.1563
     65  C        -10.1960   61.6620   -1.6420 C.2   220  ARG220      0.2260
     66  O         -9.4740   61.6260   -0.6390 O.2   220  ARG220     -0.2867
     67  CB        -9.0380   61.3080   -3.8000 C.3   220  ARG220      0.0307
     68  CG        -9.8760   60.0960   -4.1490 C.3   220  ARG220      0.0489
     69  CD        -9.2900   59.3870   -5.3590 C.3   220  ARG220      0.2205
     70  NE        -9.1100   60.3160   -6.4730 N.pl3 220  ARG220     -0.0865
     71  CZ        -8.7250   59.9580   -7.6950 C.cat 220  ARG220      0.5346
     72  NH1       -8.4880   58.6820   -7.9750 N.pl3 220  ARG220      0.1354
     73  NH2       -8.5870   60.8770   -8.6440 N.pl3 220  ARG220      0.1354
     74  N        -12.4910   57.9710   -0.4310 N.3   222  TYR222     -0.1241
     75  CA       -13.2760   56.7640   -0.7050 C.3   222  TYR222      0.1605
     76  C        -13.8630   56.3250    0.6200 C.2   222  TYR222      0.2264
     77  O        -13.1910   56.3910    1.6510 O.2   222  TYR222     -0.2867
     78  CB       -12.3990   55.6040   -1.1730 C.3   222  TYR222      0.0534
     79  CG       -11.6380   55.8060   -2.4450 C.ar  222  TYR222     -0.0201
     80  CD1      -10.3510   56.3290   -2.4280 C.ar  222  TYR222     -0.0009
     81  CD2      -12.1850   55.4350   -3.6700 C.ar  222  TYR222     -0.0009
     82  CE1       -9.6360   56.5010   -3.6050 C.ar  222  TYR222      0.0417
     83  CE2      -11.4780   55.6010   -4.8500 C.ar  222  TYR222      0.0417
     84  CZ       -10.2050   56.1340   -4.8100 C.ar  222  TYR222      0.1957
     85  OH        -9.4970   56.3050   -5.9790 O.3   222  TYR222     -0.2866
@<TRIPOS>BOND
     1     8     6    1
     2     7     5    1
     3    73    71    1
     4    28    26    1
     5     6     5    1
     6    39    38    1
     7    40    38    1
     8     5     2    1
     9    72    71    1
    10    71    70    2
    11    38    37    1
    12    60    62   ar
    13    60    58   ar
    14    62    61   ar
    15    26    25    1
    16     1     2    1
    17    27    25    1
    18     2     3    1
    19    58    57   ar
    20    70    69    1
    21    25    22    1
    22    61    59   ar
    23    37    34    1
    24    85    84    1
    25    32    31    2
    26    57    59   ar
    27    57    56    1
    28     3     4    2
    29     3     9   am
    30    50    48   ar
    31    50    51   ar
    32    69    68    1
    33    34    33    1
    34    34    35    1
    35    31    33   am
    36    31    30    1
    37     9    10    1
    38    56    53    1
    39    29    30    2
    40    29    23    1
    41    22    23    1
    42    22    21    1
    43    83    84   ar
    44    83    81   ar
    45    48    46   ar
    46    84    82   ar
    47    12    11    2
    48    51    49   ar
    49    23    24    2
    50    20    17    1
    51    68    67    1
    52    11    10    1
    53    11    16   am
    54    35    36    2
    55    55    54    2
    56    10    13    1
    57    67    64    1
    58    54    53    1
    59    81    79   ar
    60    82    80   ar
    61    53    52    1
    62    46    45    1
    63    46    47   ar
    64    49    47   ar
    65    16    17    1
    66    17    18    1
    67    64    63    1
    68    64    65    1
    69    45    42    1
    70    44    43    2
    71    13    15    1
    72    13    14    1
    73    79    80   ar
    74    79    78    1
    75    18    19    2
    76    43    42    1
    77    42    41    1
    78    65    66    2
    79    78    75    1
    80    75    74    1
    81    75    76    1
    82    76    77    2
