@<TRIPOS>MOLECULE
tmp/2x55A10.pdb
 65 61 0 0 0
SMALL
GASTEIGER

@<TRIPOS>ATOM
      1  N        -30.9910   49.1230   -5.9080 N.3   125  ALA125     -0.1231
      2  CA       -29.7150   49.7260   -6.2930 C.3   125  ALA125      0.1694
      3  C        -29.9200   51.1590   -6.7530 C.2   125  ALA125      0.2592
      4  O        -30.8710   51.4640   -7.4650 O.2   125  ALA125     -0.2718
      5  CB       -29.0400   48.9110   -7.3780 C.3   125  ALA125      0.0304
      6  N        -29.0230   52.0520   -6.3520 N.am  126  GLY126     -0.1957
      7  CA       -29.2130   53.4390   -6.7050 C.3   126  GLY126      0.1869
      8  C        -27.9500   54.2590   -6.6060 C.2   126  GLY126      0.2309
      9  O        -26.8560   53.7290   -6.3960 O.2   126  GLY126     -0.2863
     10  N        -22.7100   54.9860   -4.8340 N.3   176  LEU176     -0.1231
     11  CA       -23.6370   53.9460   -5.2650 C.3   176  LEU176      0.1693
     12  C        -24.1870   53.2830   -4.0150 C.2   176  LEU176      0.2592
     13  O        -23.4640   53.1130   -3.0380 O.2   176  LEU176     -0.2718
     14  CB       -22.8960   52.8990   -6.0890 C.3   176  LEU176      0.0284
     15  CG       -22.8320   52.9910   -7.6160 C.3   176  LEU176      0.0019
     16  CD1      -23.3870   54.3000   -8.1710 C.3   176  LEU176      0.0001
     17  CD2      -21.4080   52.7500   -8.0610 C.3   176  LEU176      0.0001
     18  N        -25.4640   52.9040   -4.0400 N.am  177  ALA177     -0.1966
     19  CA       -26.0880   52.2910   -2.8740 C.3   177  ALA177      0.1728
     20  C        -26.7990   51.0200   -3.3060 C.2   177  ALA177      0.2616
     21  O        -27.3600   50.9600   -4.3920 O.2   177  ALA177     -0.2715
     22  CB       -27.0760   53.2540   -2.2110 C.3   177  ALA177      0.0334
     23  N        -26.7600   50.0060   -2.4550 N.am  178  GLY178     -0.1955
     24  CA       -27.4030   48.7430   -2.7720 C.3   178  GLY178      0.1869
     25  C        -28.0260   48.1440   -1.5240 C.2   178  GLY178      0.2309
     26  O        -27.6140   48.4170   -0.3920 O.2   178  GLY178     -0.2863
     27  N        -25.3160   48.2020    1.5270 N.3   189  ALA189     -0.1231
     28  CA       -23.9290   48.5680    1.2390 C.3   189  ALA189      0.1694
     29  C        -23.9170   49.8600    0.4470 C.2   189  ALA189      0.2592
     30  O        -24.7210   50.0450   -0.4690 O.2   189  ALA189     -0.2718
     31  CB       -23.2290   47.4590    0.4550 C.3   189  ALA189      0.0304
     32  N        -23.0060   50.7530    0.8110 N.am  190  LEU190     -0.1966
     33  CA       -22.8570   52.0290    0.1250 C.3   190  LEU190      0.1728
     34  C        -21.3830   52.1850   -0.1980 C.2   190  LEU190      0.2616
     35  O        -20.5330   51.8050    0.6080 O.2   190  LEU190     -0.2715
     36  CB       -23.2480   53.1690    1.0700 C.3   190  LEU190      0.0311
     37  CG       -24.5940   53.8760    0.9410 C.3   190  LEU190      0.0022
     38  CD1      -25.7010   52.8810    0.6820 C.3   190  LEU190      0.0001
     39  CD2      -24.8730   54.6820    2.2020 C.3   190  LEU190      0.0001
     40  N        -21.0950   52.7430   -1.3630 N.am  191  PHE191     -0.1974
     41  CA       -19.7260   53.1240   -1.7290 C.3   191  PHE191      0.1639
     42  C        -19.7440   54.5970   -2.0780 C.2   191  PHE191      0.2290
     43  O        -20.5440   55.0330   -2.9030 O.2   191  PHE191     -0.2864
     44  CB       -19.2330   52.3180   -2.9260 C.3   191  PHE191      0.0560
     45  CG       -17.9890   52.8890   -3.5640 C.ar  191  PHE191     -0.0200
     46  CD1      -16.7670   52.8330   -2.9050 C.ar  191  PHE191     -0.0042
     47  CD2      -18.0450   53.4930   -4.8140 C.ar  191  PHE191     -0.0042
     48  CE1      -15.6220   53.3600   -3.4850 C.ar  191  PHE191     -0.0003
     49  CE2      -16.9060   54.0240   -5.4000 C.ar  191  PHE191     -0.0003
     50  CZ       -15.6920   53.9560   -4.7350 C.ar  191  PHE191     -0.0000
     51  N        -16.9080   53.3530    2.5280 N.3   224  THR224     -0.1218
     52  CA       -17.9780   52.3670    2.4100 C.3   224  THR224      0.1862
     53  C        -18.7430   52.2710    3.7120 C.2   224  THR224      0.2287
     54  O        -18.2110   52.5640    4.7910 O.2   224  THR224     -0.2866
     55  CB       -17.4400   50.9770    2.0170 C.3   224  THR224      0.1770
     56  OG1      -18.5380   50.0640    1.8540 O.3   224  THR224     -0.2211
     57  CG2      -16.5000   50.4500    3.0820 C.3   224  THR224      0.0375
     58  N        -21.3740   49.3190    5.3720 N.3   226  ILE226     -0.1245
     59  CA       -22.0330   48.0190    5.2410 C.3   226  ILE226      0.1561
     60  C        -22.8200   47.7560    6.5220 C.2   226  ILE226      0.2260
     61  O        -22.2820   47.8780    7.6180 O.2   226  ILE226     -0.2867
     62  CB       -21.0030   46.8990    5.0330 C.3   226  ILE226      0.0252
     63  CG1      -20.1900   47.1580    3.7610 C.3   226  ILE226      0.0019
     64  CG2      -21.6980   45.5400    4.9590 C.3   226  ILE226      0.0019
     65  CD1      -19.1080   46.1370    3.5170 C.3   226  ILE226      0.0001
@<TRIPOS>BOND
     1    16    15    1
     2    17    15    1
     3    15    14    1
     4     4     3    2
     5     5     2    1
     6     3     6   am
     7     3     2    1
     8     7     8    1
     9     7     6    1
    10     8     9    2
    11     2     1    1
    12    14    11    1
    13    49    47   ar
    14    49    50   ar
    15    11    10    1
    16    11    12    1
    17    47    45   ar
    18    50    48   ar
    19    21    20    2
    20    18    12   am
    21    18    19    1
    22    12    13    2
    23    45    44    1
    24    45    46   ar
    25    48    46   ar
    26    20    19    1
    27    20    23   am
    28    44    41    1
    29    43    42    2
    30    19    22    1
    31    24    23    1
    32    24    25    1
    33    42    41    1
    34    41    40    1
    35    25    26    2
    36    40    34   am
    37    30    29    2
    38    34    33    1
    39    34    35    2
    40    33    32    1
    41    33    36    1
    42    29    32   am
    43    29    28    1
    44    31    28    1
    45    38    37    1
    46    37    36    1
    47    37    39    1
    48    28    27    1
    49    56    55    1
    50    55    52    1
    51    55    57    1
    52    52    51    1
    53    52    53    1
    54    65    63    1
    55    53    54    2
    56    63    62    1
    57    64    62    1
    58    62    59    1
    59    59    58    1
    60    59    60    1
    61    60    61    2
