@<TRIPOS>MOLECULE
tmp/2x56A01.pdb
 85 82 0 0 0
SMALL
GASTEIGER

@<TRIPOS>ATOM
      1  N        -43.7220   57.3050    2.2710 N.3     8  ASP8       -0.1239
      2  CA       -43.6550   58.4820    3.1240 C.3     8  ASP8        0.1674
      3  C        -43.3420   58.1230    4.5720 C.2     8  ASP8        0.2266
      4  O        -43.5690   58.9160    5.4860 O.2     8  ASP8       -0.2867
      5  CB       -44.9640   59.2660    3.0480 C.3     8  ASP8        0.1410
      6  CG       -44.8160   60.6850    3.5280 C.2     8  ASP8        0.3668
      7  OD1      -43.7180   61.2500    3.3450 O.co2   8  ASP8       -0.2456
      8  OD2      -45.7890   61.2330    4.0900 O.co2   8  ASP8       -0.2456
      9  N        -40.5060   56.9000    7.6110 N.3    10  PHE10      -0.1241
     10  CA       -39.1580   57.2840    7.9660 C.3    10  PHE10       0.1605
     11  C        -38.5820   56.3870    9.0620 C.2    10  PHE10       0.2264
     12  O        -39.3140   55.7650    9.8370 O.2    10  PHE10      -0.2867
     13  CB       -39.1010   58.7640    8.3600 C.3    10  PHE10       0.0534
     14  CG       -39.8480   59.0920    9.6070 C.ar   10  PHE10      -0.0203
     15  CD1      -41.1940   59.4040    9.5610 C.ar   10  PHE10      -0.0042
     16  CD2      -39.1980   59.1080   10.8360 C.ar   10  PHE10      -0.0042
     17  CE1      -41.8960   59.7200   10.7300 C.ar   10  PHE10      -0.0003
     18  CE2      -39.8900   59.4260   12.0150 C.ar   10  PHE10      -0.0003
     19  CZ       -41.2420   59.7290   11.9570 C.ar   10  PHE10      -0.0000
     20  N        -31.1360   59.0430   10.5360 N.3    53  ILE53      -0.1245
     21  CA       -32.5290   59.3060   10.2520 C.3    53  ILE53       0.1561
     22  C        -32.7010   59.2690    8.7430 C.2    53  ILE53       0.2260
     23  O        -31.9080   59.8620    8.0150 O.2    53  ILE53      -0.2867
     24  CB       -32.9540   60.6690   10.7780 C.3    53  ILE53       0.0252
     25  CG1      -32.7900   60.7080   12.2900 C.3    53  ILE53       0.0019
     26  CG2      -34.4000   60.9430   10.4220 C.3    53  ILE53       0.0019
     27  CD1      -33.1070   62.0510   12.8740 C.3    53  ILE53       0.0001
     28  N        -35.7930   59.3880    5.5260 N.3    55  TRP55      -0.1241
     29  CA       -37.1660   59.6560    5.1270 C.3    55  TRP55       0.1605
     30  C        -37.3270   59.2810    3.6670 C.2    55  TRP55       0.2264
     31  O        -36.4680   59.6280    2.8350 O.2    55  TRP55      -0.2867
     32  CB       -37.4980   61.1290    5.3540 C.3    55  TRP55       0.0550
     33  CG       -38.8780   61.5360    4.9370 C.ar   55  TRP55       0.0003
     34  CD1      -40.0250   60.8040    5.0510 C.ar   55  TRP55       0.0946
     35  CD2      -39.2590   62.7910    4.3590 C.ar   55  TRP55       0.0152
     36  NE1      -41.0920   61.5210    4.5710 N.ar   55  TRP55      -0.2442
     37  CE2      -40.6500   62.7470    4.1470 C.ar   55  TRP55       0.0810
     38  CE3      -38.5570   63.9510    4.0110 C.ar   55  TRP55       0.0012
     39  CZ2      -41.3550   63.8140    3.5920 C.ar   55  TRP55       0.0191
     40  CZ3      -39.2560   65.0060    3.4610 C.ar   55  TRP55       0.0001
     41  CH2      -40.6400   64.9320    3.2540 C.ar   55  TRP55       0.0015
     42  N        -34.1200   60.7270    1.7590 N.3    63  LEU63      -0.1231
     43  CA       -33.3160   61.7900    2.3450 C.3    63  LEU63       0.1693
     44  C        -32.7690   61.2500    3.6560 C.2    63  LEU63       0.2592
     45  O        -33.4600   60.5350    4.3820 O.2    63  LEU63      -0.2718
     46  CB       -34.1320   63.0620    2.5760 C.3    63  LEU63       0.0284
     47  CG       -34.9240   63.5540    1.3570 C.3    63  LEU63       0.0019
     48  CD1      -35.5470   64.9220    1.6030 C.3    63  LEU63       0.0001
     49  CD2      -34.0270   63.5900    0.1590 C.3    63  LEU63       0.0001
     50  N        -31.5200   61.5820    3.9460 N.am   64  ASN64      -0.1960
     51  CA       -30.8010   60.9230    5.0240 C.3    64  ASN64       0.1819
     52  C        -29.8910   61.9090    5.7400 C.2    64  ASN64       0.2621
     53  O        -29.1370   62.6510    5.1070 O.2    64  ASN64      -0.2715
     54  CB       -29.9970   59.7750    4.4330 C.3    64  ASN64       0.1195
     55  CG       -29.1440   59.0460    5.4560 C.2    64  ASN64       0.2630
     56  OD1      -28.0120   58.6680    5.1480 O.2    64  ASN64      -0.2716
     57  ND2      -29.6850   58.8120    6.6600 N.am   64  ASN64      -0.0877
     58  N        -30.0080   61.9500    7.0590 N.am   65  ALA65      -0.1977
     59  CA       -29.0820   62.7070    7.8930 C.3    65  ALA65       0.1597
     60  C        -28.5130   61.7240    8.8960 C.2    65  ALA65       0.2287
     61  O        -29.2530   61.0080    9.5820 O.2    65  ALA65      -0.2864
     62  CB       -29.7990   63.8540    8.6080 C.3    65  ALA65       0.0319
     63  N        -25.1150   64.4690    5.2470 N.3   110  LEU110     -0.1231
     64  CA       -26.4570   64.7780    4.7520 C.3   110  LEU110      0.1693
     65  C        -26.5220   64.3880    3.2960 C.2   110  LEU110      0.2592
     66  O        -25.6780   64.7980    2.4890 O.2   110  LEU110     -0.2718
     67  CB       -26.7450   66.2690    4.8730 C.3   110  LEU110      0.0284
     68  CG       -26.4760   66.8960    6.2390 C.3   110  LEU110      0.0019
     69  CD1      -26.6160   68.4110    6.1530 C.3   110  LEU110      0.0001
     70  CD2      -27.4080   66.3120    7.2980 C.3   110  LEU110      0.0001
     71  N        -27.5190   63.5980    2.9310 N.am  111  ASN111     -0.1960
     72  CA       -27.4830   63.0530    1.5960 C.3   111  ASN111      0.1819
     73  C        -28.8320   62.6280    1.0650 C.2   111  ASN111      0.2621
     74  O        -29.8350   62.5890    1.7860 O.2   111  ASN111     -0.2715
     75  CB       -26.5090   61.8630    1.5530 C.3   111  ASN111      0.1195
     76  CG       -26.9870   60.7010    2.4010 C.2   111  ASN111      0.2630
     77  OD1      -27.7840   59.8690    1.9430 O.2   111  ASN111     -0.2716
     78  ND2      -26.5210   60.6450    3.6570 N.am  111  ASN111     -0.0877
     79  N        -28.8320   62.2950   -0.2150 N.am  112  VAL112     -0.1977
     80  CA       -30.0140   61.7840   -0.8740 C.3   112  VAL112      0.1596
     81  C        -29.6170   60.5140   -1.6040 C.2   112  VAL112      0.2287
     82  O        -28.4820   60.3880   -2.0790 O.2   112  VAL112     -0.2864
     83  CB       -30.5620   62.8120   -1.8810 C.3   112  VAL112      0.0276
     84  CG1      -31.7260   62.2340   -2.6450 C.3   112  VAL112      0.0022
     85  CG2      -30.9760   64.0880   -1.1560 C.3   112  VAL112      0.0022
@<TRIPOS>BOND
     1    84    83    1
     2    82    81    2
     3    83    85    1
     4    83    80    1
     5    81    80    1
     6    80    79    1
     7    79    73   am
     8    49    47    1
     9    73    72    1
    10    73    74    2
    11    47    48    1
    12    47    46    1
    13    75    72    1
    14    75    76    1
    15    72    71    1
    16    42    43    1
    17    77    76    2
    18     1     2    1
    19    43    46    1
    20    43    44    1
    21    76    78   am
    22    66    65    2
    23    31    30    2
    24    71    65   am
    25     5     2    1
    26     5     6    1
    27     2     3    1
    28    41    40   ar
    29    41    39   ar
    30    65    64    1
    31     7     6   ar
    32    40    38   ar
    33     6     8   ar
    34    39    37   ar
    35    44    50   am
    36    44    45    2
    37    30    29    1
    38    50    51    1
    39    38    35   ar
    40    37    35   ar
    41    37    36   ar
    42    35    33   ar
    43    54    51    1
    44    54    55    1
    45    36    34   ar
    46     3     4    2
    47    64    67    1
    48    64    63    1
    49    67    68    1
    50    33    34   ar
    51    33    32    1
    52    51    52    1
    53    53    52    2
    54    29    32    1
    55    29    28    1
    56    56    55    2
    57    55    57   am
    58    52    58   am
    59    69    68    1
    60    68    70    1
    61    58    59    1
    62     9    10    1
    63    59    62    1
    64    59    60    1
    65    10    13    1
    66    10    11    1
    67    23    22    2
    68    13    14    1
    69    22    21    1
    70    60    61    2
    71    11    12    2
    72    15    14   ar
    73    15    17   ar
    74    14    16   ar
    75    21    20    1
    76    21    24    1
    77    26    24    1
    78    17    19   ar
    79    24    25    1
    80    16    18   ar
    81    19    18   ar
    82    25    27    1
