@<TRIPOS>MOLECULE
tmp/2x56A09.pdb
 87 81 0 0 0
SMALL
GASTEIGER

@<TRIPOS>ATOM
      1  N        -35.5540   55.7890   12.2350 N.3    12  VAL12      -0.1245
      2  CA       -34.5970   56.3200   13.1850 C.3    12  VAL12       0.1561
      3  C        -33.7490   55.1460   13.6670 C.2    12  VAL12       0.2260
      4  O        -34.2620   54.0690   13.9670 O.2    12  VAL12      -0.2867
      5  CB       -35.2880   57.0180   14.3850 C.3    12  VAL12       0.0252
      6  CG1      -34.2360   57.6020   15.3310 C.3    12  VAL12       0.0019
      7  CG2      -36.2040   58.1250   13.8860 C.3    12  VAL12       0.0019
      8  N        -26.0140   57.9420   14.9960 N.3    51  GLY51      -0.1210
      9  CA       -27.4230   58.1890   14.7910 C.3    51  GLY51       0.1956
     10  C        -27.6990   58.2680   13.3060 C.2    51  GLY51       0.2612
     11  O        -26.8410   58.6710   12.5220 O.2    51  GLY51      -0.2717
     12  N        -28.9000   57.8690   12.9130 N.am   52  ASP52      -0.1959
     13  CA       -29.2680   57.8890   11.5110 C.3    52  ASP52       0.1840
     14  C        -30.7690   58.1150   11.4000 C.2    52  ASP52       0.2621
     15  O        -31.5660   57.5140   12.1210 O.2    52  ASP52      -0.2715
     16  CB       -28.8480   56.5920   10.8170 C.3    52  ASP52       0.1450
     17  CG       -29.2650   56.5560    9.3450 C.2    52  ASP52       0.3671
     18  OD1      -30.4560   56.3120    9.0710 O.co2  52  ASP52      -0.2456
     19  OD2      -28.4140   56.7920    8.4640 O.co2  52  ASP52      -0.2456
     20  N        -31.1360   59.0430   10.5360 N.am   53  ILE53      -0.1977
     21  CA       -32.5290   59.3060   10.2520 C.3    53  ILE53       0.1596
     22  C        -32.7010   59.2690    8.7430 C.2    53  ILE53       0.2287
     23  O        -31.9080   59.8620    8.0150 O.2    53  ILE53      -0.2864
     24  CB       -32.9540   60.6690   10.7780 C.3    53  ILE53       0.0276
     25  CG1      -32.7900   60.7080   12.2900 C.3    53  ILE53       0.0022
     26  CG2      -34.4000   60.9430   10.4220 C.3    53  ILE53       0.0022
     27  CD1      -33.1070   62.0510   12.8740 C.3    53  ILE53       0.0001
     28  N        -30.0080   61.9500    7.0590 N.3    65  ALA65      -0.1231
     29  CA       -29.0820   62.7070    7.8930 C.3    65  ALA65       0.1694
     30  C        -28.5130   61.7240    8.8960 C.2    65  ALA65       0.2592
     31  O        -29.2530   61.0080    9.5820 O.2    65  ALA65      -0.2718
     32  CB       -29.7990   63.8540    8.6080 C.3    65  ALA65       0.0304
     33  N        -27.1950   61.6500    8.9650 N.am   66  ARG66      -0.1966
     34  CA       -26.5750   60.7160    9.8940 C.3    66  ARG66       0.1729
     35  C        -25.3120   61.3190   10.4630 C.2    66  ARG66       0.2616
     36  O        -24.8180   62.3290    9.9680 O.2    66  ARG66      -0.2715
     37  CB       -26.2900   59.3700    9.2120 C.3    66  ARG66       0.0348
     38  CG       -25.4980   59.4750    7.9210 C.3    66  ARG66       0.0492
     39  CD       -25.3690   58.1290    7.2130 C.3    66  ARG66       0.2205
     40  NE       -24.3650   57.2500    7.8230 N.pl3  66  ARG66      -0.0865
     41  CZ       -24.6390   56.0760    8.3900 C.cat  66  ARG66       0.5346
     42  NH1      -25.8960   55.6440    8.4540 N.pl3  66  ARG66       0.1354
     43  NH2      -23.6580   55.3310    8.9030 N.pl3  66  ARG66       0.1354
     44  N        -24.7950   60.7000   11.5130 N.am   67  GLY67      -0.1955
     45  CA       -23.5780   61.1710   12.1290 C.3    67  GLY67       0.1869
     46  C        -23.2020   60.3400   13.3290 C.2    67  GLY67       0.2309
     47  O        -23.9790   59.4890   13.8010 O.2    67  GLY67      -0.2863
     48  N        -20.7740   64.1000   10.4340 N.3   108  TYR108     -0.1241
     49  CA       -22.1660   64.1060   10.0250 C.3   108  TYR108      0.1605
     50  C        -22.1890   64.0560    8.5120 C.2   108  TYR108      0.2264
     51  O        -21.1840   64.3340    7.8530 O.2   108  TYR108     -0.2867
     52  CB       -22.9410   65.3140   10.5620 C.3   108  TYR108      0.0534
     53  CG       -22.5620   66.6300    9.9350 C.ar  108  TYR108     -0.0201
     54  CD1      -21.5890   67.4460   10.5110 C.ar  108  TYR108     -0.0009
     55  CD2      -23.1900   67.0710    8.7740 C.ar  108  TYR108     -0.0009
     56  CE1      -21.2440   68.6620    9.9420 C.ar  108  TYR108      0.0417
     57  CE2      -22.8590   68.2860    8.1950 C.ar  108  TYR108      0.0417
     58  CZ       -21.8880   69.0750    8.7820 C.ar  108  TYR108      0.1957
     59  OH       -21.5620   70.2770    8.2050 O.3   108  TYR108     -0.2866
     60  N        -25.1150   64.4690    5.2470 N.3   110  LEU110     -0.1245
     61  CA       -26.4570   64.7780    4.7520 C.3   110  LEU110      0.1561
     62  C        -26.5220   64.3880    3.2960 C.2   110  LEU110      0.2260
     63  O        -25.6780   64.7980    2.4890 O.2   110  LEU110     -0.2867
     64  CB       -26.7450   66.2690    4.8730 C.3   110  LEU110      0.0270
     65  CG       -26.4760   66.8960    6.2390 C.3   110  LEU110      0.0019
     66  CD1      -26.6160   68.4110    6.1530 C.3   110  LEU110      0.0001
     67  CD2      -27.4080   66.3120    7.2980 C.3   110  LEU110      0.0001
     68  N        -18.8730   66.0240    6.7240 N.3   132  GLU132     -0.1245
     69  CA       -17.7390   66.5840    7.4680 C.3   132  GLU132      0.1567
     70  C        -17.3100   65.6490    8.5860 C.2   132  GLU132      0.2260
     71  O        -18.1470   65.0380    9.2510 O.2   132  GLU132     -0.2867
     72  CB       -18.0660   67.9530    8.0710 C.3   132  GLU132      0.0388
     73  CG       -18.3560   69.0330    7.0500 C.3   132  GLU132      0.1160
     74  CD       -18.3360   70.4360    7.6500 C.2   132  GLU132      0.3649
     75  OE1      -18.0180   70.5770    8.8470 O.co2 132  GLU132     -0.2457
     76  OE2      -18.6370   71.4010    6.9180 O.co2 132  GLU132     -0.2457
     77  N        -14.3350   65.3470   11.9220 N.3   134  ARG134     -0.1245
     78  CA       -13.3910   66.0780   12.7760 C.3   134  ARG134      0.1563
     79  C        -12.6950   65.1510   13.7520 C.2   134  ARG134      0.2260
     80  O        -13.3160   64.2340   14.3030 O.2   134  ARG134     -0.2867
     81  CB       -14.1110   67.1840   13.5510 C.3   134  ARG134      0.0307
     82  CG       -14.6220   68.3310   12.6870 C.3   134  ARG134      0.0489
     83  CD       -15.5660   69.2260   13.4850 C.3   134  ARG134      0.2205
     84  NE       -15.7760   70.5180   12.8420 N.pl3 134  ARG134     -0.0865
     85  CZ       -16.6980   70.7560   11.9080 C.cat 134  ARG134      0.5346
     86  NH1      -17.5230   69.7810   11.4960 N.pl3 134  ARG134      0.1354
     87  NH2      -16.7980   71.9790   11.3850 N.pl3 134  ARG134      0.1354
@<TRIPOS>BOND
     1    63    62    2
     2    62    61    1
     3    61    64    1
     4    61    60    1
     5    64    65    1
     6    66    65    1
     7    65    67    1
     8    68    69    1
     9    76    74   ar
    10    73    74    1
    11    73    72    1
    12    28    29    1
    13    39    40    1
    14    39    38    1
    15    69    72    1
    16    69    70    1
    17    74    75   ar
    18    40    41    2
    19    51    50    2
    20    29    32    1
    21    29    30    1
    22    38    37    1
    23    23    22    2
    24    57    55   ar
    25    57    58   ar
    26    59    58    1
    27    41    42    1
    28    41    43    1
    29    19    17   ar
    30    50    49    1
    31    70    71    2
    32    22    21    1
    33    55    53   ar
    34    58    56   ar
    35    30    33   am
    36    30    31    2
    37    33    34    1
    38    18    17   ar
    39    37    34    1
    40    17    16    1
    41    34    35    1
    42    53    54   ar
    43    53    52    1
    44    56    54   ar
    45    36    35    2
    46    49    48    1
    47    49    52    1
    48    21    20    1
    49    21    24    1
    50    26    24    1
    51    35    44   am
    52    20    14   am
    53    24    25    1
    54    16    13    1
    55    87    85    1
    56    14    13    1
    57    14    15    2
    58    86    85    1
    59    13    12    1
    60    44    45    1
    61    85    84    2
    62    77    78    1
    63    45    46    1
    64     1     2    1
    65    25    27    1
    66    11    10    2
    67    82    83    1
    68    82    81    1
    69    78    81    1
    70    78    79    1
    71    84    83    1
    72    12    10   am
    73     2     3    1
    74     2     5    1
    75    10     9    1
    76    46    47    2
    77     3     4    2
    78    79    80    2
    79     7     5    1
    80     5     6    1
    81     9     8    1
