@<TRIPOS>MOLECULE
tmp/2x56A05.pdb
 84 83 0 0 0
SMALL
GASTEIGER

@<TRIPOS>ATOM
      1  N        -20.7740   64.1000   10.4340 N.3   108  TYR108     -0.1241
      2  CA       -22.1660   64.1060   10.0250 C.3   108  TYR108      0.1605
      3  C        -22.1890   64.0560    8.5120 C.2   108  TYR108      0.2264
      4  O        -21.1840   64.3340    7.8530 O.2   108  TYR108     -0.2867
      5  CB       -22.9410   65.3140   10.5620 C.3   108  TYR108      0.0534
      6  CG       -22.5620   66.6300    9.9350 C.ar  108  TYR108     -0.0201
      7  CD1      -21.5890   67.4460   10.5110 C.ar  108  TYR108     -0.0009
      8  CD2      -23.1900   67.0710    8.7740 C.ar  108  TYR108     -0.0009
      9  CE1      -21.2440   68.6620    9.9420 C.ar  108  TYR108      0.0417
     10  CE2      -22.8590   68.2860    8.1950 C.ar  108  TYR108      0.0417
     11  CZ       -21.8880   69.0750    8.7820 C.ar  108  TYR108      0.1957
     12  OH       -21.5620   70.2770    8.2050 O.3   108  TYR108     -0.2866
     13  N        -25.1150   64.4690    5.2470 N.3   110  LEU110     -0.1231
     14  CA       -26.4570   64.7780    4.7520 C.3   110  LEU110      0.1693
     15  C        -26.5220   64.3880    3.2960 C.2   110  LEU110      0.2592
     16  O        -25.6780   64.7980    2.4890 O.2   110  LEU110     -0.2718
     17  CB       -26.7450   66.2690    4.8730 C.3   110  LEU110      0.0284
     18  CG       -26.4760   66.8960    6.2390 C.3   110  LEU110      0.0019
     19  CD1      -26.6160   68.4110    6.1530 C.3   110  LEU110      0.0001
     20  CD2      -27.4080   66.3120    7.2980 C.3   110  LEU110      0.0001
     21  N        -27.5190   63.5980    2.9310 N.am  111  ASN111     -0.1960
     22  CA       -27.4830   63.0530    1.5960 C.3   111  ASN111      0.1819
     23  C        -28.8320   62.6280    1.0650 C.2   111  ASN111      0.2621
     24  O        -29.8350   62.5890    1.7860 O.2   111  ASN111     -0.2715
     25  CB       -26.5090   61.8630    1.5530 C.3   111  ASN111      0.1195
     26  CG       -26.9870   60.7010    2.4010 C.2   111  ASN111      0.2630
     27  OD1      -27.7840   59.8690    1.9430 O.2   111  ASN111     -0.2716
     28  ND2      -26.5210   60.6450    3.6570 N.am  111  ASN111     -0.0877
     29  N        -28.8320   62.2950   -0.2150 N.am  112  VAL112     -0.1977
     30  CA       -30.0140   61.7840   -0.8740 C.3   112  VAL112      0.1596
     31  C        -29.6170   60.5140   -1.6040 C.2   112  VAL112      0.2287
     32  O        -28.4820   60.3880   -2.0790 O.2   112  VAL112     -0.2864
     33  CB       -30.5620   62.8120   -1.8810 C.3   112  VAL112      0.0276
     34  CG1      -31.7260   62.2340   -2.6450 C.3   112  VAL112      0.0022
     35  CG2      -30.9760   64.0880   -1.1560 C.3   112  VAL112      0.0022
     36  N        -25.7140   61.0820   -3.3350 N.3   128  ALA128     -0.1231
     37  CA       -24.8710   62.2610   -3.3320 C.3   128  ALA128      0.1694
     38  C        -25.1450   63.0110   -2.0460 C.2   128  ALA128      0.2593
     39  O        -26.2600   62.9670   -1.5090 O.2   128  ALA128     -0.2718
     40  CB       -25.1600   63.1430   -4.5480 C.3   128  ALA128      0.0304
     41  N        -24.1300   63.6850   -1.5300 N.am  129  GLY129     -0.1942
     42  CA       -24.3150   64.3800   -0.2850 C.3   129  GLY129      0.2014
     43  C        -23.1490   65.2230    0.1450 C.2   129  GLY129      0.2638
     44  O        -22.1840   65.4240   -0.6020 O.2   129  GLY129     -0.2714
     45  N        -23.2630   65.7230    1.3700 N.am  130  TYR130     -0.1973
     46  CA       -22.2210   66.5130    1.9960 C.3   130  TYR130      0.1639
     47  C        -21.8220   65.9030    3.3400 C.2   130  TYR130      0.2290
     48  O        -22.6710   65.5550    4.1560 O.2   130  TYR130     -0.2864
     49  CB       -22.6970   67.9390    2.1980 C.3   130  TYR130      0.0560
     50  CG       -21.6190   68.8330    2.7500 C.ar  130  TYR130     -0.0198
     51  CD1      -20.5590   69.2540    1.9500 C.ar  130  TYR130     -0.0009
     52  CD2      -21.6520   69.2520    4.0710 C.ar  130  TYR130     -0.0009
     53  CE1      -19.5670   70.0730    2.4580 C.ar  130  TYR130      0.0417
     54  CE2      -20.6700   70.0730    4.5840 C.ar  130  TYR130      0.0417
     55  CZ       -19.6310   70.4820    3.7750 C.ar  130  TYR130      0.1957
     56  OH       -18.6520   71.3000    4.2930 O.3   130  TYR130     -0.2866
     57  N        -18.8730   66.0240    6.7240 N.3   132  GLU132     -0.1245
     58  CA       -17.7390   66.5840    7.4680 C.3   132  GLU132      0.1567
     59  C        -17.3100   65.6490    8.5860 C.2   132  GLU132      0.2260
     60  O        -18.1470   65.0380    9.2510 O.2   132  GLU132     -0.2867
     61  CB       -18.0660   67.9530    8.0710 C.3   132  GLU132      0.0388
     62  CG       -18.3560   69.0330    7.0500 C.3   132  GLU132      0.1160
     63  CD       -18.3360   70.4360    7.6500 C.2   132  GLU132      0.3649
     64  OE1      -18.0180   70.5770    8.8470 O.co2 132  GLU132     -0.2457
     65  OE2      -18.6370   71.4010    6.9180 O.co2 132  GLU132     -0.2457
     66  N        -18.3150   67.5140   -0.7020 N.3   171  PRO171     -0.2102
     67  CA       -19.4890   66.8800   -1.2940 C.3   171  PRO171      0.1504
     68  C        -19.0070   65.5520   -1.8600 C.2   171  PRO171      0.2575
     69  O        -17.8170   65.4140   -2.1350 O.2   171  PRO171     -0.2718
     70  CB       -19.8840   67.8510   -2.4160 C.3   171  PRO171      0.0282
     71  CG       -18.5740   68.4640   -2.8480 C.3   171  PRO171      0.0208
     72  CD       -17.6980   68.5220   -1.5880 C.3   171  PRO171      0.0893
     73  N        -19.8960   64.5840   -2.0260 N.am  172  TYR172     -0.1977
     74  CA       -19.4820   63.3040   -2.5750 C.3   172  TYR172      0.1639
     75  C        -20.6030   62.6750   -3.3890 C.2   172  TYR172      0.2290
     76  O        -21.7630   63.0700   -3.2750 O.2   172  TYR172     -0.2864
     77  CB       -19.0890   62.3580   -1.4440 C.3   172  TYR172      0.0560
     78  CG       -20.2590   61.9100   -0.5800 C.ar  172  TYR172     -0.0198
     79  CD1      -21.0260   60.8030   -0.9380 C.ar  172  TYR172     -0.0009
     80  CD2      -20.5880   62.5880    0.5980 C.ar  172  TYR172     -0.0009
     81  CE1      -22.0940   60.3820   -0.1610 C.ar  172  TYR172      0.0417
     82  CE2      -21.6420   62.1730    1.3870 C.ar  172  TYR172      0.0417
     83  CZ       -22.3960   61.0680    1.0010 C.ar  172  TYR172      0.1957
     84  OH       -23.4410   60.6440    1.7850 O.3   172  TYR172     -0.2866
@<TRIPOS>BOND
     1    40    37    1
     2    75    76    2
     3    75    74    1
     4    36    37    1
     5    37    38    1
     6    71    70    1
     7    71    72    1
     8    34    33    1
     9    74    73    1
    10    74    77    1
    11    70    67    1
    12    69    68    2
    13    32    31    2
    14    38    41   am
    15    38    39    2
    16    73    68   am
    17    33    35    1
    18    33    30    1
    19    68    67    1
    20    31    30    1
    21    72    66    1
    22    41    42    1
    23    77    78    1
    24    67    66    1
    25    79    78   ar
    26    79    81   ar
    27    30    29    1
    28    44    43    2
    29    78    80   ar
    30    42    43    1
    31    29    23   am
    32    81    83   ar
    33    43    45   am
    34    80    82   ar
    35    83    82   ar
    36    83    84    1
    37    23    22    1
    38    23    24    2
    39    45    46    1
    40    25    22    1
    41    25    26    1
    42    22    21    1
    43    27    26    2
    44    51    53   ar
    45    51    50   ar
    46    46    49    1
    47    46    47    1
    48    49    50    1
    49    26    28   am
    50    53    55   ar
    51    16    15    2
    52    50    52   ar
    53    21    15   am
    54    15    14    1
    55    47    48    2
    56    55    56    1
    57    55    54   ar
    58    52    54   ar
    59    14    17    1
    60    14    13    1
    61    17    18    1
    62    19    18    1
    63    18    20    1
    64    57    58    1
    65    65    63   ar
    66    62    63    1
    67    62    61    1
    68    58    61    1
    69    58    59    1
    70    63    64   ar
    71     4     3    2
    72    10     8   ar
    73    10    11   ar
    74    12    11    1
    75     3     2    1
    76    59    60    2
    77     8     6   ar
    78    11     9   ar
    79     6     7   ar
    80     6     5    1
    81     9     7   ar
    82     2     1    1
    83     2     5    1
