@<TRIPOS>MOLECULE
tmp/2x56A08.pdb
 91 89 0 0 0
SMALL
GASTEIGER

@<TRIPOS>ATOM
      1  N        -30.0630   54.0890   16.0330 N.3    14  ALA14      -0.1245
      2  CA       -28.9370   54.4710   16.8660 C.3    14  ALA14       0.1562
      3  C        -28.0930   53.2340   17.0670 C.2    14  ALA14       0.2260
      4  O        -28.6140   52.1210   17.1710 O.2    14  ALA14      -0.2867
      5  CB       -29.4210   55.0200   18.2040 C.3    14  ALA14       0.0290
      6  N        -21.0950   56.8190   19.5210 N.3    49  LEU49      -0.1231
      7  CA       -22.5250   56.6620   19.3490 C.3    49  LEU49       0.1693
      8  C        -22.8760   57.1910   17.9650 C.2    49  LEU49       0.2592
      9  O        -22.4440   58.2880   17.5960 O.2    49  LEU49      -0.2718
     10  CB       -23.2500   57.4960   20.4010 C.3    49  LEU49       0.0284
     11  CG       -24.7810   57.5450   20.3380 C.3    49  LEU49       0.0019
     12  CD1      -25.3650   56.1950   20.7420 C.3    49  LEU49       0.0001
     13  CD2      -25.3070   58.6390   21.2520 C.3    49  LEU49       0.0001
     14  N        -23.6550   56.4170   17.2080 N.am   50  LYS50      -0.1966
     15  CA       -24.0800   56.7870   15.8560 C.3    50  LYS50       0.1728
     16  C        -25.5800   56.9760   15.8000 C.2    50  LYS50       0.2616
     17  O        -26.3320   56.2150   16.4140 O.2    50  LYS50      -0.2715
     18  CB       -23.7910   55.6720   14.8600 C.3    50  LYS50       0.0311
     19  CG       -22.3930   55.5460   14.3610 C.3    50  LYS50       0.0038
     20  CD       -22.4400   54.7060   13.0870 C.3    50  LYS50       0.0206
     21  CE       -21.0920   54.6020   12.4400 C.3    50  LYS50       0.1093
     22  NZ       -21.2450   54.1550   11.0410 N.3    50  LYS50      -0.1314
     23  N        -26.0140   57.9420   14.9960 N.am   51  GLY51      -0.1955
     24  CA       -27.4230   58.1890   14.7910 C.3    51  GLY51       0.1869
     25  C        -27.6990   58.2680   13.3060 C.2    51  GLY51       0.2309
     26  O        -26.8410   58.6710   12.5220 O.2    51  GLY51      -0.2863
     27  N        -24.7950   60.7000   11.5130 N.3    67  GLY67      -0.1210
     28  CA       -23.5780   61.1710   12.1290 C.3    67  GLY67       0.1956
     29  C        -23.2020   60.3400   13.3290 C.2    67  GLY67       0.2612
     30  O        -23.9790   59.4890   13.8010 O.2    67  GLY67      -0.2717
     31  N        -21.9930   60.5760   13.8210 N.am   68  TRP68      -0.1962
     32  CA       -21.5390   59.9130   15.0400 C.3    68  TRP68       0.1771
     33  C        -20.6440   60.8450   15.8320 C.2    68  TRP68       0.2620
     34  O        -20.1460   61.8410   15.3020 O.2    68  TRP68      -0.2715
     35  CB       -20.8350   58.5740   14.7430 C.3    68  TRP68       0.0590
     36  CG       -19.7420   58.6040   13.6920 C.ar   68  TRP68       0.0006
     37  CD1      -19.8580   58.2560   12.3730 C.ar   68  TRP68       0.0946
     38  CD2      -18.3590   58.9700   13.8910 C.ar   68  TRP68       0.0152
     39  NE1      -18.6410   58.4020   11.7360 N.ar   68  TRP68      -0.2442
     40  CE2      -17.7070   58.8390   12.6470 C.ar   68  TRP68       0.0810
     41  CE3      -17.6170   59.4010   15.0030 C.ar   68  TRP68       0.0012
     42  CZ2      -16.3450   59.1300   12.4780 C.ar   68  TRP68       0.0191
     43  CZ3      -16.2560   59.6920   14.8360 C.ar   68  TRP68       0.0001
     44  CH2      -15.6390   59.5570   13.5870 C.ar   68  TRP68       0.0015
     45  N        -20.4600   60.5280   17.1060 N.am   69  THR69      -0.1951
     46  CA       -19.5480   61.2750   17.9470 C.3    69  THR69       0.1897
     47  C        -18.9220   60.3260   18.9370 C.2    69  THR69       0.2313
     48  O        -19.5690   59.3720   19.3890 O.2    69  THR69      -0.2863
     49  CB       -20.2660   62.4120   18.7190 C.3    69  THR69       0.1794
     50  OG1      -19.3180   63.1010   19.5430 O.3    69  THR69      -0.2208
     51  CG2      -21.3760   61.8570   19.6130 C.3    69  THR69       0.0378
     52  N        -15.9040   63.3460   15.5000 N.3   106  ASN106     -0.1225
     53  CA       -17.2860   63.3450   15.0820 C.3   106  ASN106      0.1785
     54  C        -17.4140   63.4700   13.5780 C.2   106  ASN106      0.2597
     55  O        -16.4380   63.7570   12.8670 O.2   106  ASN106     -0.2718
     56  CB       -18.0770   64.4400   15.8090 C.3   106  ASN106      0.1169
     57  CG       -17.4640   65.8190   15.6420 C.2   106  ASN106      0.2627
     58  OD1      -17.0960   66.4610   16.6210 O.2   106  ASN106     -0.2716
     59  ND2      -17.3520   66.2760   14.4080 N.am  106  ASN106     -0.0877
     60  N        -18.6270   63.2360   13.1020 N.am  107  GLU107     -0.1965
     61  CA       -18.9060   63.1950   11.6730 C.3   107  GLU107      0.1733
     62  C        -20.3920   63.4140   11.5010 C.2   107  GLU107      0.2616
     63  O        -21.1840   62.9830   12.3400 O.2   107  GLU107     -0.2715
     64  CB       -18.5050   61.8250   11.0990 C.3   107  GLU107      0.0429
     65  CG       -18.6240   61.7000    9.5680 C.3   107  GLU107      0.1163
     66  CD       -19.8260   60.8710    9.1200 C.2   107  GLU107      0.3649
     67  OE1      -19.7020   60.1550    8.1030 O.co2 107  GLU107     -0.2457
     68  OE2      -20.8920   60.9180    9.7820 O.co2 107  GLU107     -0.2457
     69  N        -20.7740   64.1000   10.4340 N.am  108  TYR108     -0.1974
     70  CA       -22.1660   64.1060   10.0250 C.3   108  TYR108      0.1639
     71  C        -22.1890   64.0560    8.5120 C.2   108  TYR108      0.2290
     72  O        -21.1840   64.3340    7.8530 O.2   108  TYR108     -0.2864
     73  CB       -22.9410   65.3140   10.5620 C.3   108  TYR108      0.0560
     74  CG       -22.5620   66.6300    9.9350 C.ar  108  TYR108     -0.0198
     75  CD1      -21.5890   67.4460   10.5110 C.ar  108  TYR108     -0.0009
     76  CD2      -23.1900   67.0710    8.7740 C.ar  108  TYR108     -0.0009
     77  CE1      -21.2440   68.6620    9.9420 C.ar  108  TYR108      0.0417
     78  CE2      -22.8590   68.2860    8.1950 C.ar  108  TYR108      0.0417
     79  CZ       -21.8880   69.0750    8.7820 C.ar  108  TYR108      0.1957
     80  OH       -21.5620   70.2770    8.2050 O.3   108  TYR108     -0.2866
     81  N        -14.3350   65.3470   11.9220 N.3   134  ARG134     -0.1245
     82  CA       -13.3910   66.0780   12.7760 C.3   134  ARG134      0.1563
     83  C        -12.6950   65.1510   13.7520 C.2   134  ARG134      0.2260
     84  O        -13.3160   64.2340   14.3030 O.2   134  ARG134     -0.2867
     85  CB       -14.1110   67.1840   13.5510 C.3   134  ARG134      0.0307
     86  CG       -14.6220   68.3310   12.6870 C.3   134  ARG134      0.0489
     87  CD       -15.5660   69.2260   13.4850 C.3   134  ARG134      0.2205
     88  NE       -15.7760   70.5180   12.8420 N.pl3 134  ARG134     -0.0865
     89  CZ       -16.6980   70.7560   11.9080 C.cat 134  ARG134      0.5346
     90  NH1      -17.5230   69.7810   11.4960 N.pl3 134  ARG134      0.1354
     91  NH2      -16.7980   71.9790   11.3850 N.pl3 134  ARG134      0.1354
@<TRIPOS>BOND
     1    72    71    2
     2    67    66   ar
     3    78    76   ar
     4    78    79   ar
     5    80    79    1
     6    71    70    1
     7    76    74   ar
     8    79    77   ar
     9    66    65    1
    10    66    68   ar
    11    65    64    1
    12    74    75   ar
    13    74    73    1
    14    77    75   ar
    15    70    69    1
    16    70    73    1
    17    69    62   am
    18    22    21    1
    19    64    61    1
    20    91    89    1
    21    90    89    1
    22    62    61    1
    23    62    63    2
    24    27    28    1
    25    61    60    1
    26    39    37   ar
    27    39    40   ar
    28    89    88    2
    29    81    82    1
    30    28    29    1
    31    37    36   ar
    32    21    20    1
    33    42    40   ar
    34    42    44   ar
    35    26    25    2
    36    40    38   ar
    37    86    87    1
    38    86    85    1
    39    82    85    1
    40    82    83    1
    41    88    87    1
    42    55    54    2
    43    20    19    1
    44    60    54   am
    45    25    24    1
    46    29    30    2
    47    29    31   am
    48    54    53    1
    49    44    43   ar
    50    36    38   ar
    51    36    35    1
    52    83    84    2
    53    31    32    1
    54    38    41   ar
    55    19    18    1
    56    59    57   am
    57    35    32    1
    58    24    23    1
    59    43    41   ar
    60    18    15    1
    61    23    16   am
    62    32    33    1
    63    53    52    1
    64    53    56    1
    65    34    33    2
    66    57    56    1
    67    57    58    2
    68    16    15    1
    69    16    17    2
    70    33    45   am
    71    15    14    1
    72     1     2    1
    73     2     3    1
    74     2     5    1
    75     3     4    2
    76    45    46    1
    77    14     8   am
    78     9     8    2
    79    46    49    1
    80    46    47    1
    81     8     7    1
    82    49    50    1
    83    49    51    1
    84    47    48    2
    85     7     6    1
    86     7    10    1
    87    11    10    1
    88    11    12    1
    89    11    13    1
