@<TRIPOS>MOLECULE
tmp/2x5dD00.pdb
 160 151 0 0 0
SMALL
GASTEIGER

@<TRIPOS>ATOM
      1  N         14.2700   -3.9790  -18.4720 N.3    25  GLY25      -0.1225
      2  CA        15.4360   -4.7700  -18.1020 C.3    25  GLY25       0.1811
      3  C         15.1880   -5.7600  -16.9790 C.2    25  GLY25       0.2280
      4  O         16.0740   -5.9940  -16.1920 O.2    25  GLY25      -0.2866
      5  N         20.4650   -2.4620   -0.5040 N.3    86  ILE86      -0.1231
      6  CA        19.2830   -3.2490   -0.8550 C.3    86  ILE86       0.1692
      7  C         19.0570   -2.9630   -2.3490 C.2    86  ILE86       0.2593
      8  O         17.9940   -2.5200   -2.7600 O.2    86  ILE86      -0.2718
      9  CB        18.0490   -2.8710    0.0250 C.3    86  ILE86       0.0266
     10  CG1       18.4570   -2.6860    1.4950 C.3    86  ILE86       0.0019
     11  CG2       16.9050   -3.9580   -0.0640 C.3    86  ILE86       0.0020
     12  CD1       17.3050   -2.1980    2.3820 C.3    86  ILE86       0.0001
     13  N         20.0840   -3.2410   -3.1500 N.am   87  GLY87      -0.1942
     14  CA        20.1070   -2.9380   -4.5700 C.3    87  GLY87       0.2014
     15  C         20.6100   -1.5450   -4.8080 C.2    87  GLY87       0.2640
     16  O         20.5640   -0.6980   -3.9190 O.2    87  GLY87      -0.2714
     17  N         21.0590   -1.2920   -6.0270 N.am   88  SER88      -0.1935
     18  CA        21.6510    0.0050   -6.3640 C.3    88  SER88       0.2055
     19  C         20.6900    1.2020   -6.4300 C.2    88  SER88       0.2643
     20  O         21.1040    2.3380   -6.2160 O.2    88  SER88      -0.2714
     21  CB        22.4440   -0.1240   -7.6650 C.3    88  SER88       0.2130
     22  OG        23.6280   -0.8790   -7.4290 O.3    88  SER88      -0.2179
     23  N         19.4160    0.9600   -6.7240 N.am   89  LYS89      -0.1963
     24  CA        18.4370    2.0390   -6.7060 C.3    89  LYS89       0.1728
     25  C         18.2600    2.5980   -5.2970 C.2    89  LYS89       0.2616
     26  O         18.2560    3.8080   -5.1180 O.2    89  LYS89      -0.2715
     27  CB        17.0760    1.5590   -7.2660 C.3    89  LYS89       0.0311
     28  CG        17.1220    1.2310   -8.7480 C.3    89  LYS89       0.0038
     29  CD        15.7880    0.6410   -9.2380 C.3    89  LYS89       0.0206
     30  CE        15.9800   -0.3820  -10.3410 C.3    89  LYS89       0.1093
     31  NZ        14.7360   -0.5540  -11.1860 N.3    89  LYS89      -0.1314
     32  N         18.0880    1.7100   -4.3190 N.am   90  GLU90      -0.1977
     33  CA        18.0790    2.0830   -2.8900 C.3    90  GLU90       0.1602
     34  C         19.3510    2.8330   -2.5120 C.2    90  GLU90       0.2287
     35  O         19.3120    3.9500   -1.9770 O.2    90  GLU90      -0.2864
     36  CB        17.9270    0.8310   -1.9890 C.3    90  GLU90       0.0415
     37  CG        17.9480    1.1030   -0.4590 C.3    90  GLU90       0.1163
     38  CD        19.3620    0.9850    0.1970 C.2    90  GLU90       0.3649
     39  OE1       19.8080    1.9180    0.8970 O.co2  90  GLU90      -0.2457
     40  OE2       20.0260   -0.0380    0.0260 O.co2  90  GLU90      -0.2457
     41  N         21.7650    4.3520   -4.2390 N.3    92  LEU92      -0.1245
     42  CA        21.9080    5.6740   -4.8520 C.3    92  LEU92       0.1561
     43  C         20.9650    6.6660   -4.2120 C.2    92  LEU92       0.2260
     44  O         21.4060    7.6740   -3.6760 O.2    92  LEU92      -0.2867
     45  CB        21.5780    5.6120   -6.3380 C.3    92  LEU92       0.0270
     46  CG        22.6820    5.2140   -7.3030 C.3    92  LEU92       0.0019
     47  CD1       22.0800    4.4350   -8.4610 C.3    92  LEU92       0.0001
     48  CD2       23.4030    6.4700   -7.8000 C.3    92  LEU92       0.0001
     49  N         20.2970    6.5600  -17.8530 N.3   113  TYR113     -0.1241
     50  CA        19.3790    5.7760  -17.0440 C.3   113  TYR113      0.1605
     51  C         18.5860    6.7170  -16.1160 C.2   113  TYR113      0.2264
     52  O         19.1580    7.3810  -15.2770 O.2   113  TYR113     -0.2867
     53  CB        20.2580    4.7830  -16.2570 C.3   113  TYR113      0.0534
     54  CG        19.5360    3.8420  -15.3260 C.ar  113  TYR113     -0.0201
     55  CD1       20.0810    3.5280  -14.0880 C.ar  113  TYR113     -0.0009
     56  CD2       18.3140    3.2790  -15.6710 C.ar  113  TYR113     -0.0009
     57  CE1       19.4360    2.6810  -13.2210 C.ar  113  TYR113      0.0417
     58  CE2       17.6640    2.4250  -14.8110 C.ar  113  TYR113      0.0417
     59  CZ        18.2320    2.1310  -13.5870 C.ar  113  TYR113      0.1957
     60  OH        17.6000    1.2890  -12.7110 O.3   113  TYR113     -0.2866
     61  N         18.9090    7.5470  -11.8980 N.3   116  HIS116     -0.1241
     62  CA        19.9010    8.5020  -11.4140 C.3   116  HIS116      0.1621
     63  C         19.4360    9.9640  -11.3080 C.2   116  HIS116      0.2264
     64  O         20.0890   10.7700  -10.6230 O.2   116  HIS116     -0.2867
     65  CB        21.1180    8.5020  -12.3460 C.3   116  HIS116      0.0745
     66  CG        21.7900    7.1710  -12.4850 C.ar  116  HIS116      0.0817
     67  ND1       22.6000    6.8600  -13.5580 N.ar  116  HIS116     -0.2268
     68  CD2       21.7640    6.0690  -11.7000 C.ar  116  HIS116      0.1154
     69  CE1       23.0500    5.6260  -13.4240 C.ar  116  HIS116      0.1986
     70  NE2       22.5560    5.1220  -12.3050 N.ar  116  HIS116     -0.2212
     71  N         27.7270    5.5590  -15.6640 N.3   159  GLY159     -0.1225
     72  CA        27.3170    4.1680  -15.6060 C.3   159  GLY159      0.1811
     73  C         27.7440    3.4780  -16.8630 C.2   159  GLY159      0.2280
     74  O         27.1110    3.6530  -17.9110 O.2   159  GLY159     -0.2866
     75  N         23.3020    2.0130  -19.7870 N.3   163  ASN163     -0.1240
     76  CA        21.8640    1.9020  -20.1170 C.3   163  ASN163      0.1653
     77  C         21.4590    3.3230  -20.4570 C.2   163  ASN163      0.2266
     78  O         21.6180    4.2070  -19.6110 O.2   163  ASN163     -0.2867
     79  CB        21.1220    1.3890  -18.8870 C.3   163  ASN163      0.1155
     80  CG        19.6020    1.3260  -19.0580 C.2   163  ASN163      0.2627
     81  OD1       19.0400    1.7420  -20.0670 O.2   163  ASN163     -0.2716
     82  ND2       18.9320    0.8050  -18.0360 N.am  163  ASN163     -0.0877
     83  N         28.1420    3.4520  -11.7580 N.3   191  ASP191     -0.1239
     84  CA        27.1930    2.3420  -11.7030 C.3   191  ASP191      0.1674
     85  C         27.6770    1.2010  -12.5950 C.2   191  ASP191      0.2266
     86  O         27.6480    1.3140  -13.8110 O.2   191  ASP191     -0.2867
     87  CB        25.7790    2.8090  -12.1380 C.3   191  ASP191      0.1410
     88  CG        24.7410    1.7370  -11.9750 C.2   191  ASP191      0.3668
     89  OD1       25.1340    0.5580  -12.1080 O.co2 191  ASP191     -0.2456
     90  OD2       23.5220    2.0420  -11.7250 O.co2 191  ASP191     -0.2456
     91  N         26.4570   -1.8910  -12.8760 N.3   193  ALA193     -0.1231
     92  CA        25.4380   -2.9340  -12.9270 C.3   193  ALA193      0.1694
     93  C         25.6340   -3.9670  -14.0300 C.2   193  ALA193      0.2592
     94  O         25.3190   -5.1240  -13.8080 O.2   193  ALA193     -0.2718
     95  CB        24.0530   -2.3270  -13.0140 C.3   193  ALA193      0.0304
     96  N         26.1790   -3.5550  -15.1780 N.am  194  TYR194     -0.1976
     97  CA        26.3490   -4.4240  -16.3410 C.3   194  TYR194      0.1639
     98  C         27.7450   -5.0270  -16.5400 C.2   194  TYR194      0.2290
     99  O         28.0290   -5.5830  -17.6020 O.2   194  TYR194     -0.2864
    100  CB        25.9180   -3.6710  -17.6030 C.3   194  TYR194      0.0560
    101  CG        24.4670   -3.3030  -17.5140 C.ar  194  TYR194     -0.0198
    102  CD1       24.0900   -2.0410  -17.1140 C.ar  194  TYR194     -0.0009
    103  CD2       23.4860   -4.2640  -17.6990 C.ar  194  TYR194     -0.0009
    104  CE1       22.8000   -1.7260  -16.9530 C.ar  194  TYR194      0.0417
    105  CE2       22.1590   -3.9550  -17.5530 C.ar  194  TYR194      0.0417
    106  CZ        21.8430   -2.6800  -17.1780 C.ar  194  TYR194      0.1957
    107  OH        20.5850   -2.3490  -16.9850 O.3   194  TYR194     -0.2866
    108  N         25.1850   -4.0750   -8.4460 N.3   222  THR222     -0.1218
    109  CA        24.0010   -4.8250   -8.0290 C.3   222  THR222      0.1862
    110  C         24.0880   -6.2400   -8.5450 C.2   222  THR222      0.2287
    111  O         24.6240   -6.4890   -9.6190 O.2   222  THR222     -0.2866
    112  CB        22.6550   -4.2320   -8.5010 C.3   222  THR222      0.1770
    113  OG1       21.6180   -5.1490   -8.1560 O.3   222  THR222     -0.2211
    114  CG2       22.5380   -4.0660  -10.0310 C.3   222  THR222      0.0375
    115  N         21.4350   -7.8160   -9.5420 N.3   224  SER224     -0.1202
    116  CA        20.1940   -8.1110  -10.3010 C.3   224  SER224      0.2020
    117  C         20.4660   -8.7790  -11.6610 C.2   224  SER224      0.2618
    118  O         20.0000   -9.8730  -11.9330 O.2   224  SER224     -0.2717
    119  CB        19.3200   -6.8490  -10.4520 C.3   224  SER224      0.2103
    120  OG        18.8360   -6.4790   -9.1700 O.3   224  SER224     -0.2182
    121  N         21.3070   -8.1570  -12.4580 N.am  225  LYS225     -0.1979
    122  CA        21.5690   -8.6200  -13.8090 C.3   225  LYS225      0.1596
    123  C         22.5860   -9.7810  -13.8640 C.2   225  LYS225      0.2287
    124  O         22.4080  -10.7210  -14.6230 O.2   225  LYS225     -0.2864
    125  CB        22.0790   -7.4370  -14.6280 C.3   225  LYS225      0.0298
    126  CG        21.2500   -6.1360  -14.4350 C.3   225  LYS225      0.0038
    127  CD        19.7930   -6.3630  -14.6290 C.3   225  LYS225      0.0206
    128  CE        19.0100   -5.0490  -14.6330 C.3   225  LYS225      0.1093
    129  NZ        19.9480   -3.9020  -14.8100 N.3   225  LYS225     -0.1314
    130  N         16.4200   -7.5980   -4.0700 N.3   233  ARG233     -0.1231
    131  CA        17.3050   -6.4810   -4.3510 C.3   233  ARG233      0.1694
    132  C         18.5060   -6.4780   -3.3830 C.2   233  ARG233      0.2591
    133  O         18.3720   -6.3680   -2.1700 O.2   233  ARG233     -0.2718
    134  CB        16.5400   -5.1670   -4.2570 C.3   233  ARG233      0.0321
    135  CG        15.3140   -5.0680   -5.2060 C.3   233  ARG233      0.0489
    136  CD        15.7000   -4.5950   -6.6320 C.3   233  ARG233      0.2205
    137  NE        14.5260   -4.0060   -7.3170 N.pl3 233  ARG233     -0.0865
    138  CZ        14.4510   -3.7090   -8.6160 C.cat 233  ARG233      0.5346
    139  NH1       15.4740   -3.9380   -9.4340 N.pl3 233  ARG233      0.1354
    140  NH2       13.3100   -3.2000   -9.1170 N.pl3 233  ARG233      0.1354
    141  N         19.6860   -6.6110   -3.9290 N.am  234  ILE234     -0.1980
    142  CA        20.8680   -6.5640   -3.0900 C.3   234  ILE234      0.1595
    143  C         22.0440   -6.1690   -3.9380 C.2   234  ILE234      0.2287
    144  O         22.1360   -6.5190   -5.1070 O.2   234  ILE234     -0.2864
    145  CB        21.0930   -7.9060   -2.3590 C.3   234  ILE234      0.0276
    146  CG1       22.2040   -7.7510   -1.3080 C.3   234  ILE234      0.0022
    147  CG2       21.3380   -9.0180   -3.3810 C.3   234  ILE234      0.0022
    148  CD1       22.3620   -8.9180   -0.3250 C.3   234  ILE234      0.0001
    149  N         21.0790   -4.5080  -23.8530 N.3   310  TYR310     -0.1241
    150  CA        20.3440   -3.5880  -24.7150 C.3   310  TYR310      0.1605
    151  C         20.8970   -3.4240  -26.1360 C.2   310  TYR310      0.2264
    152  O         22.0730   -3.3540  -26.3550 O.2   310  TYR310     -0.2867
    153  CB        20.2980   -2.2350  -24.0270 C.3   310  TYR310      0.0534
    154  CG        19.8260   -2.3330  -22.5850 C.ar  310  TYR310     -0.0201
    155  CD1       18.5450   -2.7610  -22.2770 C.ar  310  TYR310     -0.0009
    156  CD2       20.6700   -2.0190  -21.5440 C.ar  310  TYR310     -0.0009
    157  CE1       18.1170   -2.8800  -20.9430 C.ar  310  TYR310      0.0417
    158  CE2       20.2600   -2.1150  -20.2390 C.ar  310  TYR310      0.0417
    159  CZ        18.9730   -2.5260  -19.9310 C.ar  310  TYR310      0.1957
    160  OH        18.5880   -2.6100  -18.6110 O.3   310  TYR310     -0.2866
@<TRIPOS>BOND
     1   152   151    2
     2   151   150    1
     3   150   153    1
     4   150   149    1
     5   153   154    1
     6   154   155   ar
     7   154   156   ar
     8   155   157   ar
     9   156   158   ar
    10   157   159   ar
    11    77    76    1
    12    77    78    2
    13   158   159   ar
    14    76    75    1
    15    76    79    1
    16    81    80    2
    17   159   160    1
    18    80    79    1
    19    80    82   am
    20     1     2    1
    21     2     3    1
    22    74    73    2
    23    49    50    1
    24   103   105   ar
    25   103   101   ar
    26   100   101    1
    27   100    97    1
    28    99    98    2
    29   105   106   ar
    30   101   102   ar
    31   106   107    1
    32   106   104   ar
    33   102   104   ar
    34    50    53    1
    35    50    51    1
    36     3     4    2
    37    73    72    1
    38    98    97    1
    39    97    96    1
    40    53    54    1
    41    51    52    2
    42    56    54   ar
    43    56    58   ar
    44    71    72    1
    45    54    55   ar
    46    96    93   am
    47    58    59   ar
    48   129   128    1
    49   128   127    1
    50   127   126    1
    51   125   126    1
    52   125   122    1
    53   124   123    2
    54    55    57   ar
    55    93    94    2
    56    93    92    1
    57   123   122    1
    58    86    85    2
    59   122   121    1
    60    59    57   ar
    61    59    60    1
    62    67    69   ar
    63    67    66   ar
    64    69    70   ar
    65    95    92    1
    66    92    91    1
    67    85    84    1
    68    66    65    1
    69    66    68   ar
    70   121   117   am
    71    65    62    1
    72    70    68   ar
    73    87    88    1
    74    87    84    1
    75    89    88   ar
    76    88    90   ar
    77   118   117    2
    78    61    62    1
    79    83    84    1
    80   117   116    1
    81    62    63    1
    82    63    64    2
    83    31    30    1
    84   119   116    1
    85   119   120    1
    86    30    29    1
    87   116   115    1
    88   114   112    1
    89   111   110    2
    90   139   138    1
    91    29    28    1
    92   140   138    1
    93    28    27    1
    94   138   137    2
    95   110   109    1
    96   112   113    1
    97   112   109    1
    98    47    46    1
    99   108   109    1
   100    48    46    1
   101    21    22    1
   102    21    18    1
   103   137   136    1
   104    46    45    1
   105    27    24    1
   106    23    24    1
   107    23    19   am
   108    24    25    1
   109   136   135    1
   110    19    18    1
   111    19    20    2
   112    18    17    1
   113    45    42    1
   114    17    15   am
   115    25    26    2
   116    25    32   am
   117   135   134    1
   118   144   143    2
   119    42    41    1
   120    42    43    1
   121    15    14    1
   122    15    16    2
   123    14    13    1
   124   131   134    1
   125   131   130    1
   126   131   132    1
   127    32    33    1
   128    43    44    2
   129   143   142    1
   130   141   132   am
   131   141   142    1
   132   132   133    2
   133   147   145    1
   134    13     7   am
   135   142   145    1
   136    33    34    1
   137    33    36    1
   138     8     7    2
   139    34    35    2
   140   145   146    1
   141     7     6    1
   142    36    37    1
   143   146   148    1
   144     6     5    1
   145     6     9    1
   146    37    38    1
   147    11     9    1
   148     9    10    1
   149    40    38   ar
   150    38    39   ar
   151    10    12    1
