@<TRIPOS>MOLECULE
tmp/2x5dA00.pdb
 132 129 0 0 0
SMALL
GASTEIGER

@<TRIPOS>ATOM
      1  N         18.1960   -2.3890   22.6520 N.3    24  MET24      -0.1230
      2  CA        17.5280   -2.2500   21.3450 C.3    24  MET24       0.1702
      3  C         16.3870   -3.2630   21.1830 C.2    24  MET24       0.2593
      4  O         16.5810   -4.4570   21.3570 O.2    24  MET24      -0.2718
      5  CB        18.5360   -2.4060   20.2150 C.3    24  MET24       0.0401
      6  CG        18.1940   -1.6520   18.9320 C.3    24  MET24       0.0596
      7  SD        19.5200   -1.8440   17.7240 S.3    24  MET24      -0.1393
      8  CE        20.9530   -1.3050   18.6800 C.3    24  MET24       0.0692
      9  N         15.1910   -2.7880   20.8650 N.am   25  GLY25      -0.1942
     10  CA        13.9890   -3.6200   20.8890 C.3    25  GLY25       0.2014
     11  C         13.8200   -4.6380   19.7630 C.2    25  GLY25       0.2639
     12  O         12.7600   -4.7640   19.2390 O.2    25  GLY25      -0.2714
     13  N         14.8850   -5.3820   19.4490 N.am   26  ASN26      -0.1958
     14  CA        14.9460   -6.3210   18.3070 C.3    26  ASN26       0.1804
     15  C         14.2880   -7.6610   18.6090 C.2    26  ASN26       0.2463
     16  O         14.8470   -8.4320   19.3980 O.2    26  ASN26      -0.2730
     17  CB        16.4390   -6.6370   18.0230 C.3    26  ASN26       0.1195
     18  CG        17.2040   -5.4540   17.4500 C.2    26  ASN26       0.2630
     19  OD1       16.6150   -4.5760   16.8000 O.2    26  ASN26      -0.2716
     20  ND2       18.5280   -5.4370   17.6610 N.am   26  ASN26      -0.0877
     21  N         13.1290   -7.9810   17.9710 N.am   27  PRO27      -0.2727
     22  CA        12.4840   -9.2470   18.3200 C.3    27  PRO27       0.1402
     23  C         13.4440  -10.4120   18.1360 C.2    27  PRO27       0.2269
     24  O         14.0810  -10.4830   17.0920 O.2    27  PRO27      -0.2865
     25  CB        11.3210   -9.3370   17.3170 C.3    27  PRO27       0.0296
     26  CG        11.0960   -7.9230   16.8590 C.3    27  PRO27       0.0237
     27  CD        12.4320   -7.3020   16.8550 C.3    27  PRO27       0.0939
     28  N          8.9900    7.9120   20.1000 N.3   104  TYR104     -0.1228
     29  CA         9.7920    6.9910   19.3250 C.3   104  TYR104      0.1721
     30  C         10.7120    7.7770   18.3970 C.2   104  TYR104      0.2437
     31  O         10.2290    8.4730   17.5190 O.2   104  TYR104     -0.2733
     32  CB         8.8250    6.1030   18.5270 C.3   104  TYR104      0.0547
     33  CG         9.4590    4.9930   17.7210 C.ar  104  TYR104     -0.0200
     34  CD1        9.0080    4.7060   16.4330 C.ar  104  TYR104     -0.0009
     35  CD2       10.4850    4.2210   18.2400 C.ar  104  TYR104     -0.0009
     36  CE1        9.5780    3.6910   15.6810 C.ar  104  TYR104      0.0417
     37  CE2       11.0500    3.2010   17.4970 C.ar  104  TYR104      0.0417
     38  CZ        10.5840    2.9460   16.2200 C.ar  104  TYR104      0.1957
     39  OH        11.1420    1.9350   15.4820 O.3   104  TYR104     -0.2866
     40  N         12.0420    7.6860   18.5940 N.am  105  PRO105     -0.2718
     41  CA        12.9120    8.6430   17.9080 C.3   105  PRO105      0.1535
     42  C         12.9180    8.5520   16.3730 C.2   105  PRO105      0.2598
     43  O         13.3380    9.5050   15.7190 O.2   105  PRO105     -0.2715
     44  CB        14.3160    8.3390   18.4860 C.3   105  PRO105      0.0310
     45  CG        14.2450    7.0000   19.0570 C.3   105  PRO105      0.0237
     46  CD        12.8080    6.6740   19.3420 C.3   105  PRO105      0.0939
     47  N         12.4400    7.4370   15.8170 N.am  106  ILE106     -0.1978
     48  CA        12.5180    7.1730   14.3810 C.3   106  ILE106      0.1596
     49  C         11.5400    8.0240   13.5810 C.2   106  ILE106      0.2287
     50  O         11.8160    8.3720   12.4260 O.2   106  ILE106     -0.2864
     51  CB        12.2730    5.6700   14.0520 C.3   106  ILE106      0.0276
     52  CG1       13.2820    4.7740   14.7920 C.3   106  ILE106      0.0022
     53  CG2       12.3990    5.4120   12.5500 C.3   106  ILE106      0.0022
     54  CD1       14.7290    5.1550   14.5910 C.3   106  ILE106      0.0001
     55  N          6.0860    3.1960   22.1690 N.3   154  ASN154     -0.1240
     56  CA         7.5180    3.0070   22.3860 C.3   154  ASN154      0.1653
     57  C          8.0300    4.3840   22.7730 C.2   154  ASN154      0.2266
     58  O          7.9260    5.3070   21.9700 O.2   154  ASN154     -0.2867
     59  CB         8.1540    2.5470   21.0790 C.3   154  ASN154      0.1155
     60  CG         9.6190    2.2240   21.2140 C.2   154  ASN154      0.2627
     61  OD1       10.2730    2.6190   22.1700 O.2   154  ASN154     -0.2716
     62  ND2       10.1510    1.5120   20.2320 N.am  154  ASN154     -0.0877
     63  N          2.4410   -2.0330   17.5670 N.3   185  TYR185     -0.1241
     64  CA         2.2320   -2.9260   18.7160 C.3   185  TYR185      0.1605
     65  C          0.7430   -3.3400   18.9470 C.2   185  TYR185      0.2264
     66  O          0.3770   -3.7270   20.0460 O.2   185  TYR185     -0.2867
     67  CB         2.8250   -2.2750   19.9790 C.3   185  TYR185      0.0534
     68  CG         4.3530   -2.0600   19.8490 C.ar  185  TYR185     -0.0201
     69  CD1        4.8810   -0.8050   19.6130 C.ar  185  TYR185     -0.0009
     70  CD2        5.2200   -3.1290   19.8640 C.ar  185  TYR185     -0.0009
     71  CE1        6.2430   -0.6120   19.4300 C.ar  185  TYR185      0.0417
     72  CE2        6.5960   -2.9500   19.6730 C.ar  185  TYR185      0.0417
     73  CZ         7.0850   -1.6810   19.4580 C.ar  185  TYR185      0.1957
     74  OH         8.4110   -1.4780   19.2740 O.3   185  TYR185     -0.2866
     75  N          6.4300   -6.8190   11.6060 N.3   215  SER215     -0.1202
     76  CA         7.6260   -7.1200   12.4360 C.3   215  SER215      0.2020
     77  C          7.3820   -7.7270   13.8420 C.2   215  SER215      0.2618
     78  O          7.9260   -8.7790   14.1610 O.2   215  SER215     -0.2717
     79  CB         8.5020   -5.8650   12.5460 C.3   215  SER215      0.2103
     80  OG         9.6250   -6.1270   13.3690 O.3   215  SER215     -0.2182
     81  N          6.5420   -7.0910   14.6500 N.am  216  LYS216     -0.1979
     82  CA         6.3500   -7.4880   16.0490 C.3   216  LYS216      0.1596
     83  C          5.3330   -8.6270   16.2020 C.2   216  LYS216      0.2287
     84  O          5.5470   -9.6100   16.9260 O.2   216  LYS216     -0.2864
     85  CB         5.8590   -6.2920   16.8730 C.3   216  LYS216      0.0298
     86  CG         6.4630   -4.9340   16.5080 C.3   216  LYS216      0.0038
     87  CD         7.9630   -4.9210   16.6870 C.3   216  LYS216      0.0206
     88  CE         8.5560   -3.5890   16.2860 C.3   216  LYS216      0.1093
     89  NZ         9.9870   -3.8100   16.0310 N.3   216  LYS216     -0.1314
     90  N         11.0430   -9.3270   11.8810 N.3   221  ALA221     -0.1231
     91  CA        11.9280   -8.1710   12.0670 C.3   221  ALA221      0.1694
     92  C         12.9730   -8.1580   10.9950 C.2   221  ALA221      0.2592
     93  O         13.6830   -9.1350   10.8180 O.2   221  ALA221     -0.2718
     94  CB        12.6360   -8.2300   13.4370 C.3   221  ALA221      0.0304
     95  N         13.0880   -7.0460   10.2920 N.am  222  GLY222     -0.1957
     96  CA        14.0990   -6.9310    9.2450 C.3   222  GLY222      0.1869
     97  C         13.6030   -7.4130    7.8920 C.2   222  GLY222      0.2309
     98  O         14.4030   -7.4880    6.9580 O.2   222  GLY222     -0.2863
     99  N          7.9860   -3.3590   25.9370 N.3   301  TYR301     -0.1241
    100  CA         8.8030   -2.5520   26.8640 C.3   301  TYR301      0.1605
    101  C          8.2700   -2.3610   28.2710 C.2   301  TYR301      0.2264
    102  O          7.0740   -2.2310   28.4920 O.2   301  TYR301     -0.2867
    103  CB         9.0370   -1.1720   26.2780 C.3   301  TYR301      0.0534
    104  CG         9.3920   -1.2520   24.8290 C.ar  301  TYR301     -0.0201
    105  CD1        8.4440   -0.9750   23.8570 C.ar  301  TYR301     -0.0009
    106  CD2       10.6350   -1.6930   24.4360 C.ar  301  TYR301     -0.0009
    107  CE1        8.7440   -1.1080   22.5160 C.ar  301  TYR301      0.0417
    108  CE2       10.9540   -1.8280   23.1060 C.ar  301  TYR301      0.0417
    109  CZ        10.0160   -1.5090   22.1450 C.ar  301  TYR301      0.1957
    110  OH        10.3120   -1.6510   20.8110 O.3   301  TYR301     -0.2866
    111  N         14.7400    9.2260   24.2300 N.3   336  PHE336     -0.1241
    112  CA        13.3870    9.3860   23.6950 C.3   336  PHE336      0.1605
    113  C         12.8030   10.8080   23.8400 C.2   336  PHE336      0.2264
    114  O         11.6650   11.0330   23.4570 O.2   336  PHE336     -0.2867
    115  CB        12.4630    8.3370   24.3350 C.3   336  PHE336      0.0534
    116  CG        12.9760    6.9280   24.1770 C.ar  336  PHE336     -0.0203
    117  CD1       12.6740    6.1880   23.0400 C.ar  336  PHE336     -0.0042
    118  CD2       13.7990    6.3560   25.1550 C.ar  336  PHE336     -0.0042
    119  CE1       13.1800    4.8830   22.8790 C.ar  336  PHE336     -0.0003
    120  CE2       14.2830    5.0690   25.0230 C.ar  336  PHE336     -0.0003
    121  CZ        14.0320    4.3390   23.8780 C.ar  336  PHE336     -0.0000
    122  N         14.3100    2.3690   29.7010 N.3   345  ARG345     -0.1245
    123  CA        13.4720    1.3680   28.9720 C.3   345  ARG345      0.1563
    124  C         14.1410    0.0030   28.9370 C.2   345  ARG345      0.2260
    125  O         15.2630   -0.1090   28.4920 O.2   345  ARG345     -0.2867
    126  CB        13.2760    1.8010   27.5170 C.3   345  ARG345      0.0307
    127  CG        12.0160    1.2160   26.8560 C.3   345  ARG345      0.0489
    128  CD        12.0070    1.3440   25.3470 C.3   345  ARG345      0.2205
    129  NE        13.1040    0.6090   24.7370 N.pl3 345  ARG345     -0.0865
    130  CZ        13.3950    0.6190   23.4400 C.cat 345  ARG345      0.5346
    131  NH1       14.4630   -0.0480   22.9880 N.pl3 345  ARG345      0.1354
    132  NH2       12.6520    1.3180   22.6020 N.pl3 345  ARG345      0.1354
@<TRIPOS>BOND
     1    98    97    2
     2    97    96    1
     3    96    95    1
     4    95    92   am
     5    93    92    2
     6    92    91    1
     7    75    76    1
     8    90    91    1
     9    91    94    1
    10    50    49    2
    11    76    79    1
    12    76    77    1
    13    79    80    1
    14    53    51    1
    15    49    48    1
    16    77    78    2
    17    77    81   am
    18    51    48    1
    19    51    52    1
    20    48    47    1
    21    54    52    1
    22    81    82    1
    23    39    38    1
    24    36    38   ar
    25    36    34   ar
    26    43    42    2
    27    47    42   am
    28    89    88    1
    29    82    83    1
    30    82    85    1
    31    83    84    2
    32    38    37   ar
    33    88    87    1
    34    42    41    1
    35    34    33   ar
    36    86    87    1
    37    86    85    1
    38    19    18    2
    39    27    26    1
    40    27    21    1
    41    26    25    1
    42    24    23    2
    43    25    22    1
    44    18    20   am
    45    18    17    1
    46    37    35   ar
    47    31    30    2
    48    63    64    1
    49    33    35   ar
    50    33    32    1
    51     7     8    1
    52     7     6    1
    53    41    44    1
    54    41    40    1
    55    21    22    1
    56    21    15   am
    57    17    14    1
    58    23    22    1
    59    14    15    1
    60    14    13    1
    61    30    40   am
    62    30    29    1
    63    44    45    1
    64    32    29    1
    65    40    46    1
    66    15    16    2
    67    64    65    1
    68    64    67    1
    69     6     5    1
    70    65    66    2
    71    45    46    1
    72    12    11    2
    73    74    73    1
    74    29    28    1
    75    71    73   ar
    76    71    69   ar
    77    13    11   am
    78    73    72   ar
    79    69    68   ar
    80    72    70   ar
    81    11    10    1
    82    68    70   ar
    83    68    67    1
    84     5     2    1
    85    62    60   am
    86   110   109    1
    87     9    10    1
    88     9     3   am
    89    59    60    1
    90    59    56    1
    91     3     2    1
    92     3     4    2
    93    60    61    2
    94     2     1    1
    95    58    57    2
    96   109   107   ar
    97   109   108   ar
    98    55    56    1
    99    56    57    1
   100   107   105   ar
   101   132   130    1
   102   119   117   ar
   103   119   121   ar
   104   131   130    1
   105   117   116   ar
   106   108   106   ar
   107   130   129    2
   108   114   113    2
   109   112   113    1
   110   112   111    1
   111   112   115    1
   112   105   104   ar
   113   121   120   ar
   114   116   115    1
   115   116   118   ar
   116   106   104   ar
   117   129   128    1
   118   104   103    1
   119   120   118   ar
   120   128   127    1
   121    99   100    1
   122   103   100    1
   123   127   126    1
   124   100   101    1
   125   126   123    1
   126   101   102    2
   127   125   124    2
   128   124   123    1
   129   123   122    1
