@<TRIPOS>MOLECULE
tmp/2x5fB02.pdb
 122 116 0 0 0
SMALL
GASTEIGER

@<TRIPOS>ATOM
      1  N         31.4070   43.4920  -14.6270 N.3   120  ALA120     -0.1231
      2  CA        32.7430   42.9570  -14.4060 C.3   120  ALA120      0.1694
      3  C         32.7450   41.6060  -13.6430 C.2   120  ALA120      0.2592
      4  O         31.7040   40.9820  -13.4270 O.2   120  ALA120     -0.2718
      5  CB        33.6300   44.0040  -13.7360 C.3   120  ALA120      0.0304
      6  N         33.9240   41.1420  -13.2580 N.am  121  LEU121     -0.1966
      7  CA        34.0660   39.7600  -12.7960 C.3   121  LEU121      0.1728
      8  C         33.4490   39.5350  -11.4320 C.2   121  LEU121      0.2616
      9  O         32.9350   38.4540  -11.1590 O.2   121  LEU121     -0.2715
     10  CB        35.5270   39.3340  -12.8030 C.3   121  LEU121      0.0311
     11  CG        36.0890   38.9980  -14.1890 C.3   121  LEU121      0.0022
     12  CD1       36.4070   40.2850  -14.9900 C.3   121  LEU121      0.0001
     13  CD2       37.3120   38.1090  -14.0070 C.3   121  LEU121      0.0001
     14  N         33.4880   40.5450  -10.5570 N.am  122  THR122     -0.1951
     15  CA        32.8650   40.3850   -9.2580 C.3   122  THR122      0.1897
     16  C         31.3730   40.0600   -9.4070 C.2   122  THR122      0.2313
     17  O         30.8510   39.1830   -8.7170 O.2   122  THR122     -0.2863
     18  CB        33.0620   41.6050   -8.3370 C.3   122  THR122      0.1794
     19  OG1       34.4650   41.8190   -8.1350 O.3   122  THR122     -0.2208
     20  CG2       32.3980   41.3550   -6.9670 C.3   122  THR122      0.0378
     21  N         31.0130   36.5280  -10.3090 N.3   125  LEU125     -0.1245
     22  CA        31.1380   35.6750   -9.1290 C.3   125  LEU125      0.1561
     23  C         29.8420   35.6800   -8.3020 C.2   125  LEU125      0.2260
     24  O         29.3630   34.6190   -7.8680 O.2   125  LEU125     -0.2867
     25  CB        32.3370   36.1270   -8.2920 C.3   125  LEU125      0.0270
     26  CG        33.7190   35.8960   -8.9200 C.3   125  LEU125      0.0019
     27  CD1       34.8190   36.6910   -8.2120 C.3   125  LEU125      0.0001
     28  CD2       34.0400   34.4050   -8.8620 C.3   125  LEU125      0.0001
     29  N         42.1320   35.4600   -3.5420 N.3   146  TRP146     -0.1241
     30  CA        41.6120   36.8140   -3.4070 C.3   146  TRP146      0.1605
     31  C         40.6020   36.8660   -2.2670 C.2   146  TRP146      0.2264
     32  O         39.6270   36.1170   -2.2610 O.2   146  TRP146     -0.2867
     33  CB        40.9430   37.1990   -4.7180 C.3   146  TRP146      0.0550
     34  CG        40.4450   38.5910   -4.7960 C.ar  146  TRP146      0.0003
     35  CD1       41.0720   39.7240   -4.3740 C.ar  146  TRP146      0.0946
     36  CD2       39.2220   39.0030   -5.4020 C.ar  146  TRP146      0.0152
     37  NE1       40.2900   40.8270   -4.6560 N.ar  146  TRP146     -0.2442
     38  CE2       39.1530   40.4040   -5.2970 C.ar  146  TRP146      0.0810
     39  CE3       38.1640   38.3130   -6.0100 C.ar  146  TRP146      0.0012
     40  CZ2       38.0630   41.1380   -5.7680 C.ar  146  TRP146      0.0191
     41  CZ3       37.0830   39.0540   -6.5010 C.ar  146  TRP146      0.0001
     42  CH2       37.0440   40.4450   -6.3660 C.ar  146  TRP146      0.0015
     43  N         36.6740   36.5410   -2.4160 N.3   149  TYR149     -0.1241
     44  CA        35.9450   35.2850   -2.5600 C.3   149  TYR149      0.1605
     45  C         35.1710   34.9540   -1.2800 C.2   149  TYR149      0.2264
     46  O         34.0240   34.5050   -1.3500 O.2   149  TYR149     -0.2867
     47  CB        36.8670   34.1160   -2.8840 C.3   149  TYR149      0.0534
     48  CG        37.5220   34.1500   -4.2400 C.ar  149  TYR149     -0.0201
     49  CD1       36.8170   34.5210   -5.3830 C.ar  149  TYR149     -0.0009
     50  CD2       38.8420   33.7350   -4.3870 C.ar  149  TYR149     -0.0009
     51  CE1       37.4300   34.5230   -6.6180 C.ar  149  TYR149      0.0417
     52  CE2       39.4570   33.7210   -5.6160 C.ar  149  TYR149      0.0417
     53  CZ        38.7530   34.1140   -6.7230 C.ar  149  TYR149      0.1957
     54  OH        39.3820   34.0970   -7.9410 O.3   149  TYR149     -0.2866
     55  N         41.8580   30.2780  -10.4510 N.3   195  ASN195     -0.1240
     56  CA        42.2300   31.6610  -10.7810 C.3   195  ASN195      0.1653
     57  C         43.6950   31.6950  -11.1890 C.2   195  ASN195      0.2266
     58  O         44.5910   31.7100  -10.3370 O.2   195  ASN195     -0.2867
     59  CB        41.9710   32.5750   -9.5830 C.3   195  ASN195      0.1155
     60  CG        42.5160   33.9640   -9.7730 C.2   195  ASN195      0.2627
     61  OD1       43.2140   34.4850   -8.8990 O.2   195  ASN195     -0.2716
     62  ND2       42.2020   34.5890  -10.9190 N.am  195  ASN195     -0.0877
     63  N         45.9560   35.6900   -8.2180 N.3   199  ASN199     -0.1240
     64  CA        46.0710   36.7040   -7.1880 C.3   199  ASN199      0.1653
     65  C         46.1160   35.8650   -5.9060 C.2   199  ASN199      0.2266
     66  O         45.1410   35.1650   -5.5890 O.2   199  ASN199     -0.2867
     67  CB        44.8610   37.6330   -7.2400 C.3   199  ASN199      0.1155
     68  CG        44.8660   38.6940   -6.1410 C.2   199  ASN199      0.2627
     69  OD1       45.7200   38.6950   -5.2600 O.2   199  ASN199     -0.2716
     70  ND2       43.8920   39.5970   -6.1920 N.am  199  ASN199     -0.0877
     71  N         38.1390   31.9430  -12.9660 N.3   232  ASP232     -0.1239
     72  CA        38.2610   33.3710  -12.7680 C.3   232  ASP232      0.1674
     73  C         39.4270   33.8460  -13.6170 C.2   232  ASP232      0.2266
     74  O         40.5860   33.7260  -13.2170 O.2   232  ASP232     -0.2867
     75  CB        38.4910   33.6830  -11.2700 C.3   232  ASP232      0.1410
     76  CG        38.5880   35.1690  -10.9770 C.2   232  ASP232      0.3668
     77  OD1       38.8780   35.9550  -11.9070 O.co2 232  ASP232     -0.2456
     78  OD2       38.3730   35.5650   -9.7970 O.co2 232  ASP232     -0.2456
     79  N         40.4170   36.8890  -14.4780 N.3   234  ALA234     -0.1231
     80  CA        40.7290   38.3130  -14.2710 C.3   234  ALA234      0.1694
     81  C         42.0100   38.7840  -14.9700 C.2   234  ALA234      0.2592
     82  O         42.0250   39.8480  -15.5790 O.2   234  ALA234     -0.2718
     83  CB        40.8180   38.6130  -12.7850 C.3   234  ALA234      0.0304
     84  N         43.0800   37.9940  -14.8820 N.am  235  TYR235     -0.1976
     85  CA        44.3910   38.3890  -15.4280 C.3   235  TYR235      0.1639
     86  C         44.7290   37.6410  -16.7050 C.2   235  TYR235      0.2290
     87  O         45.8980   37.5690  -17.1010 O.2   235  TYR235     -0.2864
     88  CB        45.5000   38.1910  -14.3830 C.3   235  TYR235      0.0560
     89  CG        45.1880   38.9010  -13.0870 C.ar  235  TYR235     -0.0198
     90  CD1       45.5740   40.2190  -12.8780 C.ar  235  TYR235     -0.0009
     91  CD2       44.4610   38.2650  -12.0950 C.ar  235  TYR235     -0.0009
     92  CE1       45.2660   40.8690  -11.6670 C.ar  235  TYR235      0.0417
     93  CE2       44.1490   38.8990  -10.9060 C.ar  235  TYR235      0.0417
     94  CZ        44.5450   40.2000  -10.7050 C.ar  235  TYR235      0.1957
     95  OH        44.2000   40.8160   -9.5320 O.3   235  TYR235     -0.2866
     96  N         38.1930   44.4450  -17.4410 N.3   269  THR269     -0.1203
     97  CA        38.8030   45.0000  -16.2380 C.3   269  THR269      0.1994
     98  C         40.3180   45.1190  -16.2960 C.2   269  THR269      0.2617
     99  O         40.8700   46.2270  -16.2210 O.2   269  THR269     -0.2717
    100  CB        38.3880   44.1750  -15.0090 C.3   269  THR269      0.1784
    101  OG1       36.9590   44.0900  -14.9800 O.3   269  THR269     -0.2211
    102  CG2       38.8960   44.8070  -13.7160 C.3   269  THR269      0.0376
    103  N         40.9970   43.9870  -16.4290 N.am  270  LYS270     -0.1979
    104  CA        42.4550   43.9900  -16.4880 C.3   270  LYS270      0.1596
    105  C         42.9900   43.7440  -17.9040 C.2   270  LYS270      0.2287
    106  O         43.9950   44.3310  -18.2900 O.2   270  LYS270     -0.2864
    107  CB        43.0100   43.0020  -15.4730 C.3   270  LYS270      0.0298
    108  CG        42.8670   43.5300  -14.0540 C.3   270  LYS270      0.0038
    109  CD        42.6040   42.4820  -13.0570 C.3   270  LYS270      0.0206
    110  CE        42.3530   43.0730  -11.6930 C.3   270  LYS270      0.1093
    111  NZ        41.3770   42.2590  -10.9610 N.3   270  LYS270     -0.1314
    112  N         33.5830   48.3760  -15.6400 N.3   278  ARG278     -0.1245
    113  CA        32.6200   47.3890  -15.1360 C.3   278  ARG278      0.1563
    114  C         31.9430   46.6070  -16.2690 C.2   278  ARG278      0.2260
    115  O         30.7190   46.4690  -16.3110 O.2   278  ARG278     -0.2867
    116  CB        31.5900   48.0240  -14.1980 C.3   278  ARG278      0.0307
    117  CG        32.1800   49.0230  -13.1750 C.3   278  ARG278      0.0489
    118  CD        33.4160   48.5000  -12.4620 C.3   278  ARG278      0.2205
    119  NE        33.1290   47.2750  -11.7280 N.pl3 278  ARG278     -0.0865
    120  CZ        34.0360   46.3860  -11.3410 C.cat 278  ARG278      0.5346
    121  NH1       33.6590   45.3050  -10.6610 N.pl3 278  ARG278      0.1354
    122  NH2       35.3150   46.5700  -11.6060 N.pl3 278  ARG278      0.1354
@<TRIPOS>BOND
     1   106   105    2
     2   105   104    1
     3    96    97    1
     4    87    86    2
     5    86    85    1
     6   104   103    1
     7   104   107    1
     8   103    98   am
     9   115   114    2
    10    98    97    1
    11    98    99    2
    12   114   113    1
    13    97   100    1
    14   112   113    1
    15    82    81    2
    16   107   108    1
    17    85    84    1
    18    85    88    1
    19   113   116    1
    20   100   101    1
    21   100   102    1
    22    12    11    1
    23    81    84   am
    24    81    80    1
    25     1     2    1
    26    79    80    1
    27     2     5    1
    28     2     3    1
    29    88    89    1
    30    80    83    1
    31   116   117    1
    32    11    13    1
    33    11    10    1
    34   108   109    1
    35     3     4    2
    36     3     6   am
    37    73    74    2
    38    73    72    1
    39     6     7    1
    40   117   118    1
    41    89    90   ar
    42    89    91   ar
    43   109   110    1
    44    71    72    1
    45    90    92   ar
    46    10     7    1
    47     7     8    1
    48    72    75    1
    49   118   119    1
    50    91    93   ar
    51    77    76   ar
    52   119   120    2
    53   110   111    1
    54    92    94   ar
    55   122   120    1
    56     8     9    2
    57     8    14   am
    58   120   121    1
    59    75    76    1
    60    57    56    1
    61    57    58    2
    62    76    78   ar
    63    62    60   am
    64    93    94   ar
    65    56    55    1
    66    56    59    1
    67    94    95    1
    68    14    15    1
    69    21    22    1
    70    60    59    1
    71    60    61    2
    72    16    15    1
    73    16    17    2
    74    15    18    1
    75    22    23    1
    76    22    25    1
    77    26    28    1
    78    26    25    1
    79    26    27    1
    80    18    19    1
    81    18    20    1
    82    23    24    2
    83    63    64    1
    84    54    53    1
    85    67    64    1
    86    67    68    1
    87    64    65    1
    88    53    51   ar
    89    53    52   ar
    90    51    49   ar
    91    41    42   ar
    92    41    39   ar
    93    42    40   ar
    94    70    68   am
    95    68    69    2
    96    39    36   ar
    97    65    66    2
    98    40    38   ar
    99    52    50   ar
   100    36    38   ar
   101    36    34   ar
   102    49    48   ar
   103    38    37   ar
   104    34    33    1
   105    34    35   ar
   106    33    30    1
   107    37    35   ar
   108    50    48   ar
   109    48    47    1
   110    29    30    1
   111    30    31    1
   112    47    44    1
   113    44    43    1
   114    44    45    1
   115    31    32    2
   116    46    45    2
