@<TRIPOS>MOLECULE
tmp/2x5fB01.pdb
 93 90 0 0 0
SMALL
GASTEIGER

@<TRIPOS>ATOM
      1  N         14.6920   17.7910  -17.9610 N.3    15  GLN15      -0.1231
      2  CA        14.5830   16.8140  -19.0420 C.3    15  GLN15       0.1698
      3  C         15.8940   16.7400  -19.8260 C.2    15  GLN15       0.2593
      4  O         16.3520   15.6500  -20.1730 O.2    15  GLN15      -0.2718
      5  CB        13.4240   17.1830  -19.9780 C.3    15  GLN15       0.0381
      6  CG        13.2070   16.2190  -21.1490 C.3    15  GLN15       0.0905
      7  CD        12.4060   14.9890  -20.7720 C.2    15  GLN15       0.2608
      8  OE1       11.2290   15.0830  -20.4350 O.2    15  GLN15      -0.2717
      9  NE2       13.0310   13.8260  -20.8580 N.am   15  GLN15      -0.0878
     10  N         16.4890   17.9020  -20.0900 N.am   16  SER16      -0.1938
     11  CA        17.6450   18.0120  -20.9760 C.3    16  SER16       0.2055
     12  C         18.9800   17.8580  -20.2520 C.2    16  SER16       0.2643
     13  O         19.9490   17.3820  -20.8320 O.2    16  SER16      -0.2714
     14  CB        17.6260   19.3700  -21.6960 C.3    16  SER16       0.2130
     15  OG        18.3250   19.2690  -22.9240 O.3    16  SER16      -0.2179
     16  N         19.0390   18.2840  -18.9950 N.am   17  ASN17      -0.1957
     17  CA        20.2970   18.3010  -18.2540 C.3    17  ASN17       0.1819
     18  C         20.0120   18.2500  -16.7620 C.2    17  ASN17       0.2621
     19  O         20.1140   19.2490  -16.0700 O.2    17  ASN17      -0.2715
     20  CB        21.1060   19.5590  -18.6130 C.3    17  ASN17       0.1195
     21  CG        22.5690   19.4660  -18.1950 C.2    17  ASN17       0.2630
     22  OD1       22.9430   18.6740  -17.3150 O.2    17  ASN17      -0.2716
     23  ND2       23.4100   20.2770  -18.8350 N.am   17  ASN17      -0.0877
     24  N         19.6340   17.0700  -16.2870 N.am   18  ALA18      -0.1977
     25  CA        19.2120   16.9030  -14.8990 C.3    18  ALA18       0.1597
     26  C         20.3010   17.3150  -13.9150 C.2    18  ALA18       0.2287
     27  O         20.0050   17.8620  -12.8520 O.2    18  ALA18      -0.2864
     28  CB        18.7990   15.4710  -14.6430 C.3    18  ALA18       0.0319
     29  N         33.9260   17.2100  -21.6710 N.3   256  HIS256     -0.1226
     30  CA        32.5940   16.7040  -22.0220 C.3   256  HIS256      0.1752
     31  C         32.0070   15.7760  -20.9430 C.2   256  HIS256      0.2597
     32  O         31.6240   14.6480  -21.2180 O.2   256  HIS256     -0.2718
     33  CB        32.6240   16.0010  -23.3900 C.3   256  HIS256      0.0759
     34  CG        33.0060   16.9090  -24.5150 C.ar  256  HIS256      0.0818
     35  ND1       32.1950   17.9340  -24.9450 N.ar  256  HIS256     -0.2268
     36  CD2       34.1170   16.9560  -25.2870 C.ar  256  HIS256      0.1154
     37  CE1       32.7910   18.5760  -25.9340 C.ar  256  HIS256      0.1986
     38  NE2       33.9550   17.9990  -26.1650 N.ar  256  HIS256     -0.2212
     39  N         31.9440   16.2720  -19.7090 N.am  257  SER257     -0.1938
     40  CA        31.2890   15.5650  -18.6080 C.3   257  SER257      0.2055
     41  C         30.0450   16.3500  -18.2530 C.2   257  SER257      0.2643
     42  O         30.1500   17.5350  -18.0510 O.2   257  SER257     -0.2714
     43  CB        32.2320   15.5260  -17.3980 C.3   257  SER257      0.2130
     44  OG        31.5490   15.2340  -16.1920 O.3   257  SER257     -0.2179
     45  N         28.8680   15.7220  -18.1510 N.am  258  ASN258     -0.1971
     46  CA        27.7000   16.5110  -17.7210 C.3   258  ASN258      0.1688
     47  C         27.7120   16.7950  -16.2160 C.2   258  ASN258      0.2292
     48  O         26.9250   17.6050  -15.7350 O.2   258  ASN258     -0.2864
     49  CB        26.3630   15.9030  -18.1640 C.3   258  ASN258      0.1181
     50  CG        25.8150   14.8700  -17.1930 C.2   258  ASN258      0.2629
     51  OD1       26.5610   14.1190  -16.5560 O.2   258  ASN258     -0.2716
     52  ND2       24.4860   14.8250  -17.0790 N.am  258  ASN258     -0.0877
     53  N         30.3680   18.1660  -14.7540 N.3   260  ILE260     -0.1231
     54  CA        31.2160   19.3440  -14.5690 C.3   260  ILE260      0.1692
     55  C         30.5950   20.4660  -15.3850 C.2   260  ILE260      0.2591
     56  O         30.4060   20.3110  -16.5860 O.2   260  ILE260     -0.2718
     57  CB        32.6570   19.1450  -15.0800 C.3   260  ILE260      0.0266
     58  CG1       33.3330   17.9600  -14.3970 C.3   260  ILE260      0.0019
     59  CG2       33.4980   20.4100  -14.8640 C.3   260  ILE260      0.0020
     60  CD1       34.5920   17.5130  -15.1170 C.3   260  ILE260      0.0001
     61  N         30.2670   21.5720  -14.7300 N.am  261  LEU261     -0.1980
     62  CA        29.8260   22.7890  -15.4250 C.3   261  LEU261      0.1596
     63  C         30.8970   23.8680  -15.2900 C.2   261  LEU261      0.2287
     64  O         30.9860   24.5390  -14.2710 O.2   261  LEU261     -0.2864
     65  CB        28.4890   23.2830  -14.8790 C.3   261  LEU261      0.0297
     66  CG        27.9280   24.5660  -15.5000 C.3   261  LEU261      0.0022
     67  CD1       27.6490   24.4040  -16.9940 C.3   261  LEU261      0.0001
     68  CD2       26.6580   24.9350  -14.7630 C.3   261  LEU261      0.0001
     69  N         30.1240   26.3090  -20.0270 N.3   285  GLY285     -0.1210
     70  CA        30.6630   25.2250  -20.8490 C.3   285  GLY285      0.1956
     71  C         29.6510   24.1020  -20.9360 C.2   285  GLY285      0.2613
     72  O         29.5280   23.2730  -20.0300 O.2   285  GLY285     -0.2717
     73  N         28.8960   24.1010  -22.0240 N.am  286  THR286     -0.1938
     74  CA        27.8780   23.1040  -22.2760 C.3   286  THR286      0.2028
     75  C         27.6250   23.0480  -23.7710 C.2   286  THR286      0.2643
     76  O         27.7770   24.0560  -24.4700 O.2   286  THR286     -0.2714
     77  CB        26.5540   23.3820  -21.4950 C.3   286  THR286      0.1808
     78  OG1       25.5940   22.3500  -21.7750 O.3   286  THR286     -0.2208
     79  CG2       25.9530   24.7370  -21.8550 C.3   286  THR286      0.0379
     80  N         27.2920   21.8650  -24.2630 N.am  287  SER287     -0.1935
     81  CA        26.9400   21.6790  -25.6750 C.3   287  SER287      0.2055
     82  C         25.4250   21.5480  -25.8410 C.2   287  SER287      0.2643
     83  O         24.9260   21.3450  -26.9440 O.2   287  SER287     -0.2714
     84  CB        27.6840   20.4770  -26.2610 C.3   287  SER287      0.2130
     85  OG        27.1630   19.2380  -25.8040 O.3   287  SER287     -0.2179
     86  N         24.6900   21.7050  -24.7440 N.am  288  ASP288     -0.1971
     87  CA        23.2620   21.4680  -24.7530 C.3   288  ASP288      0.1709
     88  C         22.4940   22.7660  -24.9170 C.2   288  ASP288      0.2293
     89  O         22.5910   23.6700  -24.0700 O.2   288  ASP288     -0.2864
     90  CB        22.8330   20.7510  -23.4730 C.3   288  ASP288      0.1436
     91  CG        21.3610   20.4430  -23.4570 C.2   288  ASP288      0.3671
     92  OD1       20.9010   19.7250  -24.3600 O.co2 288  ASP288     -0.2456
     93  OD2       20.6540   20.9500  -22.5590 O.co2 288  ASP288     -0.2456
@<TRIPOS>BOND
     1    83    82    2
     2    84    85    1
     3    84    81    1
     4    38    37   ar
     5    38    36   ar
     6    37    35   ar
     7    82    81    1
     8    82    86   am
     9    81    80    1
    10    36    34   ar
    11    35    34   ar
    12    88    87    1
    13    88    89    2
    14    87    86    1
    15    87    90    1
    16    34    33    1
    17    76    75    2
    18    92    91   ar
    19    80    75   am
    20    75    74    1
    21    90    91    1
    22    91    93   ar
    23    33    30    1
    24    15    14    1
    25    74    73    1
    26    74    77    1
    27    73    71   am
    28    30    29    1
    29    30    31    1
    30    79    77    1
    31    78    77    1
    32    14    11    1
    33    32    31    2
    34     6     7    1
    35     6     5    1
    36    11    12    1
    37    11    10    1
    38    31    39   am
    39    71    70    1
    40    71    72    2
    41     9     7   am
    42    70    69    1
    43    13    12    2
    44     7     8    2
    45    12    16   am
    46     4     3    2
    47    10     3   am
    48     5     2    1
    49     3     2    1
    50    39    40    1
    51     2     1    1
    52    16    17    1
    53    23    21   am
    54    20    17    1
    55    20    21    1
    56    40    41    1
    57    40    43    1
    58    17    18    1
    59    41    45   am
    60    41    42    2
    61    21    22    2
    62    49    46    1
    63    49    50    1
    64    45    46    1
    65    46    47    1
    66    43    44    1
    67    50    52   am
    68    50    51    2
    69    67    66    1
    70    18    24   am
    71    18    19    2
    72    56    55    2
    73    24    25    1
    74    47    48    2
    75    66    65    1
    76    66    68    1
    77    62    63    1
    78    62    65    1
    79    62    61    1
    80    55    61   am
    81    55    54    1
    82    63    64    2
    83    60    58    1
    84    57    59    1
    85    57    54    1
    86    57    58    1
    87    25    28    1
    88    25    26    1
    89    53    54    1
    90    26    27    2
