@<TRIPOS>MOLECULE
tmp/2x5iA00.pdb
 208 199 0 0 0
SMALL
GASTEIGER

@<TRIPOS>ATOM
      1  N        110.7210   28.2380  -81.9600 N.3    83  TRP83      -0.1241
      2  CA       110.2970   26.8520  -82.0850 C.3    83  TRP83       0.1605
      3  C        108.8170   26.6870  -82.3920 C.2    83  TRP83       0.2264
      4  O        107.9610   27.2020  -81.6740 O.2    83  TRP83      -0.2867
      5  CB       110.6450   26.0930  -80.7990 C.3    83  TRP83       0.0550
      6  CG       110.0940   24.6990  -80.7340 C.ar   83  TRP83       0.0003
      7  CD1      110.1680   23.7410  -81.7040 C.ar   83  TRP83       0.0946
      8  CD2      109.4110   24.0960  -79.6270 C.ar   83  TRP83       0.0152
      9  NE1      109.5740   22.5790  -81.2710 N.ar   83  TRP83      -0.2442
     10  CE2      109.1020   22.7690  -79.9990 C.ar   83  TRP83       0.0810
     11  CE3      109.0320   24.5490  -78.3550 C.ar   83  TRP83       0.0012
     12  CZ2      108.4300   21.8860  -79.1440 C.ar   83  TRP83       0.0191
     13  CZ3      108.3630   23.6710  -77.5040 C.ar   83  TRP83       0.0001
     14  CH2      108.0700   22.3540  -77.9050 C.ar   83  TRP83       0.0015
     15  N        106.1660   24.6850  -81.9180 N.3    85  ILE85      -0.1231
     16  CA       105.7090   23.6390  -81.0140 C.3    85  ILE85       0.1692
     17  C        105.0830   22.4000  -81.6510 C.2    85  ILE85       0.2592
     18  O        104.1930   22.4950  -82.4970 O.2    85  ILE85      -0.2718
     19  CB       104.7120   24.2210  -79.9990 C.3    85  ILE85       0.0266
     20  CG1      105.3010   25.4890  -79.3770 C.3    85  ILE85       0.0019
     21  CG2      104.4100   23.1930  -78.9200 C.3    85  ILE85       0.0020
     22  CD1      104.3440   26.2460  -78.4910 C.3    85  ILE85       0.0001
     23  N        105.5700   21.2410  -81.2160 N.am   86  ASN86      -0.1960
     24  CA       105.1010   19.9320  -81.6670 C.3    86  ASN86       0.1819
     25  C        105.9760   18.8800  -80.9900 C.2    86  ASN86       0.2621
     26  O        107.0800   19.1870  -80.5360 O.2    86  ASN86      -0.2715
     27  CB       105.2000   19.7990  -83.1940 C.3    86  ASN86       0.1195
     28  CG       106.6180   19.5400  -83.6760 C.2    86  ASN86       0.2630
     29  OD1      107.2260   18.5220  -83.3450 O.2    86  ASN86      -0.2716
     30  ND2      107.1470   20.4610  -84.4720 N.am   86  ASN86      -0.0877
     31  N        105.4880   17.6470  -80.9160 N.am   87  ALA87      -0.1977
     32  CA       106.2460   16.5730  -80.2810 C.3    87  ALA87       0.1597
     33  C        106.6460   15.4940  -81.2820 C.2    87  ALA87       0.2287
     34  O        106.5010   14.3020  -81.0110 O.2    87  ALA87      -0.2864
     35  CB       105.4240   15.9600  -79.1520 C.3    87  ALA87       0.0319
     36  N        102.8740    8.6420  -78.0390 N.3    97  PHE97      -0.1241
     37  CA       101.6980    9.3620  -78.5080 C.3    97  PHE97       0.1605
     38  C        101.0980    8.6860  -79.7320 C.2    97  PHE97       0.2264
     39  O         99.8760    8.6310  -79.8840 O.2    97  PHE97      -0.2867
     40  CB       102.0560   10.8090  -78.8640 C.3    97  PHE97       0.0534
     41  CG       102.1560   11.7270  -77.6770 C.ar   97  PHE97      -0.0203
     42  CD1      102.3680   13.0890  -77.8610 C.ar   97  PHE97      -0.0042
     43  CD2      102.0260   11.2390  -76.3790 C.ar   97  PHE97      -0.0042
     44  CE1      102.4480   13.9540  -76.7730 C.ar   97  PHE97      -0.0003
     45  CE2      102.1050   12.0960  -75.2830 C.ar   97  PHE97      -0.0003
     46  CZ       102.3150   13.4560  -75.4810 C.ar   97  PHE97      -0.0000
     47  N         94.0440   12.0700  -79.2740 N.3   103  MET103     -0.1245
     48  CA        94.3400   12.3090  -77.8680 C.3   103  MET103      0.1570
     49  C         93.6830   13.5800  -77.3530 C.2   103  MET103      0.2261
     50  O         93.4780   14.5320  -78.1010 O.2   103  MET103     -0.2867
     51  CB        95.8470   12.4320  -77.6570 C.3   103  MET103      0.0387
     52  CG        96.6580   11.2520  -78.1380 C.3   103  MET103      0.0595
     53  SD        98.4130   11.5720  -77.9150 S.3   103  MET103     -0.1393
     54  CE        98.6520   10.9280  -76.2710 C.3   103  MET103      0.0692
     55  N         93.8490   15.9480  -73.6280 N.3   105  PHE105     -0.1241
     56  CA        94.3950   16.0990  -72.2880 C.3   105  PHE105      0.1605
     57  C         94.9680   17.4840  -72.0290 C.2   105  PHE105      0.2264
     58  O         95.2150   18.2580  -72.9560 O.2   105  PHE105     -0.2867
     59  CB        95.5010   15.0640  -72.0760 C.3   105  PHE105      0.0534
     60  CG        96.5610   15.0850  -73.1490 C.ar  105  PHE105     -0.0203
     61  CD1       97.3780   16.2000  -73.3220 C.ar  105  PHE105     -0.0042
     62  CD2       96.7240   13.9990  -74.0040 C.ar  105  PHE105     -0.0042
     63  CE1       98.3390   16.2340  -74.3310 C.ar  105  PHE105     -0.0003
     64  CE2       97.6840   14.0250  -75.0170 C.ar  105  PHE105     -0.0003
     65  CZ        98.4910   15.1460  -75.1800 C.ar  105  PHE105     -0.0000
     66  N         98.1120   19.6760  -70.0680 N.3   107  MET107     -0.1245
     67  CA        99.5300   19.3590  -70.0520 C.3   107  MET107      0.1570
     68  C        100.3830   20.2350  -69.1500 C.2   107  MET107      0.2261
     69  O        100.1590   21.4380  -69.0280 O.2   107  MET107     -0.2867
     70  CB       100.0700   19.4020  -71.4800 C.3   107  MET107      0.0387
     71  CG       101.4770   18.8680  -71.6360 C.3   107  MET107      0.0595
     72  SD       101.8960   18.6650  -73.3740 S.3   107  MET107     -0.1393
     73  CE       102.2480   20.3650  -73.8240 C.3   107  MET107      0.0692
     74  N        104.0040   21.7060  -68.5960 N.3   109  ILE109     -0.1245
     75  CA       105.2360   21.9920  -69.3180 C.3   109  ILE109      0.1561
     76  C        106.3370   22.5030  -68.3970 C.2   109  ILE109      0.2260
     77  O        106.1650   23.5030  -67.7000 O.2   109  ILE109     -0.2867
     78  CB       104.9920   23.0320  -70.4290 C.3   109  ILE109      0.0252
     79  CG1      103.9090   22.5200  -71.3810 C.3   109  ILE109      0.0019
     80  CG2      106.2830   23.2950  -71.1880 C.3   109  ILE109      0.0019
     81  CD1      103.5520   23.4870  -72.4860 C.3   109  ILE109      0.0001
     82  N        110.5740   23.5260  -68.0440 N.3   111  PHE111     -0.1241
     83  CA       111.7420   23.9650  -68.8000 C.3   111  PHE111      0.1605
     84  C        113.0330   23.8130  -68.0080 C.2   111  PHE111      0.2264
     85  O        113.1270   24.2590  -66.8640 O.2   111  PHE111     -0.2867
     86  CB       111.5890   25.4330  -69.2020 C.3   111  PHE111      0.0534
     87  CG       110.3980   25.7070  -70.0680 C.ar  111  PHE111     -0.0203
     88  CD1      110.3080   25.1630  -71.3440 C.ar  111  PHE111     -0.0042
     89  CD2      109.3690   26.5240  -69.6130 C.ar  111  PHE111     -0.0042
     90  CE1      109.2110   25.4300  -72.1570 C.ar  111  PHE111     -0.0003
     91  CE2      108.2680   26.7980  -70.4170 C.ar  111  PHE111     -0.0003
     92  CZ       108.1890   26.2500  -71.6920 C.ar  111  PHE111     -0.0000
     93  N        105.3280   32.4220  -75.2130 N.3   136  TYR136     -0.1241
     94  CA       104.5250   31.6050  -76.1090 C.3   136  TYR136      0.1605
     95  C        103.7540   32.5160  -77.0540 C.2   136  TYR136      0.2264
     96  O        103.1020   33.4650  -76.6190 O.2   136  TYR136     -0.2867
     97  CB       103.5460   30.7420  -75.3120 C.3   136  TYR136      0.0534
     98  CG       102.5090   30.0530  -76.1700 C.ar  136  TYR136     -0.0201
     99  CD1      102.8870   29.1570  -77.1710 C.ar  136  TYR136     -0.0009
    100  CD2      101.1510   30.3080  -75.9940 C.ar  136  TYR136     -0.0009
    101  CE1      101.9350   28.5350  -77.9760 C.ar  136  TYR136      0.0417
    102  CE2      100.1920   29.6920  -76.7930 C.ar  136  TYR136      0.0417
    103  CZ       100.5910   28.8070  -77.7820 C.ar  136  TYR136      0.1957
    104  OH        99.6470   28.2050  -78.5800 O.3   136  TYR136     -0.2866
    105  N        101.3110   34.6790  -73.0980 N.3   158  PRO158     -0.2116
    106  CA       101.8520   34.1520  -71.8420 C.3   158  PRO158      0.1372
    107  C        103.3770   34.0860  -71.9030 C.2   158  PRO158      0.2244
    108  O        103.9470   33.6580  -72.9070 O.2   158  PRO158     -0.2868
    109  CB       101.2040   32.7730  -71.7430 C.3   158  PRO158      0.0268
    110  CG       101.0510   32.3740  -73.1790 C.3   158  PRO158      0.0207
    111  CD       100.5450   33.6470  -73.8180 C.3   158  PRO158      0.0892
    112  N        104.4700   25.2870  -65.7800 N.3   171  MET171     -0.1245
    113  CA       103.1340   25.8530  -65.9120 C.3   171  MET171      0.1570
    114  C        102.2430   24.9310  -66.7340 C.2   171  MET171      0.2261
    115  O        102.6970   24.3080  -67.6940 O.2   171  MET171     -0.2867
    116  CB       103.2130   27.2430  -66.5500 C.3   171  MET171      0.0387
    117  CG       104.2320   27.3580  -67.6670 C.3   171  MET171      0.0595
    118  SD       103.6760   26.6900  -69.2350 S.3   171  MET171     -0.1393
    119  CE       103.5360   28.2070  -70.1900 C.3   171  MET171      0.0692
    120  N         98.7810   23.9270  -69.1030 N.3   173  ILE173     -0.1245
    121  CA        97.9830   24.4510  -70.2010 C.3   173  ILE173      0.1561
    122  C         96.8390   23.4740  -70.4470 C.2   173  ILE173      0.2260
    123  O         97.0090   22.2620  -70.3150 O.2   173  ILE173     -0.2867
    124  CB        98.8070   24.5860  -71.4980 C.3   173  ILE173      0.0252
    125  CG1       99.2880   23.2070  -71.9540 C.3   173  ILE173      0.0019
    126  CG2       99.9860   25.5200  -71.2710 C.3   173  ILE173      0.0019
    127  CD1       99.9750   23.2110  -73.2970 C.3   173  ILE173      0.0001
    128  N         94.1760   22.8140  -75.9130 N.3   176  ILE176     -0.1245
    129  CA        94.1740   23.8380  -76.9560 C.3   176  ILE176      0.1561
    130  C         93.4890   23.4870  -78.2780 C.2   176  ILE176      0.2260
    131  O         92.7830   24.3200  -78.8480 O.2   176  ILE176     -0.2867
    132  CB        95.6240   24.2990  -77.2660 C.3   176  ILE176      0.0252
    133  CG1       96.1580   25.1560  -76.1170 C.3   176  ILE176      0.0019
    134  CG2       95.6630   25.0920  -78.5660 C.3   176  ILE176      0.0019
    135  CD1       96.2930   24.4230  -74.8040 C.3   176  ILE176      0.0001
    136  N         93.2100   16.0200  -80.0380 N.3   182  TYR182     -0.1227
    137  CA        94.4500   16.1830  -80.7880 C.3   182  TYR182      0.1736
    138  C         94.5310   15.0190  -81.7670 C.2   182  TYR182      0.2596
    139  O         94.0840   13.9130  -81.4630 O.2   182  TYR182     -0.2718
    140  CB        95.6700   16.1320  -79.8640 C.3   182  TYR182      0.0548
    141  CG        95.8430   17.3250  -78.9510 C.ar  182  TYR182     -0.0200
    142  CD1       95.8880   18.6210  -79.4620 C.ar  182  TYR182     -0.0009
    143  CD2       96.0000   17.1540  -77.5750 C.ar  182  TYR182     -0.0009
    144  CE1       96.0870   19.7190  -78.6260 C.ar  182  TYR182      0.0417
    145  CE2       96.2010   18.2430  -76.7300 C.ar  182  TYR182      0.0417
    146  CZ        96.2430   19.5230  -77.2610 C.ar  182  TYR182      0.1957
    147  OH        96.4440   20.6020  -76.4290 O.3   182  TYR182     -0.2866
    148  N         95.1040   15.2640  -82.9370 N.am  183  SER183     -0.1938
    149  CA        95.2290   14.2180  -83.9400 C.3   183  SER183      0.2055
    150  C         96.7000   13.8920  -84.1840 C.2   183  SER183      0.2643
    151  O         97.4840   14.7670  -84.5510 O.2   183  SER183     -0.2714
    152  CB        94.5620   14.6700  -85.2430 C.3   183  SER183      0.2130
    153  OG        94.4830   13.6070  -86.1770 O.3   183  SER183     -0.2179
    154  N         97.0760   12.6360  -83.9630 N.am  184  ASN184     -0.1971
    155  CA        98.4550   12.2070  -84.1740 C.3   184  ASN184      0.1688
    156  C         98.6580   11.8100  -85.6290 C.2   184  ASN184      0.2292
    157  O         99.7760   11.8440  -86.1420 O.2   184  ASN184     -0.2864
    158  CB        98.8020   11.0120  -83.2790 C.3   184  ASN184      0.1181
    159  CG        98.7540   11.3500  -81.8040 C.2   184  ASN184      0.2629
    160  OD1       99.3750   12.3120  -81.3520 O.2   184  ASN184     -0.2716
    161  ND2       98.0200   10.5500  -81.0420 N.am  184  ASN184     -0.0877
    162  N        100.0910   15.3470  -90.3380 N.3   200  TYR200     -0.1241
    163  CA       100.1100   16.1660  -89.1290 C.3   200  TYR200      0.1605
    164  C        100.1580   17.6710  -89.3830 C.2   200  TYR200      0.2264
    165  O         99.2150   18.3940  -89.0600 O.2   200  TYR200     -0.2867
    166  CB       101.3090   15.7690  -88.2670 C.3   200  TYR200      0.0534
    167  CG       101.3150   16.3760  -86.8830 C.ar  200  TYR200     -0.0201
    168  CD1      100.6340   15.7670  -85.8300 C.ar  200  TYR200     -0.0009
    169  CD2      102.0210   17.5500  -86.6200 C.ar  200  TYR200     -0.0009
    170  CE1      100.6600   16.3090  -84.5450 C.ar  200  TYR200      0.0417
    171  CE2      102.0530   18.1020  -85.3410 C.ar  200  TYR200      0.0417
    172  CZ       101.3730   17.4750  -84.3070 C.ar  200  TYR200      0.1957
    173  OH       101.4160   18.0090  -83.0380 O.3   200  TYR200     -0.2866
    174  N         97.6290   20.5080  -87.4540 N.3   204  ASN204     -0.1240
    175  CA        98.1400   20.9000  -86.1440 C.3   204  ASN204      0.1653
    176  C         98.8800   22.2290  -86.2220 C.2   204  ASN204      0.2266
    177  O         99.6810   22.4550  -87.1280 O.2   204  ASN204     -0.2867
    178  CB        99.0750   19.8290  -85.5750 C.3   204  ASN204      0.1155
    179  CG        98.3400   18.5640  -85.1690 C.2   204  ASN204      0.2627
    180  OD1       97.9100   17.7820  -86.0160 O.2   204  ASN204     -0.2716
    181  ND2       98.1890   18.3600  -83.8630 N.am  204  ASN204     -0.0877
    182  N        100.0500   24.5490  -82.9330 N.3   206  MET206     -0.1245
    183  CA       100.0460   24.9760  -81.5390 C.3   206  MET206      0.1570
    184  C        100.7740   26.3000  -81.3300 C.2   206  MET206      0.2261
    185  O        100.9420   26.7480  -80.1970 O.2   206  MET206     -0.2867
    186  CB       100.6900   23.9000  -80.6580 C.3   206  MET206      0.0387
    187  CG       100.2570   22.4730  -80.9800 C.3   206  MET206      0.0595
    188  SD        98.4760   22.2940  -81.2100 S.3   206  MET206     -0.1393
    189  CE        97.8860   22.5150  -79.5290 C.3   206  MET206      0.0692
    190  N        107.2030   29.1090  -79.7720 N.3   209  LEU209     -0.1245
    191  CA       107.7470   29.4280  -78.4600 C.3   209  LEU209      0.1561
    192  C        109.1220   30.0660  -78.6270 C.2   209  LEU209      0.2260
    193  O        109.9870   29.5160  -79.3070 O.2   209  LEU209     -0.2867
    194  CB       107.8620   28.1550  -77.6180 C.3   209  LEU209      0.0270
    195  CG       108.2690   28.3150  -76.1510 C.3   209  LEU209      0.0019
    196  CD1      107.2310   29.1540  -75.4210 C.3   209  LEU209      0.0001
    197  CD2      108.3950   26.9460  -75.5030 C.3   209  LEU209      0.0001
    198  N        107.2550   17.8080  -71.8230 N.3   230  PHE230     -0.1241
    199  CA       105.8040   17.6920  -71.8490 C.3   230  PHE230      0.1605
    200  C        105.3550   16.5540  -70.9450 C.2   230  PHE230      0.2264
    201  O        105.9800   15.4930  -70.9090 O.2   230  PHE230     -0.2867
    202  CB       105.3060   17.4300  -73.2740 C.3   230  PHE230      0.0534
    203  CG       105.2970   18.6480  -74.1590 C.ar  230  PHE230     -0.0203
    204  CD1      104.8120   18.5640  -75.4630 C.ar  230  PHE230     -0.0042
    205  CD2      105.7560   19.8780  -73.6950 C.ar  230  PHE230     -0.0042
    206  CE1      104.7840   19.6860  -76.2910 C.ar  230  PHE230     -0.0003
    207  CE2      105.7320   21.0070  -74.5150 C.ar  230  PHE230     -0.0003
    208  CZ       105.2440   20.9090  -75.8160 C.ar  230  PHE230     -0.0000
@<TRIPOS>BOND
     1   162   163    1
     2   164   163    1
     3   164   165    2
     4   163   166    1
     5   166   167    1
     6   174   175    1
     7   177   176    2
     8   167   169   ar
     9   167   168   ar
    10   169   171   ar
    11   176   175    1
    12   153   152    1
    13   175   178    1
    14   157   156    2
    15   180   179    2
    16   168   170   ar
    17   156   155    1
    18   178   179    1
    19   171   172   ar
    20   152   149    1
    21   179   181   am
    22   151   150    2
    23   170   172   ar
    24    30    28   am
    25   172   173    1
    26   150   154   am
    27   150   149    1
    28   155   154    1
    29   155   158    1
    30   149   148    1
    31    28    29    2
    32    28    27    1
    33   158   159    1
    34    27    24    1
    35   148   138   am
    36   182   183    1
    37    18    17    2
    38     3     2    1
    39     3     4    2
    40     2     1    1
    41     2     5    1
    42    15    16    1
    43   159   160    2
    44   159   161   am
    45   138   139    2
    46   138   137    1
    47     7     9   ar
    48     7     6   ar
    49    24    23    1
    50    24    25    1
    51    17    23   am
    52    17    16    1
    53   183   184    1
    54   183   186    1
    55   184   185    2
    56    33    34    2
    57    33    32    1
    58     9    10   ar
    59   188   187    1
    60   188   189    1
    61    16    19    1
    62    25    31   am
    63    25    26    2
    64   187   186    1
    65    31    32    1
    66     5     6    1
    67   137   136    1
    68   137   140    1
    69     6     8   ar
    70    32    35    1
    71    10     8   ar
    72    10    12   ar
    73    19    20    1
    74    19    21    1
    75    39    38    2
    76   140   141    1
    77   190   191    1
    78    38    37    1
    79     8    11   ar
    80   142   141   ar
    81   142   144   ar
    82    20    22    1
    83   193   192    2
    84    47    48    1
    85    12    14   ar
    86   141   143   ar
    87    40    37    1
    88    40    41    1
    89   131   130    2
    90   192   191    1
    91   144   146   ar
    92   104   103    1
    93   134   132    1
    94    37    36    1
    95   191   194    1
    96    11    13   ar
    97   130   129    1
    98    52    53    1
    99    52    51    1
   100    50    49    2
   101   101   103   ar
   102   101    99   ar
   103    53    54    1
   104    14    13   ar
   105    48    51    1
   106    48    49    1
   107    42    41   ar
   108    42    44   ar
   109   103   102   ar
   110    41    43   ar
   111   194   195    1
   112   143   145   ar
   113   132   129    1
   114   132   133    1
   115   146   145   ar
   116   146   147    1
   117    99    98   ar
   118    95    96    2
   119    95    94    1
   120   129   128    1
   121   102   100   ar
   122    44    46   ar
   123    43    45   ar
   124   206   208   ar
   125   206   204   ar
   126    98   100   ar
   127    98    97    1
   128   195   197    1
   129   195   196    1
   130   133   135    1
   131    94    97    1
   132    94    93    1
   133   208   207   ar
   134    46    45   ar
   135   204   203   ar
   136    65    64   ar
   137    65    63   ar
   138    64    62   ar
   139   207   205   ar
   140    63    61   ar
   141   203   205   ar
   142   203   202    1
   143    62    60   ar
   144    73    72    1
   145   111   110    1
   146   111   105    1
   147    55    56    1
   148    72    71    1
   149    61    60   ar
   150   127   125    1
   151   202   199    1
   152   110   109    1
   153    60    59    1
   154   105   106    1
   155    58    57    2
   156   108   107    2
   157    81    79    1
   158    56    59    1
   159    56    57    1
   160    90    92   ar
   161    90    88   ar
   162   125   124    1
   163   107   106    1
   164   199   198    1
   165   199   200    1
   166   106   109    1
   167    92    91   ar
   168    71    70    1
   169   124   126    1
   170   124   121    1
   171    70    67    1
   172    79    78    1
   173    88    87   ar
   174    80    78    1
   175   200   201    2
   176   122   123    2
   177   122   121    1
   178    78    75    1
   179    91    89   ar
   180   121   120    1
   181   119   118    1
   182    66    67    1
   183    87    89   ar
   184    87    86    1
   185    67    68    1
   186    75    74    1
   187    75    76    1
   188   118   117    1
   189    86    83    1
   190    68    69    2
   191    83    82    1
   192    83    84    1
   193    76    77    2
   194    84    85    2
   195   115   114    2
   196   117   116    1
   197   114   113    1
   198   116   113    1
   199   113   112    1
