@<TRIPOS>MOLECULE
tmp/2x5oA00.pdb
 188 179 0 0 0
SMALL
GASTEIGER

@<TRIPOS>ATOM
      1  N        -25.3120   34.7580   16.4460 N.3    11  ILE11      -0.1231
      2  CA       -24.7250   34.7390   17.7970 C.3    11  ILE11       0.1692
      3  C        -23.2190   34.8500   17.6510 C.2    11  ILE11       0.2593
      4  O        -22.5830   34.0070   16.9860 O.2    11  ILE11      -0.2718
      5  CB       -24.9580   33.4050   18.5120 C.3    11  ILE11       0.0266
      6  CG1      -26.4590   33.1020   18.5640 C.3    11  ILE11       0.0019
      7  CG2      -24.3320   33.4450   19.9430 C.3    11  ILE11       0.0020
      8  CD1      -26.7340   31.7740   19.1880 C.3    11  ILE11       0.0001
      9  N        -22.6690   35.9490   18.1950 N.am   12  GLY12      -0.1942
     10  CA       -21.2050   36.1640   18.1500 C.3    12  GLY12       0.2014
     11  C        -20.8680   37.2200   17.1340 C.2    12  GLY12       0.2638
     12  O        -21.2190   37.1230   15.9500 O.2    12  GLY12      -0.2714
     13  N        -20.1950   38.2570   17.5970 N.am   13  LEU13      -0.1977
     14  CA       -19.8420   39.3570   16.7030 C.3    13  LEU13       0.1596
     15  C        -18.4110   39.1460   16.2010 C.2    13  LEU13       0.2287
     16  O        -18.1500   38.1190   15.5560 O.2    13  LEU13      -0.2864
     17  CB       -20.0740   40.7100   17.3920 C.3    13  LEU13       0.0297
     18  CG       -20.1270   41.8330   16.3510 C.3    13  LEU13       0.0022
     19  CD1      -21.1270   41.6070   15.2250 C.3    13  LEU13       0.0001
     20  CD2      -20.4240   43.1200   17.0210 C.3    13  LEU13       0.0001
     21  N        -24.6430   38.4600   21.5970 N.3    35  ASP35      -0.1225
     22  CA       -23.3220   38.0000   22.0000 C.3    35  ASP35       0.1805
     23  C        -23.3250   37.9730   23.5060 C.2    35  ASP35       0.2598
     24  O        -23.7950   38.9200   24.1270 O.2    35  ASP35      -0.2718
     25  CB       -22.2670   38.9650   21.4210 C.3    35  ASP35       0.1424
     26  CG       -20.8260   38.4270   21.5170 C.2    35  ASP35       0.3668
     27  OD1      -20.3590   38.1210   22.6290 O.co2  35  ASP35      -0.2456
     28  OD2      -20.1500   38.4190   20.4880 O.co2  35  ASP35      -0.2456
     29  N        -22.8320   36.9090   24.1160 N.am   36  THR36      -0.1939
     30  CA       -22.8480   36.8280   25.5720 C.3    36  THR36       0.2028
     31  C        -21.8940   37.8120   26.2260 C.2    36  THR36       0.2642
     32  O        -21.9860   38.0390   27.4010 O.2    36  THR36      -0.2714
     33  CB       -22.6000   35.4040   26.1360 C.3    36  THR36       0.1808
     34  OG1      -21.2320   35.0400   25.9080 O.3    36  THR36      -0.2208
     35  CG2      -23.5940   34.3850   25.5260 C.3    36  THR36       0.0379
     36  N        -20.9290   38.3200   25.4640 N.am   37  ARG37      -0.1977
     37  CA       -19.9880   39.3350   26.0070 C.3    37  ARG37       0.1597
     38  C        -20.6550   40.7400   26.0710 C.2    37  ARG37       0.2287
     39  O        -21.4210   41.0770   25.1810 O.2    37  ARG37      -0.2864
     40  CB       -18.7210   39.3470   25.1530 C.3    37  ARG37       0.0334
     41  CG       -18.0350   37.9450   25.0780 C.3    37  ARG37       0.0492
     42  CD       -16.9340   37.8770   24.0210 C.3    37  ARG37       0.2205
     43  NE       -17.4740   37.7950   22.6660 N.pl3  37  ARG37      -0.0865
     44  CZ       -16.7490   37.6160   21.5540 C.cat  37  ARG37       0.5346
     45  NH1      -15.4230   37.4450   21.6040 N.pl3  37  ARG37       0.1354
     46  NH2      -17.3410   37.6420   20.3880 N.pl3  37  ARG37       0.1354
     47  N        -21.6650   31.4380   15.9740 N.3    71  SER71      -0.1203
     48  CA       -20.2130   31.4860   15.9480 C.3    71  SER71       0.2005
     49  C        -19.6250   30.1700   16.4380 C.2    71  SER71       0.2461
     50  O        -20.1470   29.5680   17.3700 O.2    71  SER71      -0.2732
     51  CB       -19.7650   32.5990   16.9090 C.3    71  SER71       0.2103
     52  OG       -18.3630   32.5960   17.0430 O.3    71  SER71      -0.2182
     53  N        -18.4730   29.7840   15.8930 N.am   72  PRO72      -0.2717
     54  CA       -17.7870   28.6360   16.4890 C.3    72  PRO72       0.1536
     55  C        -17.3370   28.8960   17.9160 C.2    72  PRO72       0.2599
     56  O        -16.9640   27.9730   18.6140 O.2    72  PRO72      -0.2715
     57  CB       -16.5740   28.4090   15.5550 C.3    72  PRO72       0.0310
     58  CG       -16.3380   29.7760   14.8960 C.3    72  PRO72       0.0237
     59  CD       -17.7300   30.3470   14.7340 C.3    72  PRO72       0.0939
     60  N        -17.3700   30.1530   18.3470 N.am   73  GLY73      -0.1941
     61  CA       -16.8950   30.4280   19.7000 C.3    73  GLY73       0.2014
     62  C        -17.9590   30.2210   20.7850 C.2    73  GLY73       0.2638
     63  O        -17.6120   30.1970   21.9650 O.2    73  GLY73      -0.2714
     64  N        -19.1630   29.9020   20.3820 N.am   74  ILE74      -0.1977
     65  CA       -20.2530   29.5930   21.3490 C.3    74  ILE74       0.1596
     66  C        -20.5890   28.1010   21.3060 C.2    74  ILE74       0.2287
     67  O        -20.6310   27.4960   20.2370 O.2    74  ILE74      -0.2864
     68  CB       -21.5180   30.4550   21.1180 C.3    74  ILE74       0.0276
     69  CG1      -22.5370   30.2420   22.2570 C.3    74  ILE74       0.0022
     70  CG2      -22.2330   30.0580   19.8370 C.3    74  ILE74       0.0022
     71  CD1      -22.7270   31.4380   23.1500 C.3    74  ILE74       0.0001
     72  N        -10.8930   29.8130    9.0100 N.3   138  ASN138     -0.1240
     73  CA       -10.4860   29.9310   10.3810 C.3   138  ASN138      0.1653
     74  C         -9.2230   30.7400   10.5820 C.2   138  ASN138      0.2266
     75  O         -9.0800   31.3930   11.6530 O.2   138  ASN138     -0.2867
     76  CB       -10.4490   28.5490   11.0500 C.3   138  ASN138      0.1155
     77  CG       -10.5100   28.6730   12.5330 C.2   138  ASN138      0.2627
     78  OD1      -11.3690   29.4250   13.0440 O.2   138  ASN138     -0.2716
     79  ND2       -9.5160   28.1160   13.2240 N.am  138  ASN138     -0.0877
     80  N        -12.0990   24.5900   11.7290 N.3   159  SER159     -0.1217
     81  CA       -11.9250   24.0230   13.0630 C.3   159  SER159      0.1889
     82  C        -12.9730   22.9690   13.3470 C.2   159  SER159      0.2288
     83  O        -14.0000   22.9190   12.6590 O.2   159  SER159     -0.2866
     84  CB       -12.1020   25.1120   14.1190 C.3   159  SER159      0.2089
     85  OG       -13.4410   25.6650   14.1170 O.3   159  SER159     -0.2183
     86  N        -15.0450   23.1180   15.6490 N.3   161  PHE161     -0.1241
     87  CA       -16.2660   23.8450   16.0030 C.3   161  PHE161      0.1605
     88  C        -17.0230   24.2980   14.7690 C.2   161  PHE161      0.2264
     89  O        -18.2610   24.1980   14.7060 O.2   161  PHE161     -0.2867
     90  CB       -15.9380   25.0460   16.9170 C.3   161  PHE161      0.0534
     91  CG       -15.1230   24.6540   18.1190 C.ar  161  PHE161     -0.0203
     92  CD1      -15.6820   23.8370   19.1080 C.ar  161  PHE161     -0.0042
     93  CD2      -13.8170   25.0440   18.2130 C.ar  161  PHE161     -0.0042
     94  CE1      -14.9410   23.5080   20.2610 C.ar  161  PHE161     -0.0003
     95  CE2      -13.0480   24.6290   19.3040 C.ar  161  PHE161     -0.0003
     96  CZ       -13.6220   23.8650   20.3100 C.ar  161  PHE161     -0.0000
     97  N         -7.2640   18.0460   22.5070 N.3   182  ASP182     -0.1225
     98  CA        -7.4030   19.4970   22.5190 C.3   182  ASP182      0.1805
     99  C         -8.8630   19.8480   22.8170 C.2   182  ASP182      0.2597
    100  O         -9.7780   19.0280   22.5820 O.2   182  ASP182     -0.2718
    101  CB        -6.8570   20.1320   21.2160 C.3   182  ASP182      0.1424
    102  CG        -6.5520   21.6460   21.3490 C.2   182  ASP182      0.3668
    103  OD1       -6.7580   22.2230   22.4130 O.co2 182  ASP182     -0.2456
    104  OD2       -6.2280   22.2310   20.2590 O.co2 182  ASP182     -0.2456
    105  N         -9.0990   21.0490   23.3090 N.am  183  HIS183     -0.1975
    106  CA       -10.4880   21.5460   23.4400 C.3   183  HIS183      0.1656
    107  C        -11.3410   20.6550   24.3270 C.2   183  HIS183      0.2291
    108  O        -12.5600   20.6790   24.1880 O.2   183  HIS183     -0.2864
    109  CB       -11.1500   21.7410   22.0560 C.3   183  HIS183      0.0771
    110  CG       -10.3910   22.6820   21.1880 C.ar  183  HIS183      0.0820
    111  ND1      -10.2200   24.0110   21.5190 N.ar  183  HIS183     -0.2267
    112  CD2       -9.7920   22.4910   19.9970 C.ar  183  HIS183      0.1154
    113  CE1       -9.5030   24.5880   20.5600 C.ar  183  HIS183      0.1986
    114  NE2       -9.1810   23.6800   19.6580 N.ar  183  HIS183     -0.2212
    115  N        -14.5380   21.9280   25.8230 N.3   186  ARG186     -0.1245
    116  CA       -15.6860   22.0780   24.9250 C.3   186  ARG186      0.1563
    117  C        -16.2030   20.7210   24.4210 C.2   186  ARG186      0.2260
    118  O        -17.1770   20.6740   23.7090 O.2   186  ARG186     -0.2867
    119  CB       -15.3590   23.0280   23.7730 C.3   186  ARG186      0.0307
    120  CG       -15.2900   24.4480   24.3650 C.3   186  ARG186      0.0489
    121  CD       -15.3250   25.4390   23.2870 C.3   186  ARG186      0.2205
    122  NE       -16.5850   25.4320   22.5260 N.pl3 186  ARG186     -0.0865
    123  CZ       -16.7480   26.1880   21.4360 C.cat 186  ARG186      0.5346
    124  NH1      -15.7700   26.9660   21.0570 N.pl3 186  ARG186      0.1354
    125  NH2      -17.8000   26.0570   20.6670 N.pl3 186  ARG186      0.1354
    126  N          2.2220   29.6880   18.5430 N.3   318  LYS318     -0.1197
    127  CA         1.0790   28.9730   17.9030 C.3   318  LYS318      0.1778
    128  C          0.8700   27.6090   18.5980 C.2   318  LYS318      0.2305
    129  O         -0.1560   26.9700   18.3740 O.2   318  LYS318     -0.2863
    130  CB         1.3070   28.8120   16.3860 C.2   318  LYS318     -0.0042
    131  CG         0.0350   28.7000   15.4600 C.2   318  LYS318     -0.0273
    132  CD        -1.3560   28.6520   16.1120 C.3   318  LYS318      0.0462
    133  CE        -2.4670   28.7110   15.0090 C.3   318  LYS318      0.1140
    134  NZ        -3.8680   28.2140   15.3830 N.3   318  LYS318     -0.1310
    135  N         -0.6770   25.8560   20.9650 N.3   320  THR320     -0.1218
    136  CA        -1.7610   26.0470   21.9250 C.3   320  THR320      0.1862
    137  C         -2.2710   24.7230   22.4810 C.2   320  THR320      0.2287
    138  O         -3.2680   24.6940   23.1830 O.2   320  THR320     -0.2866
    139  CB        -2.9020   26.8170   21.2540 C.3   320  THR320      0.1770
    140  OG1       -3.2550   26.0970   20.0620 O.3   320  THR320     -0.2211
    141  CG2       -2.4180   28.2590   20.8600 C.3   320  THR320      0.0375
    142  N         -7.0390   24.1480   28.8760 N.3   347  LYS347     -0.1245
    143  CA        -8.2860   23.5450   28.3340 C.3   347  LYS347      0.1561
    144  C         -8.4530   22.1180   28.8260 C.2   347  LYS347      0.2260
    145  O         -9.0250   21.2550   28.1310 O.2   347  LYS347     -0.2867
    146  CB        -8.2800   23.5770   26.8030 C.3   347  LYS347      0.0271
    147  CG        -8.2650   24.9910   26.2360 C.3   347  LYS347      0.0035
    148  CD        -7.9540   25.0060   24.7290 C.3   347  LYS347      0.0206
    149  CE        -6.4620   24.9340   24.5330 C.3   347  LYS347      0.1093
    150  NZ        -6.1640   24.9150   23.0920 N.3   347  LYS347     -0.1314
    151  N         -3.8850   27.5420   25.3800 N.3   413  ALA413     -0.1231
    152  CA        -4.4340   28.7950   24.8600 C.3   413  ALA413      0.1694
    153  C         -3.8900   29.9950   25.6330 C.2   413  ALA413      0.2593
    154  O         -3.5410   29.8940   26.7920 O.2   413  ALA413     -0.2718
    155  CB        -5.9600   28.7810   24.9320 C.3   413  ALA413      0.0304
    156  N         -3.8740   31.1280   24.9510 N.am  414  SER414     -0.1938
    157  CA        -3.3880   32.3880   25.5110 C.3   414  SER414      0.2055
    158  C         -4.4960   33.2490   26.1130 C.2   414  SER414      0.2642
    159  O         -4.2150   34.2700   26.7490 O.2   414  SER414     -0.2714
    160  CB        -2.6660   33.2160   24.4410 C.3   414  SER414      0.2130
    161  OG        -3.6230   33.7140   23.5330 O.3   414  SER414     -0.2179
    162  N         -5.7250   32.7540   26.0360 N.am  415  LEU415     -0.1977
    163  CA        -6.9020   33.6120   26.1640 C.3   415  LEU415      0.1596
    164  C         -7.1920   34.0810   27.5860 C.2   415  LEU415      0.2287
    165  O         -7.9400   35.0470   27.7770 O.2   415  LEU415     -0.2864
    166  CB        -8.1310   32.9510   25.5390 C.3   415  LEU415      0.0297
    167  CG        -8.0270   32.6220   24.0300 C.3   415  LEU415      0.0022
    168  CD1       -9.2780   31.9210   23.4280 C.3   415  LEU415      0.0001
    169  CD2       -7.5460   33.8070   23.1840 C.3   415  LEU415      0.0001
    170  N         -5.0330   36.7690   21.8610 N.3   420  ASN420     -0.1225
    171  CA        -4.8530   35.6000   20.9880 C.3   420  ASN420      0.1785
    172  C         -3.3800   35.2820   20.9680 C.2   420  ASN420      0.2597
    173  O         -2.5710   36.0360   21.5390 O.2   420  ASN420     -0.2718
    174  CB        -5.3350   35.9290   19.5600 C.3   420  ASN420      0.1169
    175  CG        -4.8200   37.2600   19.0490 C.2   420  ASN420      0.2627
    176  OD1       -3.6460   37.5840   19.1810 O.2   420  ASN420     -0.2716
    177  ND2       -5.6740   37.9780   18.3440 N.am  420  ASN420     -0.0877
    178  N         -3.0240   34.1460   20.3560 N.am  421  PHE421     -0.1976
    179  CA        -1.6640   33.6690   20.4850 C.3   421  PHE421      0.1639
    180  C         -0.7280   34.5800   19.7040 C.2   421  PHE421      0.2290
    181  O          0.4580   34.6250   19.9980 O.2   421  PHE421     -0.2864
    182  CB        -1.5030   32.2170   19.9760 C.3   421  PHE421      0.0560
    183  CG        -1.6690   32.0900   18.4690 C.ar  421  PHE421     -0.0200
    184  CD1       -0.5840   32.2470   17.6090 C.ar  421  PHE421     -0.0042
    185  CD2       -2.9400   31.8220   17.9110 C.ar  421  PHE421     -0.0042
    186  CE1       -0.7550   32.1810   16.2210 C.ar  421  PHE421     -0.0003
    187  CE2       -3.1520   31.7930   16.5140 C.ar  421  PHE421     -0.0003
    188  CZ        -2.0350   31.9420   15.6520 C.ar  421  PHE421     -0.0000
@<TRIPOS>BOND
     1    72    73    1
     2    73    74    1
     3    73    76    1
     4    74    75    2
     5    76    77    1
     6    80    81    1
     7    77    78    2
     8    77    79   am
     9    83    82    2
    10    81    82    1
    11    81    84    1
    12    85    84    1
    13    89    88    2
    14    59    58    1
    15    59    53    1
    16    88    87    1
    17    58    57    1
    18   133   134    1
    19   133   132    1
    20    19    18    1
    21   131   132    1
    22   131   130    2
    23    57    54    1
    24    16    15    2
    25    86    87    1
    26   188   186   ar
    27   188   187   ar
    28    53    49   am
    29    53    54    1
    30    48    47    1
    31    48    49    1
    32    48    51    1
    33    12    11    2
    34    87    90    1
    35    15    14    1
    36   186   184   ar
    37    18    20    1
    38    18    17    1
    39   130   127    1
    40    49    50    2
    41     1     2    1
    42    54    55    1
    43   187   185   ar
    44    14    17    1
    45    14    13    1
    46    51    52    1
    47    90    91    1
    48     4     3    2
    49    11    13   am
    50    11    10    1
    51   184   183   ar
    52     3     2    1
    53     3     9   am
    54     2     5    1
    55   127   126    1
    56   127   128    1
    57   185   183   ar
    58    55    60   am
    59    55    56    2
    60    91    93   ar
    61    91    92   ar
    62    10     9    1
    63    93    95   ar
    64   177   175   am
    65    60    61    1
    66   129   128    2
    67   183   182    1
    68     5     6    1
    69     5     7    1
    70     6     8    1
    71   175   176    2
    72   175   174    1
    73    92    94   ar
    74    95    96   ar
    75   174   171    1
    76   114   112   ar
    77   114   113   ar
    78    61    62    1
    79   180   181    2
    80   180   179    1
    81    70    68    1
    82   182   179    1
    83   112   110   ar
    84   140   139    1
    85    67    66    2
    86   104   102   ar
    87    94    96   ar
    88   178   179    1
    89   178   172   am
    90    64    62   am
    91    64    65    1
    92    46    44    1
    93    28    26   ar
    94   113   111   ar
    95   125   123    1
    96    62    63    2
    97   141   139    1
    98   135   136    1
    99   172   171    1
   100   172   173    2
   101   171   170    1
   102   124   123    1
   103    68    65    1
   104    68    69    1
   105   110   111   ar
   106   110   109    1
   107   101   102    1
   108   101    98    1
   109   139   136    1
   110    66    65    1
   111   102   103   ar
   112    25    26    1
   113    25    22    1
   114   123   122    2
   115    26    27   ar
   116    44    45    1
   117    44    43    2
   118    21    22    1
   119   136   137    1
   120    22    23    1
   121   109   106    1
   122    69    71    1
   123   137   138    2
   124    97    98    1
   125    98    99    1
   126   122   121    1
   127   100    99    2
   128    43    42    1
   129    99   105   am
   130   150   149    1
   131   169   167    1
   132   121   120    1
   133   105   106    1
   134   168   167    1
   135   106   107    1
   136    23    29   am
   137    23    24    2
   138   161   160    1
   139   118   117    2
   140   119   120    1
   141   119   116    1
   142    42    41    1
   143   167   166    1
   144    29    30    1
   145   108   107    2
   146   117   116    1
   147   160   157    1
   148   149   148    1
   149   148   147    1
   150   152   155    1
   151   152   151    1
   152   152   153    1
   153   116   115    1
   154   156   157    1
   155   156   153   am
   156    41    40    1
   157    40    37    1
   158    39    38    2
   159    36    37    1
   160    36    31   am
   161   157   158    1
   162    35    33    1
   163   166   163    1
   164    30    33    1
   165    30    31    1
   166   153   154    2
   167    34    33    1
   168    37    38    1
   169   162   158   am
   170   162   163    1
   171   158   159    2
   172   163   164    1
   173    31    32    2
   174   147   146    1
   175   146   143    1
   176   164   165    2
   177   145   144    2
   178   143   144    1
   179   143   142    1
