@<TRIPOS>MOLECULE
tmp/2x5tA00.pdb
 84 81 0 0 0
SMALL
GASTEIGER

@<TRIPOS>ATOM
      1  N         31.1710  -22.9290   16.6500 N.3     1  ALA1       -0.1231
      2  CA        30.6970  -22.0930   15.4950 C.3     1  ALA1        0.1694
      3  C         31.5800  -20.8700   15.2300 C.2     1  ALA1        0.2593
      4  O         31.7100  -19.9800   16.0690 O.2     1  ALA1       -0.2718
      5  CB        29.2630  -21.6510   15.7070 C.3     1  ALA1        0.0304
      6  N         32.1900  -20.8440   14.0480 N.am    2  SER2       -0.1938
      7  CA        32.9070  -19.6740   13.5660 C.3     2  SER2        0.2055
      8  C         31.9370  -18.5410   13.2850 C.2     2  SER2        0.2642
      9  O         30.7360  -18.7630   13.1110 O.2     2  SER2       -0.2714
     10  CB        33.6390  -20.0080   12.2680 C.3     2  SER2        0.2130
     11  OG        32.7320  -20.0080   11.1770 O.3     2  SER2       -0.2179
     12  N         32.4740  -17.3340   13.1930 N.am    3  LEU3       -0.1977
     13  CA        31.6730  -16.1690   12.8620 C.3     3  LEU3        0.1596
     14  C         30.9050  -16.3580   11.5500 C.2     3  LEU3        0.2287
     15  O         29.7020  -16.1210   11.4880 O.2     3  LEU3       -0.2864
     16  CB        32.5520  -14.9030   12.8140 C.3     3  LEU3        0.0297
     17  CG        31.8240  -13.5530   12.7040 C.3     3  LEU3        0.0022
     18  CD1       30.8000  -13.3430   13.8330 C.3     3  LEU3        0.0001
     19  CD2       32.8170  -12.3930   12.6840 C.3     3  LEU3        0.0001
     20  N         27.9770  -18.5690   11.8900 N.3     6  ILE6       -0.1245
     21  CA        26.8640  -17.9080   12.5710 C.3     6  ILE6        0.1561
     22  C         26.1870  -16.9130   11.6360 C.2     6  ILE6        0.2260
     23  O         24.9640  -16.8370   11.5630 O.2     6  ILE6       -0.2867
     24  CB        27.3120  -17.1970   13.8650 C.3     6  ILE6        0.0252
     25  CG1       27.8240  -18.2350   14.8650 C.3     6  ILE6        0.0019
     26  CG2       26.1390  -16.4250   14.4670 C.3     6  ILE6        0.0019
     27  CD1       28.3490  -17.6580   16.1600 C.3     6  ILE6        0.0001
     28  N         27.1540  -13.7100   20.3130 N.3    25  LEU25      -0.1231
     29  CA        28.5220  -14.0190   19.9180 C.3    25  LEU25       0.1693
     30  C         29.3490  -14.2180   21.1800 C.2    25  LEU25       0.2592
     31  O         29.4280  -13.3290   22.0330 O.2    25  LEU25      -0.2718
     32  CB        29.1170  -12.8870   19.0800 C.3    25  LEU25       0.0284
     33  CG        28.3780  -12.5620   17.7870 C.3    25  LEU25       0.0019
     34  CD1       29.1310  -11.4640   17.0710 C.3    25  LEU25       0.0001
     35  CD2       28.2250  -13.8010   16.8890 C.3    25  LEU25       0.0001
     36  N         29.9610  -15.3850   21.2910 N.am   26  LYS26      -0.1966
     37  CA        30.7590  -15.7170   22.4550 C.3    26  LYS26       0.1728
     38  C         32.2230  -15.3080   22.2670 C.2    26  LYS26       0.2616
     39  O         33.1130  -16.1240   22.0620 O.2    26  LYS26      -0.2715
     40  CB        30.5710  -17.1850   22.8000 C.3    26  LYS26       0.0311
     41  CG        29.0630  -17.5090   22.9750 C.3    26  LYS26       0.0038
     42  CD        28.7330  -18.2840   24.2200 C.3    26  LYS26       0.0206
     43  CE        27.2790  -18.0370   24.7210 C.3    26  LYS26       0.1093
     44  NZ        26.2970  -19.1160   24.3670 N.3    26  LYS26      -0.1314
     45  N         32.4320  -14.0060   22.3530 N.am   27  ILE27      -0.1963
     46  CA        33.7420  -13.3810   22.2260 C.3    27  ILE27       0.1727
     47  C         34.5400  -13.5500   23.5190 C.2    27  ILE27       0.2616
     48  O         34.0800  -13.1850   24.6100 O.2    27  ILE27      -0.2715
     49  CB        33.5770  -11.8760   21.9180 C.3    27  ILE27       0.0290
     50  CG1       32.8390  -11.6880   20.5860 C.3    27  ILE27       0.0022
     51  CG2       34.9370  -11.1500   21.9420 C.3    27  ILE27       0.0023
     52  CD1       32.4060  -10.2420   20.3030 C.3    27  ILE27       0.0001
     53  N         35.7370  -14.1090   23.3910 N.am   28  LYS28      -0.1977
     54  CA        36.5590  -14.4560   24.5520 C.3    28  LYS28       0.1596
     55  C         36.9870  -13.2170   25.3650 C.2    28  LYS28       0.2287
     56  O         37.3240  -12.1670   24.8020 O.2    28  LYS28      -0.2864
     57  CB        37.7910  -15.2460   24.1110 C.3    28  LYS28       0.0298
     58  CG        38.3740  -16.1170   25.2040 C.3    28  LYS28       0.0038
     59  CD        39.5970  -16.9100   24.7490 C.3    28  LYS28       0.0206
     60  CE        40.3420  -17.4700   25.9550 C.3    28  LYS28       0.1093
     61  NZ        41.4420  -18.4180   25.5850 N.3    28  LYS28      -0.1314
     62  N         37.7040   -7.1590   18.5090 N.3    77  PHE77      -0.1241
     63  CA        36.9640   -8.1440   17.7230 C.3    77  PHE77       0.1605
     64  C         36.5700   -7.5690   16.3750 C.2    77  PHE77       0.2264
     65  O         36.7830   -8.2010   15.3360 O.2    77  PHE77      -0.2867
     66  CB        35.7200   -8.6000   18.4900 C.3    77  PHE77       0.0534
     67  CG        34.6930   -9.2970   17.6480 C.ar   77  PHE77      -0.0203
     68  CD1       34.7430  -10.6640   17.4550 C.ar   77  PHE77      -0.0042
     69  CD2       33.6600   -8.5910   17.0690 C.ar   77  PHE77      -0.0042
     70  CE1       33.7930  -11.3140   16.6770 C.ar   77  PHE77      -0.0003
     71  CE2       32.6940   -9.2450   16.3020 C.ar   77  PHE77      -0.0003
     72  CZ        32.7810  -10.6110   16.1040 C.ar   77  PHE77      -0.0000
     73  N         38.0760   -8.8240   12.4910 N.3    81  TYR81      -0.1241
     74  CA        37.1690   -9.4000   11.4920 C.3    81  TYR81       0.1605
     75  C         36.7030   -8.4190   10.4390 C.2    81  TYR81       0.2264
     76  O         35.9860   -8.7980    9.5240 O.2    81  TYR81      -0.2867
     77  CB        35.9460   -9.9930   12.1950 C.3    81  TYR81       0.0534
     78  CG        36.2810  -11.2610   12.9160 C.ar   81  TYR81      -0.0201
     79  CD1       36.3440  -11.3080   14.3060 C.ar   81  TYR81      -0.0009
     80  CD2       36.5880  -12.4150   12.1970 C.ar   81  TYR81      -0.0009
     81  CE1       36.6640  -12.4980   14.9660 C.ar   81  TYR81       0.0417
     82  CE2       36.9180  -13.5930   12.8320 C.ar   81  TYR81       0.0417
     83  CZ        36.9550  -13.6390   14.2090 C.ar   81  TYR81       0.1957
     84  OH        37.2830  -14.8270   14.8160 O.3    81  TYR81      -0.2866
@<TRIPOS>BOND
     1    76    75    2
     2    75    74    1
     3    11    10    1
     4    15    14    2
     5    74    77    1
     6    74    73    1
     7    14    13    1
     8    23    22    2
     9    22    21    1
    10    20    21    1
    11    77    78    1
    12    80    82   ar
    13    80    78   ar
    14    10     7    1
    15    21    24    1
    16    19    17    1
    17    17    16    1
    18    17    18    1
    19    16    13    1
    20    82    83   ar
    21    13    12    1
    22    78    79   ar
    23     9     8    2
    24    12     8   am
    25     8     7    1
    26     7     6    1
    27    24    26    1
    28    24    25    1
    29     6     3   am
    30    83    84    1
    31    83    81   ar
    32    79    81   ar
    33    25    27    1
    34     3     2    1
    35     3     4    2
    36    65    64    2
    37     2     5    1
    38     2     1    1
    39    72    71   ar
    40    72    70   ar
    41    71    69   ar
    42    64    63    1
    43    70    68   ar
    44    35    33    1
    45    69    67   ar
    46    34    33    1
    47    68    67   ar
    48    67    66    1
    49    63    66    1
    50    63    62    1
    51    33    32    1
    52    32    29    1
    53    29    28    1
    54    29    30    1
    55    52    50    1
    56    50    49    1
    57    30    36   am
    58    30    31    2
    59    36    37    1
    60    49    51    1
    61    49    46    1
    62    39    38    2
    63    46    45    1
    64    46    47    1
    65    38    45   am
    66    38    37    1
    67    37    40    1
    68    40    41    1
    69    41    42    1
    70    53    47   am
    71    53    54    1
    72    47    48    2
    73    57    54    1
    74    57    58    1
    75    42    43    1
    76    44    43    1
    77    54    55    1
    78    59    58    1
    79    59    60    1
    80    56    55    2
    81    61    60    1
