@<TRIPOS>MOLECULE
tmp/2x5uC00.pdb
 240 239 0 0 0
SMALL
GASTEIGER

@<TRIPOS>ATOM
      1  N         25.0470   15.4990   36.2740 N.3    97  PHE97      -0.1241
      2  CA        25.8370   16.5530   35.6200 C.3    97  PHE97       0.1605
      3  C         26.7010   15.9960   34.4850 C.2    97  PHE97       0.2264
      4  O         26.5950   16.4440   33.3400 O.2    97  PHE97      -0.2867
      5  CB        26.7330   17.3070   36.6230 C.3    97  PHE97       0.0534
      6  CG        25.9840   18.1420   37.6400 C.ar   97  PHE97      -0.0203
      7  CD1       24.7700   18.7460   37.3310 C.ar   97  PHE97      -0.0042
      8  CD2       26.5270   18.3520   38.9060 C.ar   97  PHE97      -0.0042
      9  CE1       24.0940   19.5170   38.2810 C.ar   97  PHE97      -0.0003
     10  CE2       25.8620   19.1250   39.8590 C.ar   97  PHE97      -0.0003
     11  CZ        24.6460   19.7070   39.5470 C.ar   97  PHE97      -0.0000
     12  N         30.6610   23.3730   29.3650 N.3   121  PHE121     -0.1241
     13  CA        29.8140   22.9740   30.4890 C.3   121  PHE121      0.1605
     14  C         30.6310   22.2610   31.5720 C.2   121  PHE121      0.2264
     15  O         30.2100   22.1850   32.7310 O.2   121  PHE121     -0.2867
     16  CB        28.6210   22.1220   30.0140 C.3   121  PHE121      0.0534
     17  CG        27.7080   21.6520   31.1340 C.ar  121  PHE121     -0.0203
     18  CD1       27.1320   22.5600   32.0220 C.ar  121  PHE121     -0.0042
     19  CD2       27.4230   20.2950   31.2940 C.ar  121  PHE121     -0.0042
     20  CE1       26.2950   22.1210   33.0530 C.ar  121  PHE121     -0.0003
     21  CE2       26.5850   19.8480   32.3200 C.ar  121  PHE121     -0.0003
     22  CZ        26.0240   20.7610   33.1990 C.ar  121  PHE121     -0.0000
     23  N         31.7150   24.7150   34.7290 N.3   124  PRO124     -0.2102
     24  CA        30.8310   24.7130   35.8940 C.3   124  PRO124      0.1504
     25  C         30.9420   23.4350   36.7330 C.2   124  PRO124      0.2575
     26  O         31.0870   23.5280   37.9530 O.2   124  PRO124     -0.2718
     27  CB        29.4240   24.8520   35.2940 C.3   124  PRO124      0.0282
     28  CG        29.6000   25.0370   33.8160 C.3   124  PRO124      0.0208
     29  CD        31.0460   25.2620   33.5360 C.3   124  PRO124      0.0893
     30  N         30.8920   22.2630   36.0940 N.am  125  ILE125     -0.1980
     31  CA        30.9650   20.9800   36.8190 C.3   125  ILE125      0.1595
     32  C         32.2300   20.9030   37.6850 C.2   125  ILE125      0.2287
     33  O         32.1930   20.4000   38.8140 O.2   125  ILE125     -0.2864
     34  CB        30.8660   19.7440   35.8610 C.3   125  ILE125      0.0276
     35  CG1       29.4870   19.6820   35.1950 C.3   125  ILE125      0.0022
     36  CG2       31.1550   18.4320   36.6050 C.3   125  ILE125      0.0022
     37  CD1       29.4080   18.7230   34.0190 C.3   125  ILE125      0.0001
     38  N         33.8360   23.4140   39.0910 N.3   127  MET127     -0.1230
     39  CA        33.6850   24.3020   40.2550 C.3   127  MET127      0.1702
     40  C         32.7840   23.7010   41.3350 C.2   127  MET127      0.2592
     41  O         32.9640   23.9650   42.5280 O.2   127  MET127     -0.2718
     42  CB        33.1570   25.6790   39.8360 C.3   127  MET127      0.0401
     43  CG        33.2460   26.7560   40.9300 C.3   127  MET127      0.0596
     44  SD        34.9490   27.1370   41.4100 S.3   127  MET127     -0.1393
     45  CE        34.6750   28.2500   42.7830 C.3   127  MET127      0.0692
     46  N         31.8120   22.9050   40.9000 N.am  128  PHE128     -0.1976
     47  CA        30.9520   22.1440   41.7980 C.3   128  PHE128      0.1639
     48  C         31.7610   21.0860   42.5610 C.2   128  PHE128      0.2290
     49  O         31.5530   20.8900   43.7610 O.2   128  PHE128     -0.2864
     50  CB        29.8060   21.5070   41.0050 C.3   128  PHE128      0.0560
     51  CG        28.8740   20.6780   41.8370 C.ar  128  PHE128     -0.0200
     52  CD1       27.8040   21.2710   42.5050 C.ar  128  PHE128     -0.0042
     53  CD2       29.0560   19.3000   41.9410 C.ar  128  PHE128     -0.0042
     54  CE1       26.9330   20.5080   43.2740 C.ar  128  PHE128     -0.0003
     55  CE2       28.2020   18.5300   42.7080 C.ar  128  PHE128     -0.0003
     56  CZ        27.1310   19.1360   43.3770 C.ar  128  PHE128     -0.0000
     57  N         34.0660   22.8190   45.3250 N.3   131  LEU131     -0.1245
     58  CA        33.3790   23.1180   46.5860 C.3   131  LEU131      0.1561
     59  C         32.9580   21.8790   47.3780 C.2   131  LEU131      0.2260
     60  O         33.0530   21.8710   48.6060 O.2   131  LEU131     -0.2867
     61  CB        32.1440   23.9820   46.3310 C.3   131  LEU131      0.0270
     62  CG        32.2940   25.2570   45.5100 C.3   131  LEU131      0.0019
     63  CD1       30.9660   25.5550   44.8410 C.3   131  LEU131      0.0001
     64  CD2       32.7500   26.4160   46.3780 C.3   131  LEU131      0.0001
     65  N         25.8790   29.6880   54.0960 N.3   156  TRP156     -0.1227
     66  CA        27.1340   28.9580   54.1070 C.3   156  TRP156      0.1737
     67  C         28.2220   29.8260   53.4970 C.2   156  TRP156      0.2595
     68  O         29.2950   29.9870   54.0820 O.2   156  TRP156     -0.2718
     69  CB        26.9870   27.6560   53.3310 C.3   156  TRP156      0.0564
     70  CG        28.2320   26.8410   53.2420 C.ar  156  TRP156      0.0003
     71  CD1       28.6700   25.9210   54.1410 C.ar  156  TRP156      0.0946
     72  CD2       29.1950   26.8600   52.1820 C.ar  156  TRP156      0.0152
     73  NE1       29.8510   25.3640   53.7120 N.ar  156  TRP156     -0.2442
     74  CE2       30.1940   25.9220   52.5090 C.ar  156  TRP156      0.0810
     75  CE3       29.3070   27.5780   50.9830 C.ar  156  TRP156      0.0012
     76  CZ2       31.2930   25.6800   51.6860 C.ar  156  TRP156      0.0191
     77  CZ3       30.4000   27.3360   50.1610 C.ar  156  TRP156      0.0001
     78  CH2       31.3780   26.3930   50.5180 C.ar  156  TRP156      0.0015
     79  N         27.9220   30.3860   52.3250 N.am  157  VAL157     -0.1966
     80  CA        28.8140   31.3070   51.6160 C.3   157  VAL157      0.1727
     81  C         29.1900   32.5160   52.4910 C.2   157  VAL157      0.2616
     82  O         30.3320   32.9880   52.4610 O.2   157  VAL157     -0.2715
     83  CB        28.1730   31.7660   50.2770 C.3   157  VAL157      0.0290
     84  CG1       29.0110   32.8280   49.5940 C.3   157  VAL157      0.0023
     85  CG2       27.9860   30.5800   49.3450 C.3   157  VAL157      0.0023
     86  N         28.2240   32.9940   53.2740 N.am  158  ASN158     -0.1972
     87  CA        28.4300   34.1020   54.1960 C.3   158  ASN158      0.1688
     88  C         29.4760   33.7640   55.2540 C.2   158  ASN158      0.2292
     89  O         30.4990   34.4450   55.3600 O.2   158  ASN158     -0.2864
     90  CB        27.1000   34.4890   54.8500 C.3   158  ASN158      0.1181
     91  CG        27.0920   35.9140   55.3890 C.2   158  ASN158      0.2629
     92  OD1       28.0250   36.6910   55.1770 O.2   158  ASN158     -0.2716
     93  ND2       26.0230   36.2620   56.0910 N.am  158  ASN158     -0.0877
     94  N         31.5230   31.0510   55.4250 N.3   160  PHE160     -0.1227
     95  CA        32.7570   30.6620   54.7470 C.3   160  PHE160      0.1736
     96  C         33.6090   31.9010   54.5230 C.2   160  PHE160      0.2596
     97  O         34.7970   31.9180   54.8560 O.2   160  PHE160     -0.2718
     98  CB        32.4440   29.9960   53.4030 C.3   160  PHE160      0.0547
     99  CG        33.6530   29.4070   52.6900 C.ar  160  PHE160     -0.0202
    100  CD1       34.9600   29.7010   53.0880 C.ar  160  PHE160     -0.0042
    101  CD2       33.4680   28.5750   51.5850 C.ar  160  PHE160     -0.0042
    102  CE1       36.0570   29.1620   52.4110 C.ar  160  PHE160     -0.0003
    103  CE2       34.5570   28.0350   50.8980 C.ar  160  PHE160     -0.0003
    104  CZ        35.8540   28.3320   51.3100 C.ar  160  PHE160     -0.0000
    105  N         32.9860   32.9380   53.9690 N.am  161  GLY161     -0.1942
    106  CA        33.6580   34.2020   53.7000 C.3   161  GLY161      0.2014
    107  C         34.2720   34.8110   54.9390 C.2   161  GLY161      0.2638
    108  O         35.4800   35.0350   54.9870 O.2   161  GLY161     -0.2714
    109  N         33.4400   35.0470   55.9520 N.am  162  TYR162     -0.1973
    110  CA        33.8770   35.7350   57.1690 C.3   162  TYR162      0.1639
    111  C         34.8520   34.9390   58.0380 C.2   162  TYR162      0.2290
    112  O         35.4440   35.4800   58.9720 O.2   162  TYR162     -0.2864
    113  CB        32.6780   36.2150   57.9880 C.3   162  TYR162      0.0560
    114  CG        32.0110   37.4650   57.4460 C.ar  162  TYR162     -0.0198
    115  CD1       32.6200   38.7250   57.5620 C.ar  162  TYR162     -0.0009
    116  CD2       30.7590   37.3920   56.8330 C.ar  162  TYR162     -0.0009
    117  CE1       31.9950   39.8800   57.0740 C.ar  162  TYR162      0.0417
    118  CE2       30.1300   38.5310   56.3440 C.ar  162  TYR162      0.0417
    119  CZ        30.7470   39.7720   56.4650 C.ar  162  TYR162      0.1957
    120  OH        30.0940   40.8840   55.9670 O.3   162  TYR162     -0.2866
    121  N         37.7390   39.2480   55.6910 N.3   166  ASN166     -0.1225
    122  CA        37.3120   40.0300   54.5320 C.3   166  ASN166      0.1785
    123  C         37.7000   39.3290   53.2340 C.2   166  ASN166      0.2597
    124  O         38.7760   39.5630   52.6810 O.2   166  ASN166     -0.2718
    125  CB        37.8810   41.4510   54.5830 C.3   166  ASN166      0.1169
    126  CG        36.9930   42.4680   53.8830 C.2   166  ASN166      0.2627
    127  OD1       36.3770   42.1790   52.8600 O.2   166  ASN166     -0.2716
    128  ND2       36.9330   43.6740   54.4360 N.am  166  ASN166     -0.0877
    129  N         36.8030   38.4600   52.7720 N.am  167  TRP167     -0.1962
    130  CA        36.9680   37.6660   51.5500 C.3   167  TRP167      0.1771
    131  C         37.1950   38.5090   50.2810 C.2   167  TRP167      0.2619
    132  O         37.7460   38.0150   49.3000 O.2   167  TRP167     -0.2715
    133  CB        35.7430   36.7540   51.3910 C.3   167  TRP167      0.0590
    134  CG        35.8240   35.6960   50.3170 C.ar  167  TRP167      0.0006
    135  CD1       35.4240   35.8220   49.0210 C.ar  167  TRP167      0.0946
    136  CD2       36.2930   34.3430   50.4640 C.ar  167  TRP167      0.0152
    137  NE1       35.6330   34.6450   48.3450 N.ar  167  TRP167     -0.2442
    138  CE2       36.1640   33.7190   49.2030 C.ar  167  TRP167      0.0810
    139  CE3       36.8180   33.6010   51.5350 C.ar  167  TRP167      0.0012
    140  CZ2       36.5440   32.3850   48.9770 C.ar  167  TRP167      0.0191
    141  CZ3       37.1950   32.2680   51.3100 C.ar  167  TRP167      0.0001
    142  CH2       37.0530   31.6790   50.0400 C.ar  167  TRP167      0.0015
    143  N         36.7820   39.7760   50.3030 N.am  168  HIS168     -0.1973
    144  CA        37.0380   40.6960   49.1860 C.3   168  HIS168      0.1656
    145  C         38.5320   40.8790   48.8880 C.2   168  HIS168      0.2291
    146  O         38.9130   41.1700   47.7520 O.2   168  HIS168     -0.2864
    147  CB        36.4200   42.0660   49.4530 C.3   168  HIS168      0.0771
    148  CG        34.9290   42.1040   49.3290 C.ar  168  HIS168      0.0820
    149  ND1       34.1200   42.6840   50.2830 N.ar  168  HIS168     -0.2267
    150  CD2       34.1000   41.6540   48.3570 C.ar  168  HIS168      0.1154
    151  CE1       32.8570   42.5830   49.9080 C.ar  168  HIS168      0.1986
    152  NE2       32.8170   41.9590   48.7450 N.ar  168  HIS168     -0.2212
    153  N         40.6950   38.5090   49.1430 N.3   170  ASN170     -0.1240
    154  CA        41.0970   37.2710   48.4790 C.3   170  ASN170      0.1653
    155  C         41.4200   37.5380   46.9990 C.2   170  ASN170      0.2266
    156  O         40.5300   37.9180   46.2350 O.2   170  ASN170     -0.2867
    157  CB        39.9690   36.2420   48.6340 C.3   170  ASN170      0.1155
    158  CG        40.2390   34.9320   47.9180 C.2   170  ASN170      0.2627
    159  OD1       40.7210   34.9010   46.7870 O.2   170  ASN170     -0.2716
    160  ND2       39.8890   33.8340   48.5730 N.am  170  ASN170     -0.0877
    161  N         42.2110   35.5430   44.4990 N.3   172  GLY172     -0.1210
    162  CA        41.4850   34.6390   43.6030 C.3   172  GLY172      0.1956
    163  C         40.0580   35.1180   43.3840 C.2   172  GLY172      0.2611
    164  O         39.5160   35.0040   42.2870 O.2   172  GLY172     -0.2717
    165  N         39.4550   35.6640   44.4350 N.am  173  HIS173     -0.1975
    166  CA        38.1180   36.2320   44.3510 C.3   173  HIS173      0.1656
    167  C         38.1140   37.4480   43.4330 C.2   173  HIS173      0.2291
    168  O         37.3340   37.4960   42.4870 O.2   173  HIS173     -0.2864
    169  CB        37.6100   36.5980   45.7470 C.3   173  HIS173      0.0771
    170  CG        36.1190   36.6670   45.8560 C.ar  173  HIS173      0.0820
    171  ND1       35.4600   37.7850   46.3210 N.ar  173  HIS173     -0.2267
    172  CD2       35.1600   35.7540   45.5750 C.ar  173  HIS173      0.1154
    173  CE1       34.1590   37.5580   46.3190 C.ar  173  HIS173      0.1986
    174  NE2       33.9510   36.3320   45.8740 N.ar  173  HIS173     -0.2212
    175  N         38.1880   36.4580   40.0170 N.3   176  SER176     -0.1202
    176  CA        36.9050   35.8400   39.6760 C.3   176  SER176      0.2020
    177  C         35.8020   36.8750   39.4580 C.2   176  SER176      0.2618
    178  O         35.0960   36.8350   38.4440 O.2   176  SER176     -0.2717
    179  CB        36.4890   34.8640   40.7800 C.3   176  SER176      0.2103
    180  OG        35.3200   34.1470   40.4300 O.3   176  SER176     -0.2182
    181  N         35.6760   37.7990   40.4120 N.am  177  VAL177     -0.1979
    182  CA        34.6410   38.8300   40.3990 C.3   177  VAL177      0.1595
    183  C         34.7950   39.7720   39.2110 C.2   177  VAL177      0.2287
    184  O         33.8010   40.1810   38.6120 O.2   177  VAL177     -0.2864
    185  CB        34.6360   39.6350   41.7160 C.3   177  VAL177      0.0276
    186  CG1       33.7500   40.8590   41.6040 C.3   177  VAL177      0.0022
    187  CG2       34.1640   38.7660   42.8620 C.3   177  VAL177      0.0022
    188  N         33.3490   38.1630   36.1870 N.3   180  LEU180     -0.1231
    189  CA        31.8940   38.2000   36.2840 C.3   180  LEU180      0.1693
    190  C         31.3940   39.5450   35.7800 C.2   180  LEU180      0.2592
    191  O         30.4740   39.6040   34.9690 O.2   180  LEU180     -0.2718
    192  CB        31.4310   37.9460   37.7260 C.3   180  LEU180      0.0284
    193  CG        29.9350   38.0170   38.0520 C.3   180  LEU180      0.0019
    194  CD1       29.1750   36.9000   37.3730 C.3   180  LEU180      0.0001
    195  CD2       29.7110   37.9670   39.5500 C.3   180  LEU180      0.0001
    196  N         32.0290   40.6160   36.2440 N.am  181  PHE181     -0.1976
    197  CA        31.6460   41.9660   35.8630 C.3   181  PHE181      0.1639
    198  C         31.9120   42.2600   34.3850 C.2   181  PHE181      0.2290
    199  O         31.0420   42.8040   33.7060 O.2   181  PHE181     -0.2864
    200  CB        32.3530   42.9940   36.7460 C.3   181  PHE181      0.0560
    201  CG        31.8690   43.0200   38.1770 C.ar  181  PHE181     -0.0200
    202  CD1       30.6490   42.4450   38.5380 C.ar  181  PHE181     -0.0042
    203  CD2       32.6270   43.6620   39.1620 C.ar  181  PHE181     -0.0042
    204  CE1       30.2110   42.4820   39.8560 C.ar  181  PHE181     -0.0003
    205  CE2       32.1930   43.7160   40.4810 C.ar  181  PHE181     -0.0003
    206  CZ        30.9860   43.1200   40.8310 C.ar  181  PHE181     -0.0000
    207  N         35.4880   33.0430   35.2970 N.3   240  ILE240     -0.1231
    208  CA        34.7890   33.3220   36.5560 C.3   240  ILE240      0.1692
    209  C         35.1520   32.2050   37.5290 C.2   240  ILE240      0.2592
    210  O         35.5140   32.4640   38.6780 O.2   240  ILE240     -0.2718
    211  CB        33.2410   33.3780   36.3890 C.3   240  ILE240      0.0266
    212  CG1       32.8150   34.5650   35.5200 C.3   240  ILE240      0.0019
    213  CG2       32.5420   33.4520   37.7450 C.3   240  ILE240      0.0020
    214  CD1       31.3440   34.5170   35.0880 C.3   240  ILE240      0.0001
    215  N         35.0810   30.9670   37.0470 N.am  241  PHE241     -0.1976
    216  CA        35.3550   29.8040   37.8820 C.3   241  PHE241      0.1639
    217  C         36.8250   29.3810   37.8560 C.2   241  PHE241      0.2290
    218  O         37.4190   29.1690   38.9140 O.2   241  PHE241     -0.2864
    219  CB        34.4410   28.6250   37.5110 C.3   241  PHE241      0.0560
    220  CG        32.9740   28.8620   37.7950 C.ar  241  PHE241     -0.0200
    221  CD1       32.5540   29.9100   38.6270 C.ar  241  PHE241     -0.0042
    222  CD2       32.0120   28.0120   37.2550 C.ar  241  PHE241     -0.0042
    223  CE1       31.1940   30.1210   38.8910 C.ar  241  PHE241     -0.0003
    224  CE2       30.6540   28.2050   37.5200 C.ar  241  PHE241     -0.0003
    225  CZ        30.2430   29.2640   38.3390 C.ar  241  PHE241     -0.0000
    226  N         38.6520   31.6740   40.0240 N.3   244  GLY244     -0.1225
    227  CA        37.9820   31.6190   41.3170 C.3   244  GLY244      0.1811
    228  C         38.3340   30.3770   42.1090 C.2   244  GLY244      0.2280
    229  O         38.6260   30.4650   43.2970 O.2   244  GLY244     -0.2866
    230  N         41.2280   30.6990   44.4200 N.3   247  GLY247     -0.1210
    231  CA        40.9490   31.4610   45.6430 C.3   247  GLY247      0.1956
    232  C         40.0930   30.7160   46.6600 C.2   247  GLY247      0.2612
    233  O         40.1030   31.0480   47.8510 O.2   247  GLY247     -0.2717
    234  N         39.3490   29.7140   46.1850 N.am  248  THR248     -0.1952
    235  CA        38.4920   28.8880   47.0380 C.3   248  THR248      0.1897
    236  C         39.3150   27.8070   47.7350 C.2   248  THR248      0.2313
    237  O         39.2230   27.6300   48.9520 O.2   248  THR248     -0.2863
    238  CB        37.3420   28.2170   46.2290 C.3   248  THR248      0.1794
    239  OG1       36.5840   29.2130   45.5330 O.3   248  THR248     -0.2208
    240  CG2       36.4050   27.4470   47.1490 C.3   248  THR248      0.0378
@<TRIPOS>BOND
     1    12    13    1
     2    16    13    1
     3    16    17    1
     4    13    14    1
     5    17    19   ar
     6    17    18   ar
     7    19    21   ar
     8    14    15    2
     9    18    20   ar
    10    21    22   ar
    11    20    22   ar
    12     4     3    2
    13    29    28    1
    14    29    23    1
    15   199   198    2
    16    28    27    1
    17    37    35    1
    18   198   197    1
    19     3     2    1
    20    23    24    1
    21   191   190    2
    22   214   212    1
    23    35    34    1
    24    27    24    1
    25   207   208    1
    26   212   211    1
    27     2     1    1
    28     2     5    1
    29   190   196   am
    30   190   189    1
    31    34    36    1
    32    34    31    1
    33   197   196    1
    34   197   200    1
    35    24    25    1
    36    30    25   am
    37    30    31    1
    38   188   189    1
    39   189   192    1
    40   211   208    1
    41   211   213    1
    42   208   209    1
    43     5     6    1
    44    25    26    2
    45   200   201    1
    46    31    32    1
    47   215   209   am
    48   215   216    1
    49   222   224   ar
    50   222   220   ar
    51     7     6   ar
    52     7     9   ar
    53   194   193    1
    54   219   220    1
    55   219   216    1
    56   224   225   ar
    57   209   210    2
    58     6     8   ar
    59    32    33    2
    60   192   193    1
    61   220   221   ar
    62   217   216    1
    63   217   218    2
    64   193   195    1
    65   201   202   ar
    66   201   203   ar
    67     9    11   ar
    68   225   223   ar
    69   178   177    2
    70   202   204   ar
    71   184   183    2
    72   221   223   ar
    73     8    10   ar
    74    38    39    1
    75   203   205   ar
    76   183   182    1
    77   177   176    1
    78   177   181   am
    79    11    10   ar
    80   176   175    1
    81   176   179    1
    82    42    39    1
    83    42    43    1
    84   204   206   ar
    85   226   227    1
    86    39    40    1
    87   182   181    1
    88   182   185    1
    89   180   179    1
    90   205   206   ar
    91    46    40   am
    92    46    47    1
    93    43    44    1
    94    50    47    1
    95    50    51    1
    96   227   228    1
    97    40    41    2
    98    44    45    1
    99   186   185    1
   100   185   187    1
   101    47    48    1
   102    51    53   ar
   103    51    52   ar
   104    53    55   ar
   105   228   229    2
   106   164   163    2
   107   168   167    2
   108    52    54   ar
   109    48    49    2
   110    55    56   ar
   111    54    56   ar
   112   163   162    1
   113   163   165   am
   114   167   166    1
   115   162   161    1
   116   166   165    1
   117   166   169    1
   118   230   231    1
   119    63    62    1
   120    57    58    1
   121    62    61    1
   122    62    64    1
   123   239   238    1
   124   172   170   ar
   125   172   174   ar
   126   231   232    1
   127   169   170    1
   128   170   171   ar
   129   174   173   ar
   130   234   232   am
   131   234   235    1
   132   238   235    1
   133   238   240    1
   134   156   155    2
   135   173   171   ar
   136    61    58    1
   137    58    59    1
   138   232   233    2
   139   159   158    2
   140   155   154    1
   141   235   236    1
   142    59    60    2
   143   236   237    2
   144   146   145    2
   145   158   160   am
   146   158   157    1
   147   137   135   ar
   148   137   138   ar
   149   150   152   ar
   150   150   148   ar
   151   154   157    1
   152   154   153    1
   153   152   151   ar
   154   145   144    1
   155   140   138   ar
   156   140   142   ar
   157   135   134   ar
   158   144   147    1
   159   144   143    1
   160   138   136   ar
   161   132   131    2
   162   148   147    1
   163   148   149   ar
   164    85    83    1
   165    84    83    1
   166   151   149   ar
   167   142   141   ar
   168    77    78   ar
   169    77    75   ar
   170    83    80    1
   171   131   143   am
   172   131   130    1
   173   134   136   ar
   174   134   133    1
   175   136   139   ar
   176    78    76   ar
   177   103   104   ar
   178   103   101   ar
   179    75    72   ar
   180   104   102   ar
   181   141   139   ar
   182   133   130    1
   183   130   129    1
   184   101    99   ar
   185    80    79    1
   186    80    81    1
   187    76    74   ar
   188    72    74   ar
   189    72    70   ar
   190    79    67   am
   191   102   100   ar
   192    82    81    2
   193    81    86   am
   194    74    73   ar
   195   124   123    2
   196    99   100   ar
   197    99    98    1
   198   129   123   am
   199   127   126    2
   200   123   122    1
   201    70    69    1
   202    70    71   ar
   203    86    87    1
   204    69    66    1
   205    98    95    1
   206    67    68    2
   207    67    66    1
   208   106   105    1
   209   106   107    1
   210    73    71   ar
   211   126   128   am
   212   126   125    1
   213   105    96   am
   214    65    66    1
   215    87    90    1
   216    87    88    1
   217    96    95    1
   218    96    97    2
   219   122   125    1
   220   122   121    1
   221    95    94    1
   222    90    91    1
   223   107   108    2
   224   107   109   am
   225    92    91    2
   226    88    89    2
   227    91    93   am
   228   109   110    1
   229   120   119    1
   230   118   119   ar
   231   118   116   ar
   232   119   117   ar
   233   116   114   ar
   234   117   115   ar
   235   110   113    1
   236   110   111    1
   237   114   115   ar
   238   114   113    1
   239   111   112    2
