@<TRIPOS>MOLECULE
tmp/2x5uC06.pdb
 87 84 0 0 0
SMALL
GASTEIGER

@<TRIPOS>ATOM
      1  N         12.4270   11.5770   22.2110 N.3    26  VAL26      -0.1245
      2  CA        11.1370   11.6260   22.9000 C.3    26  VAL26       0.1561
      3  C         10.7020   13.0910   22.9560 C.2    26  VAL26       0.2260
      4  O         11.1580   13.8620   23.8010 O.2    26  VAL26      -0.2867
      5  CB        11.1960   10.9820   24.3120 C.3    26  VAL26       0.0252
      6  CG1        9.8630   11.1400   25.0430 C.3    26  VAL26       0.0019
      7  CG2       11.5690    9.5060   24.2120 C.3    26  VAL26       0.0019
      8  N         13.3120   16.4190   22.8440 N.3    29  TYR29      -0.1227
      9  CA        14.5020   15.9520   23.5540 C.3    29  TYR29       0.1736
     10  C         15.1600   14.7650   22.8720 C.2    29  TYR29       0.2595
     11  O         14.4840   13.8810   22.3460 O.2    29  TYR29      -0.2718
     12  CB        14.1570   15.5570   24.9940 C.3    29  TYR29       0.0548
     13  CG        13.4980   16.6380   25.8170 C.ar   29  TYR29      -0.0200
     14  CD1       14.2540   17.6510   26.4030 C.ar   29  TYR29      -0.0009
     15  CD2       12.1200   16.6380   26.0230 C.ar   29  TYR29      -0.0009
     16  CE1       13.6560   18.6400   27.1610 C.ar   29  TYR29       0.0417
     17  CE2       11.5100   17.6250   26.7800 C.ar   29  TYR29       0.0417
     18  CZ        12.2850   18.6240   27.3450 C.ar   29  TYR29       0.1957
     19  OH        11.6910   19.6090   28.0990 O.3    29  TYR29      -0.2866
     20  N         16.4880   14.7550   22.8890 N.am   30  PHE30      -0.1962
     21  CA        17.2410   13.5870   22.4660 C.3    30  PHE30       0.1771
     22  C         17.5660   12.7370   23.6850 C.2    30  PHE30       0.2619
     23  O         17.8750   13.2670   24.7540 O.2    30  PHE30      -0.2715
     24  CB        18.5220   13.9840   21.7280 C.3    30  PHE30       0.0574
     25  CG        19.3760   12.8160   21.3350 C.ar   30  PHE30      -0.0200
     26  CD1       18.9200   11.8850   20.4100 C.ar   30  PHE30      -0.0042
     27  CD2       20.6320   12.6400   21.8960 C.ar   30  PHE30      -0.0042
     28  CE1       19.7020   10.8000   20.0470 C.ar   30  PHE30      -0.0003
     29  CE2       21.4270   11.5620   21.5350 C.ar   30  PHE30      -0.0003
     30  CZ        20.9590   10.6380   20.6100 C.ar   30  PHE30      -0.0000
     31  N         17.4900   11.4200   23.5140 N.am   31  VAL31      -0.1977
     32  CA        17.6980   10.4850   24.6160 C.3    31  VAL31       0.1596
     33  C         19.1590   10.0170   24.6780 C.2    31  VAL31       0.2287
     34  O         19.9800   10.6360   25.3670 O.2    31  VAL31      -0.2864
     35  CB        16.6960    9.2930   24.5630 C.3    31  VAL31       0.0276
     36  CG1       16.8580    8.3860   25.7760 C.3    31  VAL31       0.0022
     37  CG2       15.2680    9.8070   24.4920 C.3    31  VAL31       0.0022
     38  N         21.1840   10.2870   28.3160 N.3    35  GLY35      -0.1225
     39  CA        19.8700   10.7940   28.6950 C.3    35  GLY35       0.1811
     40  C         19.1750    9.8300   29.6410 C.2    35  GLY35       0.2280
     41  O         18.4550   10.2510   30.5490 O.2    35  GLY35      -0.2866
     42  N         20.9840   10.1380   32.8030 N.3    38  ALA38      -0.1231
     43  CA        20.6030   11.4210   33.3800 C.3    38  ALA38       0.1694
     44  C         19.2920   11.2850   34.1520 C.2    38  ALA38       0.2591
     45  O         19.2700   11.4830   35.3690 O.2    38  ALA38      -0.2718
     46  CB        20.5020   12.5060   32.3080 C.3    38  ALA38       0.0304
     47  N         18.2200   10.9160   33.4480 N.am   39  ILE39      -0.1980
     48  CA        16.8800   10.7890   34.0420 C.3    39  ILE39       0.1595
     49  C         16.8830    9.8840   35.2770 C.2    39  ILE39       0.2287
     50  O         16.1430   10.1280   36.2260 O.2    39  ILE39      -0.2864
     51  CB        15.8240   10.3200   32.9950 C.3    39  ILE39       0.0276
     52  CG1       15.5330   11.4350   31.9730 C.3    39  ILE39       0.0022
     53  CG2       14.5270    9.8450   33.6670 C.3    39  ILE39       0.0022
     54  CD1       14.7310   12.6360   32.5050 C.3    39  ILE39       0.0001
     55  N         18.7110   11.9710   38.0430 N.3    42  ILE42      -0.1245
     56  CA        17.7980   13.0540   38.4100 C.3    42  ILE42       0.1561
     57  C         16.6580   12.4920   39.2680 C.2    42  ILE42       0.2260
     58  O         16.4130   12.9790   40.3730 O.2    42  ILE42      -0.2867
     59  CB        17.2590   13.8200   37.1600 C.3    42  ILE42       0.0252
     60  CG1       18.4160   14.4580   36.3760 C.3    42  ILE42       0.0019
     61  CG2       16.2560   14.8940   37.5720 C.3    42  ILE42       0.0019
     62  CD1       18.1310   14.6830   34.9020 C.3    42  ILE42       0.0001
     63  N         24.6840   14.6850   31.7400 N.3   100  TRP100     -0.1241
     64  CA        24.1610   15.8060   30.9630 C.3   100  TRP100      0.1605
     65  C         25.2270   16.3780   30.0390 C.2   100  TRP100      0.2264
     66  O         24.9220   16.8020   28.9230 O.2   100  TRP100     -0.2867
     67  CB        23.6120   16.9020   31.8790 C.3   100  TRP100      0.0550
     68  CG        22.8420   17.9650   31.1430 C.ar  100  TRP100      0.0003
     69  CD1       23.3250   19.1570   30.6800 C.ar  100  TRP100      0.0946
     70  CD2       21.4550   17.9260   30.7780 C.ar  100  TRP100      0.0152
     71  NE1       22.3240   19.8630   30.0560 N.ar  100  TRP100     -0.2442
     72  CE2       21.1680   19.1290   30.0990 C.ar  100  TRP100      0.0810
     73  CE3       20.4250   16.9910   30.9620 C.ar  100  TRP100      0.0012
     74  CZ2       19.8950   19.4230   29.6050 C.ar  100  TRP100      0.0191
     75  CZ3       19.1570   17.2860   30.4680 C.ar  100  TRP100      0.0001
     76  CH2       18.9060   18.4920   29.7990 C.ar  100  TRP100      0.0015
     77  N         25.8610   13.7450   27.1740 N.3   103  ARG103     -0.1245
     78  CA        24.6850   13.7290   26.3030 C.3   103  ARG103      0.1563
     79  C         24.7910   14.8060   25.2180 C.2   103  ARG103      0.2260
     80  O         24.3810   14.5900   24.0730 O.2   103  ARG103     -0.2867
     81  CB        23.4030   13.8970   27.1270 C.3   103  ARG103      0.0307
     82  CG        22.1170   13.9080   26.3180 C.3   103  ARG103      0.0489
     83  CD        20.9200   14.0930   27.2220 C.3   103  ARG103      0.2205
     84  NE        19.7080   14.4580   26.4890 N.pl3 103  ARG103     -0.0865
     85  CZ        19.1880   15.6830   26.4500 C.cat 103  ARG103      0.5346
     86  NH1       19.7660   16.6860   27.0990 N.pl3 103  ARG103      0.1354
     87  NH2       18.0810   15.9050   25.7600 N.pl3 103  ARG103      0.1354
@<TRIPOS>BOND
     1    28    26   ar
     2    28    30   ar
     3    26    25   ar
     4    30    29   ar
     5    25    24    1
     6    25    27   ar
     7    29    27   ar
     8    24    21    1
     9     1     2    1
    10    11    10    2
    11    21    20    1
    12    21    22    1
    13     8     9    1
    14    10    20   am
    15    10     9    1
    16     2     3    1
    17     2     5    1
    18     3     4    2
    19    31    22   am
    20    31    32    1
    21     9    12    1
    22    22    23    2
    23    80    79    2
    24     7     5    1
    25     5     6    1
    26    37    35    1
    27    35    32    1
    28    35    36    1
    29    32    33    1
    30    33    34    2
    31    12    13    1
    32    79    78    1
    33    87    85    1
    34    13    15   ar
    35    13    14   ar
    36    15    17   ar
    37    78    81    1
    38    78    77    1
    39    82    81    1
    40    82    83    1
    41    14    16   ar
    42    85    84    2
    43    85    86    1
    44    84    83    1
    45    17    18   ar
    46    16    18   ar
    47    18    19    1
    48    38    39    1
    49    39    40    1
    50    66    65    2
    51    74    76   ar
    52    74    72   ar
    53    40    41    2
    54    76    75   ar
    55    65    64    1
    56    71    72   ar
    57    71    69   ar
    58    72    70   ar
    59    75    73   ar
    60    69    68   ar
    61    70    73   ar
    62    70    68   ar
    63    64    63    1
    64    64    67    1
    65    68    67    1
    66    52    54    1
    67    52    51    1
    68    46    43    1
    69    42    43    1
    70    51    53    1
    71    51    48    1
    72    43    44    1
    73    47    48    1
    74    47    44   am
    75    48    49    1
    76    44    45    2
    77    62    60    1
    78    49    50    2
    79    60    59    1
    80    59    61    1
    81    59    56    1
    82    55    56    1
    83    56    57    1
    84    57    58    2
