@<TRIPOS>MOLECULE
tmp/2x5uC01.pdb
 142 139 0 0 0
SMALL
GASTEIGER

@<TRIPOS>ATOM
      1  N         16.0450   13.6330   42.9880 N.3    46  VAL46      -0.1245
      2  CA        14.9030   14.4100   43.4730 C.3    46  VAL46       0.1561
      3  C         14.0380   13.6020   44.4510 C.2    46  VAL46       0.2260
      4  O         13.4020   14.1730   45.3400 O.2    46  VAL46      -0.2867
      5  CB        14.0510   14.9900   42.3070 C.3    46  VAL46       0.0252
      6  CG1       12.9480   15.8950   42.8350 C.3    46  VAL46       0.0019
      7  CG2       14.9240   15.7770   41.3390 C.3    46  VAL46       0.0019
      8  N         15.8150   13.9440   47.9790 N.3    49  ILE49      -0.1245
      9  CA        15.6730   15.2950   48.5210 C.3    49  ILE49       0.1561
     10  C         14.3320   15.4110   49.2450 C.2    49  ILE49       0.2260
     11  O         14.2790   15.8640   50.3920 O.2    49  ILE49      -0.2867
     12  CB        15.8140   16.3850   47.4140 C.3    49  ILE49       0.0252
     13  CG1       17.2890   16.5580   47.0260 C.3    49  ILE49       0.0019
     14  CG2       15.1910   17.7230   47.8600 C.3    49  ILE49       0.0019
     15  CD1       17.5320   17.4400   45.8160 C.3    49  ILE49       0.0001
     16  N         11.8810   28.0800   50.6110 N.3    62  PHE62      -0.1241
     17  CA        12.9320   29.0290   50.9590 C.3    62  PHE62       0.1605
     18  C         13.7020   28.6100   52.2180 C.2    62  PHE62       0.2264
     19  O         14.9100   28.8450   52.3190 O.2    62  PHE62      -0.2867
     20  CB        12.3560   30.4380   51.1320 C.3    62  PHE62       0.0534
     21  CG        11.8090   31.0400   49.8610 C.ar   62  PHE62      -0.0203
     22  CD1       12.5820   31.0820   48.6980 C.ar   62  PHE62      -0.0042
     23  CD2       10.5270   31.5940   49.8360 C.ar   62  PHE62      -0.0042
     24  CE1       12.0770   31.6500   47.5230 C.ar   62  PHE62      -0.0003
     25  CE2       10.0120   32.1640   48.6670 C.ar   62  PHE62      -0.0003
     26  CZ        10.7890   32.1930   47.5080 C.ar   62  PHE62      -0.0000
     27  N         25.0470   15.4990   36.2740 N.3    97  PHE97      -0.1241
     28  CA        25.8370   16.5530   35.6200 C.3    97  PHE97       0.1605
     29  C         26.7010   15.9960   34.4850 C.2    97  PHE97       0.2264
     30  O         26.5950   16.4440   33.3400 O.2    97  PHE97      -0.2867
     31  CB        26.7330   17.3070   36.6230 C.3    97  PHE97       0.0534
     32  CG        25.9840   18.1420   37.6400 C.ar   97  PHE97      -0.0203
     33  CD1       24.7700   18.7460   37.3310 C.ar   97  PHE97      -0.0042
     34  CD2       26.5270   18.3520   38.9060 C.ar   97  PHE97      -0.0042
     35  CE1       24.0940   19.5170   38.2810 C.ar   97  PHE97      -0.0003
     36  CE2       25.8620   19.1250   39.8590 C.ar   97  PHE97      -0.0003
     37  CZ        24.6460   19.7070   39.5470 C.ar   97  PHE97      -0.0000
     38  N         33.8360   23.4140   39.0910 N.3   127  MET127     -0.1230
     39  CA        33.6850   24.3020   40.2550 C.3   127  MET127      0.1702
     40  C         32.7840   23.7010   41.3350 C.2   127  MET127      0.2592
     41  O         32.9640   23.9650   42.5280 O.2   127  MET127     -0.2718
     42  CB        33.1570   25.6790   39.8360 C.3   127  MET127      0.0401
     43  CG        33.2460   26.7560   40.9300 C.3   127  MET127      0.0596
     44  SD        34.9490   27.1370   41.4100 S.3   127  MET127     -0.1393
     45  CE        34.6750   28.2500   42.7830 C.3   127  MET127      0.0692
     46  N         31.8120   22.9050   40.9000 N.am  128  PHE128     -0.1976
     47  CA        30.9520   22.1440   41.7980 C.3   128  PHE128      0.1639
     48  C         31.7610   21.0860   42.5610 C.2   128  PHE128      0.2290
     49  O         31.5530   20.8900   43.7610 O.2   128  PHE128     -0.2864
     50  CB        29.8060   21.5070   41.0050 C.3   128  PHE128      0.0560
     51  CG        28.8740   20.6780   41.8370 C.ar  128  PHE128     -0.0200
     52  CD1       27.8040   21.2710   42.5050 C.ar  128  PHE128     -0.0042
     53  CD2       29.0560   19.3000   41.9410 C.ar  128  PHE128     -0.0042
     54  CE1       26.9330   20.5080   43.2740 C.ar  128  PHE128     -0.0003
     55  CE2       28.2020   18.5300   42.7080 C.ar  128  PHE128     -0.0003
     56  CZ        27.1310   19.1360   43.3770 C.ar  128  PHE128     -0.0000
     57  N         34.0660   22.8190   45.3250 N.3   131  LEU131     -0.1245
     58  CA        33.3790   23.1180   46.5860 C.3   131  LEU131      0.1561
     59  C         32.9580   21.8790   47.3780 C.2   131  LEU131      0.2260
     60  O         33.0530   21.8710   48.6060 O.2   131  LEU131     -0.2867
     61  CB        32.1440   23.9820   46.3310 C.3   131  LEU131      0.0270
     62  CG        32.2940   25.2570   45.5100 C.3   131  LEU131      0.0019
     63  CD1       30.9660   25.5550   44.8410 C.3   131  LEU131      0.0001
     64  CD2       32.7500   26.4160   46.3780 C.3   131  LEU131      0.0001
     65  N         28.8740   22.9590   51.0870 N.3   146  PHE146     -0.1241
     66  CA        27.6880   23.8080   51.2190 C.3   146  PHE146      0.1605
     67  C         26.3790   23.0160   51.2610 C.2   146  PHE146      0.2264
     68  O         26.2460   22.0040   50.5690 O.2   146  PHE146     -0.2867
     69  CB        27.6510   24.9080   50.1430 C.3   146  PHE146      0.0534
     70  CG        27.2840   24.4330   48.7650 C.ar  146  PHE146     -0.0203
     71  CD1       25.9670   24.4910   48.3250 C.ar  146  PHE146     -0.0042
     72  CD2       28.2610   23.9800   47.8890 C.ar  146  PHE146     -0.0042
     73  CE1       25.6230   24.0720   47.0430 C.ar  146  PHE146     -0.0003
     74  CE2       27.9280   23.5580   46.6030 C.ar  146  PHE146     -0.0003
     75  CZ        26.6060   23.6040   46.1800 C.ar  146  PHE146     -0.0000
     76  N         22.3040   22.0870   50.8110 N.3   148  TYR148     -0.1241
     77  CA        21.3660   22.2060   49.7040 C.3   148  TYR148      0.1605
     78  C         20.0600   22.8700   50.1410 C.2   148  TYR148      0.2264
     79  O         19.0510   22.2080   50.4040 O.2   148  TYR148     -0.2867
     80  CB        21.1450   20.8540   49.0170 C.3   148  TYR148      0.0534
     81  CG        22.4270   20.2270   48.5070 C.ar  148  TYR148     -0.0201
     82  CD1       23.4140   21.0080   47.8920 C.ar  148  TYR148     -0.0009
     83  CD2       22.6550   18.8530   48.6320 C.ar  148  TYR148     -0.0009
     84  CE1       24.5940   20.4410   47.4260 C.ar  148  TYR148      0.0417
     85  CE2       23.8350   18.2720   48.1610 C.ar  148  TYR148      0.0417
     86  CZ        24.7970   19.0750   47.5610 C.ar  148  TYR148      0.1957
     87  OH        25.9640   18.5160   47.0970 O.3   148  TYR148     -0.2866
     88  N         17.7970   26.8060   49.3530 N.3   150  ILE150     -0.1231
     89  CA        17.6740   27.9900   48.5010 C.3   150  ILE150      0.1692
     90  C         18.3010   29.2110   49.1930 C.2   150  ILE150      0.2591
     91  O         19.1540   29.8940   48.6130 O.2   150  ILE150     -0.2718
     92  CB        16.1980   28.2260   48.0550 C.3   150  ILE150      0.0266
     93  CG1       15.8130   27.1970   46.9870 C.3   150  ILE150      0.0019
     94  CG2       15.9860   29.6500   47.5290 C.3   150  ILE150      0.0020
     95  CD1       14.3340   27.1100   46.6880 C.3   150  ILE150      0.0001
     96  N         17.9060   29.4560   50.4400 N.am  151  LEU151     -0.1980
     97  CA        18.4790   30.5540   51.2120 C.3   151  LEU151      0.1596
     98  C         19.6270   30.1210   52.1180 C.2   151  LEU151      0.2287
     99  O         20.4910   30.9280   52.4470 O.2   151  LEU151     -0.2864
    100  CB        17.4050   31.2640   52.0350 C.3   151  LEU151      0.0297
    101  CG        16.4770   32.2350   51.3060 C.3   151  LEU151      0.0022
    102  CD1       15.2690   32.5140   52.1730 C.3   151  LEU151      0.0001
    103  CD2       17.1910   33.5360   50.9560 C.3   151  LEU151      0.0001
    104  N         22.1550   28.0620   51.5350 N.3   153  HIS153     -0.1226
    105  CA        23.4620   27.9830   50.8800 C.3   153  HIS153      0.1752
    106  C         24.1600   29.3480   50.8280 C.2   153  HIS153      0.2595
    107  O         25.3910   29.4230   50.8330 O.2   153  HIS153     -0.2718
    108  CB        23.3880   27.2530   49.5200 C.3   153  HIS153      0.0759
    109  CG        23.1640   28.1380   48.3290 C.ar  153  HIS153      0.0818
    110  ND1       21.9110   28.3930   47.8140 N.ar  153  HIS153     -0.2268
    111  CD2       24.0400   28.7660   47.5070 C.ar  153  HIS153      0.1154
    112  CE1       22.0210   29.1650   46.7470 C.ar  153  HIS153      0.1986
    113  NE2       23.3030   29.4080   46.5390 N.ar  153  HIS153     -0.2212
    114  N         23.3570   30.4130   50.8280 N.am  154  LEU154     -0.1980
    115  CA        23.8510   31.7830   50.9730 C.3   154  LEU154      0.1596
    116  C         24.4760   31.9770   52.3420 C.2   154  LEU154      0.2287
    117  O         25.4970   32.6520   52.4640 O.2   154  LEU154     -0.2864
    118  CB        22.7240   32.8030   50.7930 C.3   154  LEU154      0.0297
    119  CG        21.7030   32.5890   49.6730 C.3   154  LEU154      0.0022
    120  CD1       20.7220   33.7520   49.6040 C.3   154  LEU154      0.0001
    121  CD2       22.3850   32.3710   48.3340 C.3   154  LEU154      0.0001
    122  N         25.8790   29.6880   54.0960 N.3   156  TRP156     -0.1227
    123  CA        27.1340   28.9580   54.1070 C.3   156  TRP156      0.1737
    124  C         28.2220   29.8260   53.4970 C.2   156  TRP156      0.2595
    125  O         29.2950   29.9870   54.0820 O.2   156  TRP156     -0.2718
    126  CB        26.9870   27.6560   53.3310 C.3   156  TRP156      0.0564
    127  CG        28.2320   26.8410   53.2420 C.ar  156  TRP156      0.0003
    128  CD1       28.6700   25.9210   54.1410 C.ar  156  TRP156      0.0946
    129  CD2       29.1950   26.8600   52.1820 C.ar  156  TRP156      0.0152
    130  NE1       29.8510   25.3640   53.7120 N.ar  156  TRP156     -0.2442
    131  CE2       30.1940   25.9220   52.5090 C.ar  156  TRP156      0.0810
    132  CE3       29.3070   27.5780   50.9830 C.ar  156  TRP156      0.0012
    133  CZ2       31.2930   25.6800   51.6860 C.ar  156  TRP156      0.0191
    134  CZ3       30.4000   27.3360   50.1610 C.ar  156  TRP156      0.0001
    135  CH2       31.3780   26.3930   50.5180 C.ar  156  TRP156      0.0015
    136  N         27.9220   30.3860   52.3250 N.am  157  VAL157     -0.1980
    137  CA        28.8140   31.3070   51.6160 C.3   157  VAL157      0.1595
    138  C         29.1900   32.5160   52.4910 C.2   157  VAL157      0.2287
    139  O         30.3320   32.9880   52.4610 O.2   157  VAL157     -0.2864
    140  CB        28.1730   31.7660   50.2770 C.3   157  VAL157      0.0276
    141  CG1       29.0110   32.8280   49.5940 C.3   157  VAL157      0.0022
    142  CG2       27.9860   30.5800   49.3450 C.3   157  VAL157      0.0022
@<TRIPOS>BOND
     1    30    29    2
     2    29    28    1
     3    28    27    1
     4    28    31    1
     5    31    32    1
     6    33    32   ar
     7    33    35   ar
     8    32    34   ar
     9    35    37   ar
    10    34    36   ar
    11    38    39    1
    12    37    36   ar
    13    42    39    1
    14    42    43    1
    15    39    40    1
    16    46    40   am
    17    46    47    1
    18    43    44    1
    19    50    47    1
    20    50    51    1
    21    40    41    2
    22     7     5    1
    23    44    45    1
    24    47    48    1
    25    51    53   ar
    26    51    52   ar
    27    53    55   ar
    28     5     6    1
    29     5     2    1
    30    52    54   ar
    31    48    49    2
    32    55    56   ar
    33     1     2    1
    34    54    56   ar
    35     2     3    1
    36     3     4    2
    37    63    62    1
    38    57    58    1
    39    62    61    1
    40    62    64    1
    41    15    13    1
    42    75    74   ar
    43    75    73   ar
    44    61    58    1
    45   113   112   ar
    46   113   111   ar
    47    58    59    1
    48    74    72   ar
    49    95    93    1
    50   112   110   ar
    51    93    92    1
    52    13    12    1
    53    73    71   ar
    54    87    86    1
    55    59    60    2
    56    12    14    1
    57    12     9    1
    58    84    86   ar
    59    84    82   ar
    60   111   109   ar
    61    26    24   ar
    62    26    25   ar
    63    24    22   ar
    64    94    92    1
    65    86    85   ar
    66   110   109   ar
    67    72    70   ar
    68    82    81   ar
    69     8     9    1
    70    92    89    1
    71    85    83   ar
    72    71    70   ar
    73   109   108    1
    74   121   119    1
    75    89    90    1
    76    89    88    1
    77    81    83   ar
    78    81    80    1
    79     9    10    1
    80    91    90    2
    81    25    23   ar
    82    22    21   ar
    83    70    69    1
    84    80    77    1
    85    90    96   am
    86    10    11    2
    87   142   140    1
    88   108   105    1
    89   141   140    1
    90   120   119    1
    91   119   118    1
    92    77    78    1
    93    77    76    1
    94    23    21   ar
    95    21    20    1
    96    78    79    2
    97    69    66    1
    98   134   135   ar
    99   134   132   ar
   100   140   137    1
   101    96    97    1
   102   135   133   ar
   103    68    67    2
   104    16    17    1
   105   118   115    1
   106   106   114   am
   107   106   107    2
   108   106   105    1
   109   114   115    1
   110   105   104    1
   111   103   101    1
   112    17    20    1
   113    17    18    1
   114   115   116    1
   115   132   129   ar
   116    65    66    1
   117    97   100    1
   118    97    98    1
   119    66    67    1
   120   101   100    1
   121   101   102    1
   122   137   136    1
   123   137   138    1
   124   133   131   ar
   125    98    99    2
   126   129   131   ar
   127   129   127   ar
   128    18    19    2
   129   136   124   am
   130   116   117    2
   131   139   138    2
   132   131   130   ar
   133   127   126    1
   134   127   128   ar
   135   126   123    1
   136   124   125    2
   137   124   123    1
   138   130   128   ar
   139   122   123    1
