@<TRIPOS>MOLECULE
tmp/2x5wA00.pdb
 202 189 0 0 0
SMALL
GASTEIGER

@<TRIPOS>ATOM
      1  N         62.3590   33.1840   67.6430 N.3    79  ILE79      -0.1245
      2  CA        62.5850   34.2440   68.6460 C.3    79  ILE79       0.1561
      3  C         64.0970   34.4110   68.8310 C.2    79  ILE79       0.2260
      4  O         64.7930   33.4080   69.1530 O.2    79  ILE79      -0.2867
      5  CB        61.9220   33.8370   69.9770 C.3    79  ILE79       0.0252
      6  CG1       60.3900   33.5570   69.8210 C.3    79  ILE79       0.0019
      7  CG2       62.2270   34.8960   71.0560 C.3    79  ILE79       0.0019
      8  CD1       59.6110   34.6550   69.1090 C.3    79  ILE79       0.0001
      9  N         66.2090   35.3360   74.4250 N.3    82  PHE82      -0.1241
     10  CA        65.6070   34.9110   75.6940 C.3    82  PHE82       0.1605
     11  C         66.5910   35.3430   76.7790 C.2    82  PHE82       0.2264
     12  O         67.7090   35.8290   76.5180 O.2    82  PHE82      -0.2867
     13  CB        65.4530   33.3630   75.8110 C.3    82  PHE82       0.0534
     14  CG        64.7070   32.7580   74.6240 C.ar   82  PHE82      -0.0203
     15  CD1       63.2900   32.7550   74.5760 C.ar   82  PHE82      -0.0042
     16  CD2       65.4150   32.2100   73.5690 C.ar   82  PHE82      -0.0042
     17  CE1       62.5720   32.2610   73.4410 C.ar   82  PHE82      -0.0003
     18  CE2       64.7290   31.6860   72.4220 C.ar   82  PHE82      -0.0003
     19  CZ        63.3260   31.7290   72.3500 C.ar   82  PHE82      -0.0000
     20  N         68.6300   30.5560   79.4990 N.3    86  ILE86      -0.1245
     21  CA        67.5840   29.6180   79.1420 C.3    86  ILE86       0.1561
     22  C         68.2420   28.2930   78.7330 C.2    86  ILE86       0.2260
     23  O         69.2710   28.2870   78.0000 O.2    86  ILE86      -0.2867
     24  CB        66.6820   30.1900   77.9910 C.3    86  ILE86       0.0252
     25  CG1       65.4880   29.2540   77.7700 C.3    86  ILE86       0.0019
     26  CG2       67.4490   30.3780   76.6680 C.3    86  ILE86       0.0019
     27  CD1       64.3740   29.9340   76.9530 C.3    86  ILE86       0.0001
     28  N         64.5570   24.1580   76.6020 N.3    90  ASP90      -0.1239
     29  CA        63.4730   25.1300   76.7170 C.3    90  ASP90       0.1674
     30  C         63.2990   26.0630   75.5610 C.2    90  ASP90       0.2266
     31  O         62.2610   26.7430   75.4450 O.2    90  ASP90      -0.2867
     32  CB        63.5310   25.9080   78.0460 C.3    90  ASP90       0.1410
     33  CG        63.3320   24.9890   79.2670 C.2    90  ASP90       0.3668
     34  OD1       62.5220   24.0430   79.1450 O.co2  90  ASP90      -0.2456
     35  OD2       63.9910   25.1890   80.3360 O.co2  90  ASP90      -0.2456
     36  N         61.5450   23.1620   73.0890 N.3    93  VAL93      -0.1231
     37  CA        60.1120   22.8390   73.3470 C.3    93  VAL93       0.1692
     38  C         59.2130   23.7610   72.5370 C.2    93  VAL93       0.2591
     39  O         58.1010   23.4120   72.1820 O.2    93  VAL93      -0.2718
     40  CB        59.7900   22.8990   74.8290 C.3    93  VAL93       0.0266
     41  CG1       59.8050   24.3480   75.2720 C.3    93  VAL93       0.0020
     42  CG2       58.4350   22.2290   75.1740 C.3    93  VAL93       0.0020
     43  N         59.7570   24.9190   72.1540 N.am   94  GLN94      -0.1979
     44  CA        58.9560   25.8760   71.3720 C.3    94  GLN94       0.1601
     45  C         58.8210   25.4340   69.9080 C.2    94  GLN94       0.2287
     46  O         58.0120   26.0330   69.1950 O.2    94  GLN94      -0.2864
     47  CB        59.6270   27.2650   71.4690 C.3    94  GLN94       0.0394
     48  CG        59.7670   27.7900   72.9250 C.3    94  GLN94       0.0908
     49  CD        60.5550   29.0700   72.9610 C.2    94  GLN94       0.2608
     50  OE1       60.3520   29.9990   72.1140 O.2    94  GLN94      -0.2717
     51  NE2       61.5010   29.1350   73.9230 N.am   94  GLN94      -0.0878
     52  N         55.2530   25.0050   68.6420 N.3    97  VAL97      -0.1245
     53  CA        54.4880   26.1270   68.1470 C.3    97  VAL97       0.1561
     54  C         54.6300   26.1180   66.6450 C.2    97  VAL97       0.2260
     55  O         55.7500   25.9910   66.1110 O.2    97  VAL97      -0.2867
     56  CB        55.0930   27.4150   68.7710 C.3    97  VAL97       0.0252
     57  CG1       54.5650   28.6590   68.1670 C.3    97  VAL97       0.0019
     58  CG2       54.8890   27.4090   70.3190 C.3    97  VAL97       0.0019
     59  N         54.5150   28.4240   64.4780 N.3    99  LEU99      -0.1231
     60  CA        55.4940   29.4830   64.0210 C.3    99  LEU99       0.1693
     61  C         56.9300   28.9370   63.8430 C.2    99  LEU99       0.2592
     62  O         57.6890   29.4310   63.0400 O.2    99  LEU99      -0.2718
     63  CB        55.5090   30.6140   65.0800 C.3    99  LEU99       0.0284
     64  CG        56.4060   31.8110   64.8220 C.3    99  LEU99       0.0019
     65  CD1       55.7910   32.7130   63.6920 C.3    99  LEU99       0.0001
     66  CD2       56.4140   32.5890   66.1830 C.3    99  LEU99       0.0001
     67  N         57.3190   27.9720   64.6860 N.am  100  ASN100     -0.1974
     68  CA        58.6430   27.3900   64.7210 C.3   100  ASN100      0.1688
     69  C         58.7670   26.0630   63.9670 C.2   100  ASN100      0.2292
     70  O         59.6880   25.2730   64.2340 O.2   100  ASN100     -0.2864
     71  CB        59.0630   27.1880   66.2170 C.3   100  ASN100      0.1181
     72  CG        59.4510   28.5050   66.8930 C.2   100  ASN100      0.2629
     73  OD1       59.9780   29.4210   66.2290 O.2   100  ASN100     -0.2716
     74  ND2       59.1820   28.6240   68.1860 N.am  100  ASN100     -0.0877
     75  N         54.6530   35.4510   79.7800 N.3   182  MET182     -0.1230
     76  CA        55.5200   34.6100   78.9320 C.3   182  MET182      0.1702
     77  C         56.3710   35.4830   78.0380 C.2   182  MET182      0.2593
     78  O         57.4700   35.0640   77.6250 O.2   182  MET182     -0.2718
     79  CB        54.6600   33.7150   78.0480 C.3   182  MET182      0.0401
     80  CG        54.0560   32.5170   78.8020 C.3   182  MET182      0.0596
     81  SD        53.2320   31.3620   77.6660 S.3   182  MET182     -0.1393
     82  CE        51.8280   32.3000   77.1540 C.3   182  MET182      0.0692
     83  N         55.9160   36.7060   77.7400 N.am  183  THR183     -0.1953
     84  CA        56.6760   37.5850   76.8110 C.3   183  THR183      0.1897
     85  C         57.3930   38.7290   77.5340 C.2   183  THR183      0.2313
     86  O         58.1490   39.4780   76.9310 O.2   183  THR183     -0.2863
     87  CB        55.7750   38.1730   75.7060 C.3   183  THR183      0.1794
     88  OG1       54.6820   38.8570   76.3170 O.3   183  THR183     -0.2208
     89  CG2       55.2180   37.0840   74.8240 C.3   183  THR183      0.0378
     90  N         59.3990   38.3480   80.3430 N.3   185  ASN185     -0.1240
     91  CA        60.1890   37.7660   81.3890 C.3   185  ASN185      0.1653
     92  C         61.5390   38.4380   81.6540 C.2   185  ASN185      0.2266
     93  O         62.1530   38.2600   82.7560 O.2   185  ASN185     -0.2867
     94  CB        60.2470   36.2560   81.2120 C.3   185  ASN185      0.1155
     95  CG        61.5610   35.7690   80.7260 C.2   185  ASN185      0.2627
     96  OD1       62.2650   34.9270   81.3890 O.2   185  ASN185     -0.2716
     97  ND2       61.9260   36.2230   79.5470 N.am  185  ASN185     -0.0877
     98  N         58.4630   32.0280   83.3810 N.3   195  PRO195     -0.2102
     99  CA        57.6090   31.9060   82.1810 C.3   195  PRO195      0.1504
    100  C         57.2620   30.4730   81.8370 C.2   195  PRO195      0.2575
    101  O         56.2000   30.2520   81.2060 O.2   195  PRO195     -0.2718
    102  CB        58.4420   32.6250   81.0880 C.3   195  PRO195      0.0282
    103  CG        59.8990   32.2500   81.4970 C.3   195  PRO195      0.0208
    104  CD        59.8490   32.4580   83.0640 C.3   195  PRO195      0.0893
    105  N         58.0860   29.4760   82.2690 N.am  196  LYS196     -0.1980
    106  CA        57.7210   28.0770   82.0550 C.3   196  LYS196      0.1596
    107  C         56.4530   27.6890   82.8170 C.2   196  LYS196      0.2287
    108  O         55.6270   26.9250   82.3260 O.2   196  LYS196     -0.2864
    109  CB        58.8290   27.1320   82.4760 C.3   196  LYS196      0.0298
    110  CG        59.9830   27.2770   81.6700 C.3   196  LYS196      0.0038
    111  CD        61.0420   26.2250   82.1030 C.3   196  LYS196      0.0206
    112  CE        60.5450   24.7920   81.9410 C.3   196  LYS196      0.1093
    113  NZ        61.7100   23.7980   81.8800 N.3   196  LYS196     -0.1314
    114  N         53.5170   29.3220   81.0650 N.3   199  SER199     -0.1217
    115  CA        53.1260   28.5100   79.9070 C.3   199  SER199      0.1889
    116  C         52.3060   27.2950   80.4060 C.2   199  SER199      0.2288
    117  O         51.2990   26.9230   79.8440 O.2   199  SER199     -0.2866
    118  CB        54.4040   28.0070   79.2040 C.3   199  SER199      0.2089
    119  OG        54.0340   27.2460   78.0530 O.3   199  SER199     -0.2183
    120  N         50.3750   24.1740   72.7290 N.3   242  PHE242     -0.1241
    121  CA        51.2050   25.2600   72.2040 C.3   242  PHE242      0.1605
    122  C         50.4940   26.0230   71.0820 C.2   242  PHE242      0.2264
    123  O         50.8660   27.1340   70.8270 O.2   242  PHE242     -0.2867
    124  CB        52.5990   24.7600   71.8220 C.3   242  PHE242      0.0534
    125  CG        53.5260   24.7390   73.0100 C.ar  242  PHE242     -0.0203
    126  CD1       54.1110   25.9350   73.4300 C.ar  242  PHE242     -0.0042
    127  CD2       53.7880   23.5570   73.7010 C.ar  242  PHE242     -0.0042
    128  CE1       54.9840   25.9970   74.5800 C.ar  242  PHE242     -0.0003
    129  CE2       54.6470   23.5700   74.8510 C.ar  242  PHE242     -0.0003
    130  CZ        55.2630   24.7920   75.2630 C.ar  242  PHE242     -0.0000
    131  N         48.9900   28.5930   73.2940 N.3   245  VAL245     -0.1231
    132  CA        50.0690   29.5110   73.6680 C.3   245  VAL245      0.1692
    133  C         50.3350   30.4890   72.5260 C.2   245  VAL245      0.2591
    134  O         50.3530   31.7430   72.7590 O.2   245  VAL245     -0.2718
    135  CB        51.3740   28.7460   74.0140 C.3   245  VAL245      0.0266
    136  CG1       52.5600   29.7580   74.1700 C.3   245  VAL245      0.0020
    137  CG2       51.1280   27.9310   75.3700 C.3   245  VAL245      0.0020
    138  N         50.4970   29.9280   71.3220 N.am  246  MET246     -0.1979
    139  CA        50.9050   30.8110   70.2160 C.3   246  MET246      0.1605
    140  C         49.7930   31.8220   69.9310 C.2   246  MET246      0.2287
    141  O         50.0550   33.0140   69.6840 O.2   246  MET246     -0.2864
    142  CB        51.1040   29.9410   68.9410 C.3   246  MET246      0.0413
    143  CG        51.4020   30.8150   67.7320 C.3   246  MET246      0.0598
    144  SD        51.5860   29.8760   66.2070 S.3   246  MET246     -0.1393
    145  CE        49.9290   29.1370   66.0690 C.3   246  MET246      0.0692
    146  N         49.3740   34.5140   72.5970 N.3   249  VAL249     -0.1231
    147  CA        50.4420   35.5080   72.5220 C.3   249  VAL249      0.1692
    148  C         50.2780   36.4280   71.2690 C.2   249  VAL249      0.2591
    149  O         50.3540   37.6620   71.3390 O.2   249  VAL249     -0.2718
    150  CB        51.8140   34.8370   72.5240 C.3   249  VAL249      0.0266
    151  CG1       52.8700   35.8960   72.1690 C.3   249  VAL249      0.0020
    152  CG2       52.1300   34.3150   73.9220 C.3   249  VAL249      0.0020
    153  N         49.9920   35.8370   70.1280 N.am  250  ALA250     -0.1980
    154  CA        49.8070   36.6300   68.8660 C.3   250  ALA250      0.1597
    155  C         48.6390   37.5450   69.1470 C.2   250  ALA250      0.2287
    156  O         48.7160   38.7180   68.7570 O.2   250  ALA250     -0.2864
    157  CB        49.5150   35.6460   67.7120 C.3   250  ALA250      0.0319
    158  N         50.5710   41.7740   70.0730 N.3   254  THR254     -0.1218
    159  CA        50.9210   42.4370   68.8030 C.3   254  THR254      0.1862
    160  C         50.0140   43.6350   68.6200 C.2   254  THR254      0.2287
    161  O         50.4940   44.7980   68.6630 O.2   254  THR254     -0.2866
    162  CB        50.8530   41.4690   67.6090 C.3   254  THR254      0.1770
    163  OG1       49.5470   40.9050   67.6040 O.3   254  THR254     -0.2211
    164  CG2       51.8580   40.3520   67.7660 C.3   254  THR254      0.0375
    165  N         56.4200   43.5430   66.1850 N.3   295  VAL295     -0.1245
    166  CA        57.5350   42.5580   66.2650 C.3   295  VAL295      0.1561
    167  C         58.7530   43.1910   65.6650 C.2   295  VAL295      0.2260
    168  O         58.8070   43.4490   64.4410 O.2   295  VAL295     -0.2867
    169  CB        57.2140   41.2520   65.5550 C.3   295  VAL295      0.0252
    170  CG1       58.4560   40.2840   65.5730 C.3   295  VAL295      0.0019
    171  CG2       55.9430   40.5810   66.1070 C.3   295  VAL295      0.0019
    172  N         62.3200   38.7380   63.9010 N.3   298  PHE298     -0.1241
    173  CA        62.3330   37.2780   64.0260 C.3   298  PHE298      0.1605
    174  C         63.5510   36.7260   63.2630 C.2   298  PHE298      0.2264
    175  O         64.0740   37.3790   62.3420 O.2   298  PHE298     -0.2867
    176  CB        61.1020   36.6460   63.4260 C.3   298  PHE298      0.0534
    177  CG        59.8490   36.7120   64.2820 C.ar  298  PHE298     -0.0203
    178  CD1       59.8930   36.5870   65.7170 C.ar  298  PHE298     -0.0042
    179  CD2       58.6050   36.8420   63.6640 C.ar  298  PHE298     -0.0042
    180  CE1       58.7330   36.6170   66.4420 C.ar  298  PHE298     -0.0003
    181  CE2       57.4060   36.8620   64.3710 C.ar  298  PHE298     -0.0003
    182  CZ        57.4480   36.7210   65.7850 C.ar  298  PHE298     -0.0000
    183  N         51.6620   36.1520   58.5200 N.3   359  CYS359     -0.1235
    184  CA        50.6820   36.3310   59.6430 C.3   359  CYS359      0.1677
    185  C         49.2450   35.9080   59.2660 C.2   359  CYS359      0.2270
    186  O         48.6270   36.5310   58.3440 O.2   359  CYS359     -0.2867
    187  CB        50.6730   37.7760   59.9860 C.3   359  CYS359      0.0956
    188  SG        49.4870   38.1310   61.3240 S.3   359  CYS359     -0.0801
    189  N         63.0840   41.4270   71.2600 N.3   396  TRP396     -0.1241
    190  CA        62.4570   41.1680   69.9120 C.3   396  TRP396      0.1605
    191  C         61.0310   41.7200   69.7910 C.2   396  TRP396      0.2264
    192  O         60.5300   41.9100   68.7080 O.2   396  TRP396     -0.2867
    193  CB        62.5050   39.6390   69.6010 C.3   396  TRP396      0.0550
    194  CG        61.6060   38.8670   70.5650 C.ar  396  TRP396      0.0003
    195  CD1       61.9850   38.3920   71.8120 C.ar  396  TRP396      0.0946
    196  CD2       60.2530   38.5260   70.4060 C.ar  396  TRP396      0.0152
    197  NE1       60.9330   37.7810   72.4310 N.ar  396  TRP396     -0.2442
    198  CE2       59.8430   37.8560   71.5900 C.ar  396  TRP396      0.0810
    199  CE3       59.2940   38.7660   69.4200 C.ar  396  TRP396      0.0012
    200  CZ2       58.5240   37.4090   71.7780 C.ar  396  TRP396      0.0191
    201  CZ3       58.0320   38.2260   69.5570 C.ar  396  TRP396      0.0001
    202  CH2       57.6230   37.6480   70.7810 C.ar  396  TRP396      0.0015
@<TRIPOS>BOND
     1   186   185    2
     2   183   184    1
     3   185   184    1
     4   184   187    1
     5   187   188    1
     6   175   174    2
     7    62    61    2
     8   174   173    1
     9   176   173    1
    10   176   177    1
    11   179   177   ar
    12   179   181   ar
    13    65    64    1
    14    61    60    1
    15    61    67   am
    16   172   173    1
    17    69    70    2
    18    69    68    1
    19    60    59    1
    20    60    63    1
    21   177   178   ar
    22   181   182   ar
    23   168   167    2
    24    67    68    1
    25    68    71    1
    26    64    63    1
    27    64    66    1
    28   169   170    1
    29   169   171    1
    30   169   166    1
    31   167   166    1
    32   178   180   ar
    33   182   180   ar
    34   145   144    1
    35    55    54    2
    36   165   166    1
    37   144   143    1
    38    71    72    1
    39    73    72    2
    40    54    53    1
    41    72    74   am
    42   163   162    1
    43   162   164    1
    44   162   159    1
    45     1     2    1
    46   157   154    1
    47   143   142    1
    48    53    52    1
    49    53    56    1
    50    57    56    1
    51   160   161    2
    52   160   159    1
    53     2     3    1
    54     2     5    1
    55   192   191    2
    56   156   155    2
    57    56    58    1
    58   159   158    1
    59     3     4    2
    60   154   155    1
    61   154   153    1
    62   142   139    1
    63     8     6    1
    64    46    45    2
    65   199   201   ar
    66   199   196   ar
    67   201   202   ar
    68   193   190    1
    69   193   194    1
    70   141   140    2
    71   191   190    1
    72     6     5    1
    73    45    44    1
    74   190   189    1
    75   140   139    1
    76     5     7    1
    77   153   148   am
    78   139   138    1
    79   196   194   ar
    80   196   198   ar
    81   194   195   ar
    82   202   200   ar
    83   123   122    2
    84   122   121    1
    85   148   149    2
    86   148   147    1
    87   138   133   am
    88    44    47    1
    89    44    43    1
    90    47    48    1
    91   198   200   ar
    92   198   197   ar
    93   195   197   ar
    94   124   121    1
    95   124   125    1
    96    50    49    2
    97    43    38   am
    98   151   150    1
    99    39    38    2
   100   121   120    1
   101    19    18   ar
   102    19    17   ar
   103    18    16   ar
   104   147   150    1
   105   147   146    1
   106   150   152    1
   107   133   134    2
   108   133   132    1
   109    38    37    1
   110    48    49    1
   111    49    51   am
   112   125   126   ar
   113   125   127   ar
   114    36    37    1
   115   131   132    1
   116    37    40    1
   117   126   128   ar
   118    17    15   ar
   119    16    14   ar
   120   132   135    1
   121   127   129   ar
   122   135   136    1
   123   135   137    1
   124     9    10    1
   125    15    14   ar
   126   128   130   ar
   127    14    13    1
   128    89    87    1
   129    40    42    1
   130    40    41    1
   131   129   130   ar
   132    31    30    2
   133    30    29    1
   134    10    13    1
   135    10    11    1
   136    87    88    1
   137    87    84    1
   138    12    11    2
   139    28    29    1
   140    26    24    1
   141    29    32    1
   142    84    85    1
   143    84    83    1
   144    86    85    2
   145    27    25    1
   146    82    81    1
   147    78    77    2
   148    81    80    1
   149    83    77   am
   150    25    24    1
   151    24    21    1
   152    23    22    2
   153    77    76    1
   154    32    33    1
   155    79    80    1
   156    79    76    1
   157   119   118    1
   158    22    21    1
   159    76    75    1
   160    21    20    1
   161    34    33   ar
   162   118   115    1
   163    33    35   ar
   164    97    95   am
   165   117   116    2
   166   115   116    1
   167   115   114    1
   168    90    91    1
   169    95    94    1
   170    95    96    2
   171   102   103    1
   172   102    99    1
   173   101   100    2
   174    94    91    1
   175    91    92    1
   176   103   104    1
   177    92    93    2
   178   110   111    1
   179   110   109    1
   180   100    99    1
   181   100   105   am
   182   113   112    1
   183   112   111    1
   184   106   105    1
   185   106   109    1
   186   106   107    1
   187    99    98    1
   188   108   107    2
   189   104    98    1
