@<TRIPOS>MOLECULE
tmp/2x60B00.pdb
 177 169 0 0 0
SMALL
GASTEIGER

@<TRIPOS>ATOM
      1  N         51.1430  -17.5090  -54.7150 N.3     7  LEU7       -0.1231
      2  CA        49.7950  -17.7500  -55.2450 C.3     7  LEU7        0.1693
      3  C         48.7490  -17.0290  -54.4010 C.2     7  LEU7        0.2592
      4  O         48.4040  -17.5070  -53.3290 O.2     7  LEU7       -0.2718
      5  CB        49.4840  -19.2590  -55.2490 C.3     7  LEU7        0.0284
      6  CG        50.4130  -20.2130  -56.0230 C.3     7  LEU7        0.0019
      7  CD1       49.9900  -21.6550  -55.7940 C.3     7  LEU7        0.0001
      8  CD2       50.4540  -19.8980  -57.5210 C.3     7  LEU7        0.0001
      9  N         48.2510  -15.8870  -54.8770 N.am    8  ALA8       -0.1966
     10  CA        47.2290  -15.1140  -54.1490 C.3     8  ALA8        0.1728
     11  C         45.9660  -14.8370  -55.0020 C.2     8  ALA8        0.2617
     12  O         45.3300  -13.7770  -54.8860 O.2     8  ALA8       -0.2715
     13  CB        47.8330  -13.8110  -53.6130 C.3     8  ALA8        0.0334
     14  N         45.5860  -15.8190  -55.8240 N.am    9  GLY9       -0.1940
     15  CA        44.5340  -15.6290  -56.8340 C.3     9  GLY9        0.2014
     16  C         43.2070  -16.3420  -56.5890 C.2     9  GLY9        0.2639
     17  O         42.3340  -16.3420  -57.4750 O.2     9  GLY9       -0.2714
     18  N         43.0480  -16.9490  -55.4090 N.am   10  GLY10      -0.1939
     19  CA        41.7920  -17.6110  -55.0320 C.3    10  GLY10       0.2014
     20  C         40.8040  -16.7260  -54.2740 C.2    10  GLY10       0.2640
     21  O         41.1040  -15.5760  -53.9320 O.2    10  GLY10      -0.2714
     22  N         39.6220  -17.2760  -54.0020 N.am   11  SER11      -0.1935
     23  CA        38.5260  -16.5340  -53.3590 C.3    11  SER11       0.2055
     24  C         38.5550  -16.5820  -51.8190 C.2    11  SER11       0.2644
     25  O         38.1690  -15.6200  -51.1420 O.2    11  SER11      -0.2714
     26  CB        37.1840  -17.1150  -53.8070 C.3    11  SER11       0.2130
     27  OG        37.2150  -17.5570  -55.1500 O.3    11  SER11      -0.2179
     28  N         38.9690  -17.7190  -51.2640 N.am   12  GLY12      -0.1939
     29  CA        38.8400  -17.9350  -49.8420 C.3    12  GLY12       0.2014
     30  C         37.3700  -18.1000  -49.5090 C.2    12  GLY12       0.2639
     31  O         36.8420  -17.4500  -48.6040 O.2    12  GLY12      -0.2714
     32  N         36.6960  -18.9700  -50.2460 N.am   13  GLU13      -0.1963
     33  CA        35.2820  -19.1790  -50.0080 C.3    13  GLU13       0.1733
     34  C         34.9860  -19.8010  -48.6580 C.2    13  GLU13       0.2616
     35  O         34.0400  -19.3930  -47.9940 O.2    13  GLU13      -0.2715
     36  CB        34.6650  -20.0080  -51.1200 C.3    13  GLU13       0.0429
     37  CG        34.3850  -19.1610  -52.3490 C.3    13  GLU13       0.1163
     38  CD        34.1260  -19.9710  -53.5800 C.2    13  GLU13       0.3649
     39  OE1       34.1890  -21.2190  -53.5020 O.co2  13  GLU13      -0.2457
     40  OE2       33.8670  -19.3500  -54.6290 O.co2  13  GLU13      -0.2457
     41  N         35.8000  -20.7570  -48.2250 N.am   14  ARG14      -0.1963
     42  CA        35.5320  -21.4710  -46.9680 C.3    14  ARG14       0.1729
     43  C         35.6110  -20.6110  -45.6940 C.2    14  ARG14       0.2616
     44  O         35.2750  -21.0840  -44.6090 O.2    14  ARG14      -0.2715
     45  CB        36.4520  -22.6860  -46.8480 C.3    14  ARG14       0.0348
     46  CG        36.0940  -23.8070  -47.7870 C.3    14  ARG14       0.0492
     47  CD        37.1920  -24.8590  -47.9000 C.3    14  ARG14       0.2205
     48  NE        38.3620  -24.3610  -48.6230 N.pl3  14  ARG14      -0.0865
     49  CZ        39.5490  -24.9650  -48.6740 C.cat  14  ARG14       0.5346
     50  NH1       39.7640  -26.1150  -48.0550 N.pl3  14  ARG14       0.1354
     51  NH2       40.5400  -24.4070  -49.3490 N.pl3  14  ARG14       0.1354
     52  N         36.0200  -19.3520  -45.8220 N.am   15  PHE15      -0.1974
     53  CA        36.1310  -18.4570  -44.6630 C.3    15  PHE15       0.1639
     54  C         35.0130  -17.4370  -44.5450 C.2    15  PHE15       0.2290
     55  O         35.0660  -16.5380  -43.7150 O.2    15  PHE15      -0.2864
     56  CB        37.5010  -17.7750  -44.6370 C.3    15  PHE15       0.0560
     57  CG        38.4900  -18.5220  -43.8340 C.ar   15  PHE15      -0.0200
     58  CD1       39.0920  -19.6460  -44.3510 C.ar   15  PHE15      -0.0042
     59  CD2       38.7590  -18.1460  -42.5380 C.ar   15  PHE15      -0.0042
     60  CE1       39.9670  -20.3720  -43.6010 C.ar   15  PHE15      -0.0003
     61  CE2       39.6350  -18.8630  -41.7720 C.ar   15  PHE15      -0.0003
     62  CZ        40.2450  -19.9790  -42.2990 C.ar   15  PHE15      -0.0000
     63  N         40.4840  -14.0580  -48.0110 N.3    25  LYS25      -0.1231
     64  CA        41.1760  -14.3650  -46.7650 C.3    25  LYS25       0.1693
     65  C         42.5760  -13.7960  -46.7630 C.2    25  LYS25       0.2591
     66  O         43.0240  -13.2700  -45.7430 O.2    25  LYS25      -0.2718
     67  CB        41.1890  -15.8640  -46.4640 C.3    25  LYS25       0.0285
     68  CG        41.8560  -16.7490  -47.4920 C.3    25  LYS25       0.0035
     69  CD        41.7750  -18.1860  -47.0330 C.3    25  LYS25       0.0206
     70  CE        42.4090  -19.1330  -48.0070 C.3    25  LYS25       0.1093
     71  NZ        42.7090  -20.4020  -47.3080 N.3    25  LYS25      -0.1314
     72  N         43.2400  -13.8540  -47.9160 N.am   26  GLN26      -0.1979
     73  CA        44.6060  -13.3210  -48.0660 C.3    26  GLN26       0.1601
     74  C         44.8770  -11.9460  -47.4370 C.2    26  GLN26       0.2287
     75  O         46.0020  -11.6820  -47.0360 O.2    26  GLN26      -0.2864
     76  CB        45.0510  -13.3060  -49.5390 C.3    26  GLN26       0.0394
     77  CG        43.9810  -12.9660  -50.5760 C.3    26  GLN26       0.0908
     78  CD        43.4370  -14.2030  -51.2780 C.2    26  GLN26       0.2608
     79  OE1       43.0060  -15.1690  -50.6300 O.2    26  GLN26      -0.2717
     80  NE2       43.4570  -14.1800  -52.6130 N.am   26  GLN26      -0.0878
     81  N         50.9570  -14.2360  -58.5100 N.3    56  VAL56      -0.1245
     82  CA        49.8770  -14.5380  -59.4710 C.3    56  VAL56       0.1561
     83  C         48.5130  -14.3310  -58.8040 C.2    56  VAL56       0.2260
     84  O         48.1770  -15.0080  -57.8310 O.2    56  VAL56      -0.2867
     85  CB        49.9660  -15.9890  -60.0260 C.3    56  VAL56       0.0252
     86  CG1       48.8470  -16.2580  -61.0130 C.3    56  VAL56       0.0019
     87  CG2       51.2980  -16.2280  -60.6900 C.3    56  VAL56       0.0019
     88  N         45.3180  -12.1230  -63.3590 N.3    80  GLU80      -0.1245
     89  CA        44.5720  -13.1160  -64.1350 C.3    80  GLU80       0.1567
     90  C         43.1600  -12.6250  -64.4550 C.2    80  GLU80       0.2260
     91  O         42.5520  -11.9130  -63.6490 O.2    80  GLU80      -0.2867
     92  CB        44.4320  -14.4320  -63.3730 C.3    80  GLU80       0.0388
     93  CG        45.6930  -15.2580  -63.2080 C.3    80  GLU80       0.1160
     94  CD        45.4180  -16.5360  -62.4290 C.2    80  GLU80       0.3649
     95  OE1       44.5820  -16.4980  -61.5020 O.co2  80  GLU80      -0.2457
     96  OE2       46.0260  -17.5770  -62.7470 O.co2  80  GLU80      -0.2457
     97  N         39.9070  -17.1120  -62.2890 N.3    83  LYS83      -0.1231
     98  CA        40.5730  -18.1150  -61.4580 C.3    83  LYS83       0.1693
     99  C         40.2180  -19.5210  -61.9440 C.2    83  LYS83       0.2592
    100  O         39.0410  -19.8520  -62.1120 O.2    83  LYS83      -0.2718
    101  CB        40.2350  -17.9500  -59.9680 C.3    83  LYS83       0.0285
    102  CG        38.8170  -17.4750  -59.6490 C.3    83  LYS83       0.0035
    103  CD        38.4490  -17.6990  -58.1720 C.3    83  LYS83       0.0206
    104  CE        38.3480  -19.1870  -57.8310 C.3    83  LYS83       0.1093
    105  NZ        37.2160  -19.4950  -56.9110 N.3    83  LYS83      -0.1314
    106  N         41.2470  -20.3280  -62.1920 N.am   84  LYS84      -0.1966
    107  CA        41.0750  -21.7080  -62.6410 C.3    84  LYS84       0.1728
    108  C         41.9530  -22.6270  -61.7850 C.2    84  LYS84       0.2616
    109  O         42.5340  -23.6000  -62.2700 O.2    84  LYS84      -0.2715
    110  CB        41.4300  -21.8300  -64.1240 C.3    84  LYS84       0.0311
    111  CG        40.8040  -20.7710  -65.0330 C.3    84  LYS84       0.0038
    112  CD        39.2840  -20.8910  -65.1570 C.3    84  LYS84       0.0206
    113  CE        38.8570  -21.7140  -66.3810 C.3    84  LYS84       0.1093
    114  NZ        37.3740  -21.6300  -66.5840 N.3    84  LYS84      -0.1314
    115  N         42.0190  -22.2890  -60.4940 N.am   85  ASN85      -0.1958
    116  CA        42.7880  -23.0160  -59.4630 C.3    85  ASN85       0.1819
    117  C         44.3040  -23.0070  -59.7000 C.2    85  ASN85       0.2621
    118  O         44.7950  -22.3570  -60.6320 O.2    85  ASN85      -0.2715
    119  CB        42.2280  -24.4400  -59.2370 C.3    85  ASN85       0.1195
    120  CG        40.9640  -24.4520  -58.3620 C.2    85  ASN85       0.2630
    121  OD1       40.7810  -23.6000  -57.4910 O.2    85  ASN85      -0.2716
    122  ND2       40.0900  -25.4290  -58.5980 N.am   85  ASN85      -0.0877
    123  N         45.0310  -23.7140  -58.8340 N.am   86  THR86      -0.1951
    124  CA        46.4920  -23.6150  -58.7340 C.3    86  THR86       0.1897
    125  C         47.2840  -24.1260  -59.9550 C.2    86  THR86       0.2313
    126  O         48.4400  -23.7300  -60.1420 O.2    86  THR86      -0.2863
    127  CB        47.0150  -24.3420  -57.4510 C.3    86  THR86       0.1794
    128  OG1       46.7050  -25.7420  -57.5150 O.3    86  THR86      -0.2208
    129  CG2       46.3970  -23.7490  -56.1840 C.3    86  THR86       0.0378
    130  N         47.6200  -21.2400  -62.6080 N.3    89  ALA89      -0.1245
    131  CA        48.3370  -20.2710  -61.7750 C.3    89  ALA89       0.1562
    132  C         49.8620  -20.4820  -61.7610 C.2    89  ALA89       0.2260
    133  O         50.6380  -19.5130  -61.8040 O.2    89  ALA89      -0.2867
    134  CB        47.7930  -20.3230  -60.3590 C.3    89  ALA89       0.0290
    135  N         51.6840  -20.8920  -51.6470 N.3   107  PRO107     -0.2102
    136  CA        50.4070  -20.3620  -51.1910 C.3   107  PRO107      0.1504
    137  C         50.5710  -19.2430  -50.1520 C.2   107  PRO107      0.2576
    138  O         51.4960  -19.2960  -49.3290 O.2   107  PRO107     -0.2718
    139  CB        49.7460  -21.5840  -50.5450 C.3   107  PRO107      0.0282
    140  CG        50.2630  -22.7160  -51.2850 C.3   107  PRO107      0.0208
    141  CD        51.6670  -22.3650  -51.6840 C.3   107  PRO107      0.0893
    142  N         49.6730  -18.2590  -50.1710 N.am  108  ALA108     -0.1966
    143  CA        49.7320  -17.1610  -49.2100 C.3   108  ALA108      0.1728
    144  C         48.9290  -17.4120  -47.9300 C.2   108  ALA108      0.2616
    145  O         48.8560  -16.5420  -47.0680 O.2   108  ALA108     -0.2715
    146  CB        49.2670  -15.8790  -49.8630 C.3   108  ALA108      0.0334
    147  N         48.3170  -18.5880  -47.8040 N.am  109  ASP109     -0.1971
    148  CA        47.4470  -18.8900  -46.6600 C.3   109  ASP109      0.1709
    149  C         48.0940  -19.8850  -45.6860 C.2   109  ASP109      0.2293
    150  O         47.4000  -20.5730  -44.9550 O.2   109  ASP109     -0.2864
    151  CB        46.0880  -19.4050  -47.1480 C.3   109  ASP109      0.1436
    152  CG        46.1510  -20.8240  -47.7410 C.2   109  ASP109      0.3671
    153  OD1       47.2290  -21.2670  -48.2090 O.co2 109  ASP109     -0.2456
    154  OD2       45.0980  -21.5050  -47.7420 O.co2 109  ASP109     -0.2456
    155  N         47.6500  -24.8510  -42.5490 N.3   260  ASP260     -0.1239
    156  CA        46.9880  -24.2950  -43.7140 C.3   260  ASP260      0.1674
    157  C         45.6470  -23.6640  -43.3400 C.2   260  ASP260      0.2266
    158  O         44.6950  -24.3630  -42.9580 O.2   260  ASP260     -0.2867
    159  CB        46.7230  -25.3850  -44.7460 C.3   260  ASP260      0.1410
    160  CG        45.6400  -24.9940  -45.7090 C.2   260  ASP260      0.3668
    161  OD1       45.7500  -23.8850  -46.2720 O.co2 260  ASP260     -0.2456
    162  OD2       44.6670  -25.7570  -45.8750 O.co2 260  ASP260     -0.2456
    163  N         42.8860  -23.3990  -44.3420 N.3   262  GLY262     -0.1225
    164  CA        41.9820  -23.9700  -45.3350 C.3   262  GLY262      0.1811
    165  C         40.5480  -23.6190  -44.9950 C.2   262  GLY262      0.2280
    166  O         39.8650  -22.9220  -45.7580 O.2   262  GLY262     -0.2866
    167  N         32.0160  -23.5810  -48.7260 N.3   326  ARG326     -0.1245
    168  CA        31.8810  -23.1810  -50.1290 C.3   326  ARG326      0.1563
    169  C         30.4180  -23.0520  -50.5300 C.2   326  ARG326      0.2260
    170  O         30.0090  -21.9940  -51.0020 O.2   326  ARG326     -0.2867
    171  CB        32.5600  -24.1710  -51.0800 C.3   326  ARG326      0.0307
    172  CG        34.0240  -23.9180  -51.2630 C.3   326  ARG326      0.0489
    173  CD        34.5700  -24.5170  -52.5520 C.3   326  ARG326      0.2205
    174  NE        36.0030  -24.7490  -52.3980 N.pl3 326  ARG326     -0.0865
    175  CZ        36.5310  -25.7870  -51.7460 C.cat 326  ARG326      0.5346
    176  NH1       35.7390  -26.7200  -51.2010 N.pl3 326  ARG326      0.1354
    177  NH2       37.8590  -25.9020  -51.6420 N.pl3 326  ARG326      0.1354
@<TRIPOS>BOND
     1   114   113    1
     2   113   112    1
     3   112   111    1
     4   111   110    1
     5    90    89    1
     6    90    91    2
     7    89    92    1
     8    89    88    1
     9   110   107    1
    10    92    93    1
    11    93    94    1
    12    96    94   ar
    13   107   106    1
    14   107   108    1
    15   130   131    1
    16    94    95   ar
    17    97    98    1
    18   109   108    2
    19   106    99   am
    20   100    99    2
    21    99    98    1
    22   133   132    2
    23   108   115   am
    24   131   132    1
    25   131   134    1
    26    98   101    1
    27    86    85    1
    28    87    85    1
    29   118   117    2
    30   115   116    1
    31   126   125    2
    32    85    82    1
    33   101   102    1
    34   125   124    1
    35   117   116    1
    36   117   123   am
    37   102   103    1
    38    82    83    1
    39    82    81    1
    40   116   119    1
    41   119   120    1
    42   123   124    1
    43    83    84    2
    44   124   127    1
    45   122   120   am
    46   120   121    2
    47   103   104    1
    48   104   105    1
    49     8     6    1
    50   128   127    1
    51    17    16    2
    52   127   129    1
    53    15    16    1
    54    15    14    1
    55    16    18   am
    56     6     7    1
    57     6     5    1
    58    14    11   am
    59    18    19    1
    60     5     2    1
    61     2     1    1
    62     2     3    1
    63    27    26    1
    64    19    20    1
    65    11    12    2
    66    11    10    1
    67     9     3   am
    68     9    10    1
    69    40    38   ar
    70     3     4    2
    71    20    22   am
    72    20    21    2
    73    10    13    1
    74    22    23    1
    75    26    23    1
    76    38    39   ar
    77    38    37    1
    78    23    24    1
    79    80    78   am
    80   173   174    1
    81   173   172    1
    82   174   175    2
    83    37    36    1
    84    24    28   am
    85    24    25    2
    86   175   177    1
    87   175   176    1
    88   141   135    1
    89   141   140    1
    90   135   136    1
    91   140   139    1
    92    78    79    2
    93    78    77    1
    94    28    29    1
    95   172   171    1
    96   136   139    1
    97   136   137    1
    98    36    33    1
    99   171   168    1
   100   170   169    2
   101    77    76    1
   102   169   168    1
   103    32    33    1
   104    32    30   am
   105   142   137   am
   106   142   143    1
   107   137   138    2
   108   168   167    1
   109    33    34    1
   110   146   143    1
   111    29    30    1
   112    76    73    1
   113    30    31    2
   114    51    49    1
   115   143   144    1
   116    49    48    2
   117    49    50    1
   118    34    41   am
   119    34    35    2
   120    48    47    1
   121    41    42    1
   122   153   152   ar
   123    73    72    1
   124    73    74    1
   125    63    64    1
   126    70    71    1
   127    70    69    1
   128   144   147   am
   129   144   145    2
   130    72    65   am
   131    47    46    1
   132   147   148    1
   133    46    45    1
   134   154   152   ar
   135   152   151    1
   136    68    69    1
   137    68    67    1
   138    74    75    2
   139   151   148    1
   140    42    45    1
   141    42    43    1
   142    64    65    1
   143    64    67    1
   144    65    66    2
   145   148   149    1
   146   161   160   ar
   147   162   160   ar
   148    52    43   am
   149    52    53    1
   150   166   165    2
   151   160   159    1
   152    43    44    2
   153   149   150    2
   154   164   165    1
   155   164   163    1
   156   159   156    1
   157    53    56    1
   158    53    54    1
   159    56    57    1
   160    54    55    2
   161    58    57   ar
   162    58    60   ar
   163    57    59   ar
   164   156   157    1
   165   156   155    1
   166    60    62   ar
   167   157   158    2
   168    59    61   ar
   169    62    61   ar
