@<TRIPOS>MOLECULE
tmp/2x61B00.pdb
 138 136 0 0 0
SMALL
GASTEIGER

@<TRIPOS>ATOM
      1  N        -60.2090   33.3060   23.3240 N.3    50  ASN50      -0.1226
      2  CA       -60.9290   34.2720   24.1440 C.3    50  ASN50       0.1770
      3  C        -59.9790   35.2760   24.8080 C.2    50  ASN50       0.2439
      4  O        -58.8410   34.9320   25.1340 O.2    50  ASN50      -0.2733
      5  CB       -61.7360   33.5430   25.2170 C.3    50  ASN50       0.1168
      6  CG       -62.9330   32.8080   24.6500 C.2    50  ASN50       0.2627
      7  OD1      -63.6700   33.3450   23.8150 O.2    50  ASN50      -0.2716
      8  ND2      -63.1540   31.5890   25.1190 N.am   50  ASN50      -0.0877
      9  N        -60.4330   36.5220   25.0040 N.am   51  PRO51      -0.2718
     10  CA       -59.5900   37.5340   25.6410 C.3    51  PRO51       0.1535
     11  C        -59.0640   37.1170   27.0130 C.2    51  PRO51       0.2599
     12  O        -57.9340   37.4540   27.3640 O.2    51  PRO51      -0.2715
     13  CB       -60.5380   38.7310   25.7880 C.3    51  PRO51       0.0310
     14  CG       -61.4820   38.5840   24.6440 C.3    51  PRO51       0.0237
     15  CD       -61.7050   37.0950   24.5270 C.3    51  PRO51       0.0939
     16  N        -59.8770   36.3840   27.7690 N.am   52  SER52      -0.1950
     17  CA       -59.5370   36.0360   29.1560 C.3    52  SER52       0.1924
     18  C        -58.2780   35.1770   29.2680 C.2    52  SER52       0.2314
     19  O        -57.5910   35.2260   30.2850 O.2    52  SER52      -0.2863
     20  CB       -60.7080   35.3260   29.8380 C.3    52  SER52       0.2116
     21  OG       -61.0140   34.1210   29.1630 O.3    52  SER52      -0.2180
     22  N        -61.3780   36.5300   20.0370 N.3    78  SER78      -0.1202
     23  CA       -62.8210   36.5850   19.8540 C.3    78  SER78       0.2020
     24  C        -63.4750   37.5790   20.8030 C.2    78  SER78       0.2619
     25  O        -64.0240   37.2100   21.8430 O.2    78  SER78      -0.2717
     26  CB       -63.4420   35.1810   19.9560 C.3    78  SER78       0.2103
     27  OG       -62.9050   34.4250   21.0240 O.3    78  SER78      -0.2182
     28  N        -63.4090   38.8550   20.4410 N.am   79  ASN79      -0.1960
     29  CA       -63.9250   39.9250   21.2880 C.3    79  ASN79       0.1819
     30  C        -65.1490   40.6370   20.6680 C.2    79  ASN79       0.2621
     31  O        -65.4670   40.4390   19.4830 O.2    79  ASN79      -0.2715
     32  CB       -62.8150   40.9380   21.5700 C.3    79  ASN79       0.1195
     33  CG       -62.4800   41.7870   20.3750 C.2    79  ASN79       0.2630
     34  OD1      -62.2320   41.2770   19.2690 O.2    79  ASN79      -0.2716
     35  ND2      -62.4340   43.0970   20.5850 N.am   79  ASN79      -0.0877
     36  N        -65.7920   41.4940   21.4640 N.am   80  TYR80      -0.1974
     37  CA       -67.0490   42.1220   21.0640 C.3    80  TYR80       0.1639
     38  C        -67.1600   43.6350   21.3110 C.2    80  TYR80       0.2290
     39  O        -68.2100   44.2240   21.0030 O.2    80  TYR80      -0.2864
     40  CB       -68.2010   41.4860   21.8310 C.3    80  TYR80       0.0560
     41  CG       -68.4840   40.0270   21.5630 C.ar   80  TYR80      -0.0198
     42  CD1      -69.0960   39.6220   20.3890 C.ar   80  TYR80      -0.0009
     43  CD2      -68.2160   39.0680   22.5240 C.ar   80  TYR80      -0.0009
     44  CE1      -69.3900   38.3040   20.1570 C.ar   80  TYR80       0.0417
     45  CE2      -68.5090   37.7430   22.3040 C.ar   80  TYR80       0.0417
     46  CZ       -69.1130   37.3650   21.1170 C.ar   80  TYR80       0.1957
     47  OH       -69.4230   36.0340   20.8760 O.3    80  TYR80      -0.2866
     48  N        -68.2940   44.6510   29.9990 N.3    84  HIS84      -0.1226
     49  CA       -68.5470   43.5760   30.9530 C.3    84  HIS84       0.1752
     50  C        -67.8580   42.2810   30.5370 C.2    84  HIS84       0.2596
     51  O        -67.8100   41.3340   31.3240 O.2    84  HIS84      -0.2718
     52  CB       -70.0590   43.3660   31.1850 C.3    84  HIS84       0.0759
     53  CG       -70.7850   42.7500   30.0280 C.ar   84  HIS84       0.0818
     54  ND1      -71.1620   43.4680   28.9110 N.ar   84  HIS84      -0.2268
     55  CD2      -71.2480   41.4910   29.8390 C.ar   84  HIS84       0.1154
     56  CE1      -71.7920   42.6670   28.0690 C.ar   84  HIS84       0.1986
     57  NE2      -71.8620   41.4630   28.6100 N.ar   84  HIS84      -0.2212
     58  N        -67.2960   42.2500   29.3250 N.am   85  LEU85      -0.1966
     59  CA       -66.6910   41.0270   28.7820 C.3    85  LEU85       0.1728
     60  C        -65.1670   41.0580   28.6230 C.2    85  LEU85       0.2616
     61  O        -64.5150   40.0070   28.6690 O.2    85  LEU85      -0.2715
     62  CB       -67.2950   40.6930   27.4210 C.3    85  LEU85       0.0311
     63  CG       -68.7890   40.3630   27.3980 C.3    85  LEU85       0.0022
     64  CD1      -69.2050   39.9590   26.0050 C.3    85  LEU85       0.0001
     65  CD2      -69.1120   39.2670   28.4000 C.3    85  LEU85       0.0001
     66  N        -64.5950   42.2380   28.4240 N.am   86  GLU86      -0.1977
     67  CA       -63.1860   42.3330   28.0650 C.3    86  GLU86       0.1602
     68  C        -62.5260   43.5410   28.7240 C.2    86  GLU86       0.2287
     69  O        -63.1470   44.5890   28.9010 O.2    86  GLU86      -0.2864
     70  CB       -63.0240   42.3890   26.5320 C.3    86  GLU86       0.0415
     71  CG       -63.8760   43.4730   25.8440 C.3    86  GLU86       0.1163
     72  CD       -64.2890   43.1150   24.4090 C.2    86  GLU86       0.3649
     73  OE1      -65.1190   42.1870   24.2360 O.co2  86  GLU86      -0.2457
     74  OE2      -63.7930   43.7750   23.4610 O.co2  86  GLU86      -0.2457
     75  N        -79.3110   37.9880   28.2570 N.3   126  ASN126     -0.1240
     76  CA       -78.2770   37.1320   28.8070 C.3   126  ASN126      0.1653
     77  C        -78.1510   35.8540   27.9910 C.2   126  ASN126      0.2266
     78  O        -77.9340   34.7820   28.5480 O.2   126  ASN126     -0.2867
     79  CB       -78.6140   36.7880   30.2590 C.3   126  ASN126      0.1155
     80  CG       -77.4140   36.3230   31.0380 C.2   126  ASN126      0.2627
     81  OD1      -76.2840   36.7150   30.7520 O.2   126  ASN126     -0.2716
     82  ND2      -77.6480   35.4720   32.0360 N.am  126  ASN126     -0.0877
     83  N        -75.9040   34.2870   24.8940 N.3   128  ARG128     -0.1231
     84  CA       -74.6320   34.4850   24.1790 C.3   128  ARG128      0.1694
     85  C        -74.3050   33.3250   23.2220 C.2   128  ARG128      0.2592
     86  O        -74.4050   32.1560   23.5970 O.2   128  ARG128     -0.2718
     87  CB       -73.5050   34.6090   25.2030 C.3   128  ARG128      0.0321
     88  CG       -72.2130   35.1850   24.6610 C.3   128  ARG128      0.0489
     89  CD       -71.1650   35.3020   25.7500 C.3   128  ARG128      0.2205
     90  NE       -71.6130   36.1350   26.8560 N.pl3 128  ARG128     -0.0865
     91  CZ       -70.9870   36.2080   28.0290 C.cat 128  ARG128      0.5346
     92  NH1      -71.4600   36.9850   28.9960 N.pl3 128  ARG128      0.1354
     93  NH2      -69.8840   35.5030   28.2380 N.pl3 128  ARG128      0.1354
     94  N        -73.9200   33.6480   21.9900 N.am  129  ILE129     -0.1966
     95  CA       -73.4240   32.6440   21.0570 C.3   129  ILE129      0.1727
     96  C        -72.0800   32.0830   21.5460 C.2   129  ILE129      0.2617
     97  O        -71.3830   32.7130   22.3370 O.2   129  ILE129     -0.2715
     98  CB       -73.2540   33.2260   19.6420 C.3   129  ILE129      0.0290
     99  CG1      -72.1180   34.2530   19.6120 C.3   129  ILE129      0.0022
    100  CG2      -74.5410   33.8760   19.1750 C.3   129  ILE129      0.0023
    101  CD1      -71.7630   34.7620   18.2050 C.3   129  ILE129      0.0001
    102  N        -71.7340   30.8840   21.0900 N.am  130  THR130     -0.1937
    103  CA       -70.4640   30.2500   21.4420 C.3   130  THR130      0.2028
    104  C        -69.3670   30.5520   20.4070 C.2   130  THR130      0.2642
    105  O        -69.6390   31.0970   19.3340 O.2   130  THR130     -0.2714
    106  CB       -70.6230   28.7180   21.5470 C.3   130  THR130      0.1808
    107  OG1      -70.9880   28.1980   20.2680 O.3   130  THR130     -0.2208
    108  CG2      -71.7020   28.3410   22.5860 C.3   130  THR130      0.0379
    109  N        -68.1260   30.1990   20.7360 N.am  131  SER131     -0.1949
    110  CA       -67.0010   30.3830   19.8220 C.3   131  SER131      0.1924
    111  C        -67.2470   29.8070   18.4290 C.2   131  SER131      0.2314
    112  O        -66.8090   30.3740   17.4300 O.2   131  SER131     -0.2863
    113  CB       -65.7440   29.7400   20.4020 C.3   131  SER131      0.2116
    114  OG       -65.2480   30.4870   21.5020 O.3   131  SER131     -0.2180
    115  N        -69.2820   32.3110   16.5010 N.3   134  TYR134     -0.1241
    116  CA       -68.4390   33.4970   16.3110 C.3   134  TYR134      0.1605
    117  C        -67.5040   33.3010   15.1200 C.2   134  TYR134      0.2264
    118  O        -67.3160   34.2160   14.3040 O.2   134  TYR134     -0.2867
    119  CB       -67.6460   33.7720   17.5890 C.3   134  TYR134      0.0534
    120  CG       -66.8420   35.0460   17.5770 C.ar  134  TYR134     -0.0201
    121  CD1      -67.2940   36.1860   18.2390 C.ar  134  TYR134     -0.0009
    122  CD2      -65.6250   35.1170   16.9060 C.ar  134  TYR134     -0.0009
    123  CE1      -66.5440   37.3690   18.2340 C.ar  134  TYR134      0.0417
    124  CE2      -64.8770   36.3010   16.8850 C.ar  134  TYR134      0.0417
    125  CZ       -65.3390   37.4200   17.5550 C.ar  134  TYR134      0.1957
    126  OH       -64.5950   38.5900   17.5470 O.3   134  TYR134     -0.2866
    127  N        -73.1050   21.2560   24.1760 N.3   155  TYR155     -0.1241
    128  CA       -72.8480   20.8360   25.5630 C.3   155  TYR155      0.1605
    129  C        -73.9430   19.9040   26.0970 C.2   155  TYR155      0.2264
    130  O        -74.2450   19.9140   27.2940 O.2   155  TYR155     -0.2867
    131  CB       -72.7400   22.0590   26.4840 C.3   155  TYR155      0.0534
    132  CG       -71.6240   23.0080   26.1080 C.ar  155  TYR155     -0.0201
    133  CD1      -71.8650   24.1010   25.2820 C.ar  155  TYR155     -0.0009
    134  CD2      -70.3230   22.8000   26.5610 C.ar  155  TYR155     -0.0009
    135  CE1      -70.8420   24.9700   24.9260 C.ar  155  TYR155      0.0417
    136  CE2      -69.2970   23.6630   26.2080 C.ar  155  TYR155      0.0417
    137  CZ       -69.5640   24.7450   25.3930 C.ar  155  TYR155      0.1957
    138  OH       -68.5500   25.6050   25.0370 O.3   155  TYR155     -0.2866
@<TRIPOS>BOND
     1   118   117    2
     2   117   116    1
     3   116   115    1
     4   116   119    1
     5   124   122   ar
     6   124   125   ar
     7   122   120   ar
     8   112   111    2
     9   126   125    1
    10   125   123   ar
    11   120   119    1
    12   120   121   ar
    13   101    99    1
    14   123   121   ar
    15   111   110    1
    16   100    98    1
    17    34    33    2
    18   105   104    2
    19    31    30    2
    20    99    98    1
    21    98    95    1
    22   110   113    1
    23   110   109    1
    24    23    26    1
    25    23    22    1
    26    23    24    1
    27    26    27    1
    28    44    42   ar
    29    44    46   ar
    30   107   106    1
    31    33    35   am
    32    33    32    1
    33    42    41   ar
    34   113   114    1
    35   104   109   am
    36   104   103    1
    37    28    24   am
    38    28    29    1
    39    30    29    1
    40    30    36   am
    41    24    25    2
    42    47    46    1
    43    39    38    2
    44    95    96    1
    45    95    94    1
    46    37    38    1
    47    37    36    1
    48    37    40    1
    49   102   103    1
    50   102    96   am
    51    46    45   ar
    52    29    32    1
    53   103   106    1
    54    96    97    2
    55   106   108    1
    56    41    40    1
    57    41    43   ar
    58    94    85   am
    59    45    43   ar
    60    85    86    2
    61    85    84    1
    62     1     2    1
    63    74    72   ar
    64     7     6    2
    65     2     3    1
    66     2     5    1
    67   127   128    1
    68    84    83    1
    69    84    87    1
    70    73    72   ar
    71    72    71    1
    72    15    14    1
    73    15     9    1
    74    14    13    1
    75     6     8   am
    76     6     5    1
    77    88    87    1
    78    88    89    1
    79     3     9   am
    80     3     4    2
    81   135   133   ar
    82   135   137   ar
    83     9    10    1
    84   138   137    1
    85   133   132   ar
    86   137   136   ar
    87   128   129    1
    88   128   131    1
    89    10    13    1
    90    10    11    1
    91    89    90    1
    92    71    70    1
    93    64    63    1
    94   129   130    2
    95   132   131    1
    96   132   134   ar
    97   136   134   ar
    98    70    67    1
    99    90    91    2
   100    11    12    2
   101    11    16   am
   102    63    62    1
   103    63    65    1
   104    62    59    1
   105    16    17    1
   106    77    78    2
   107    77    76    1
   108    91    93    1
   109    91    92    1
   110    67    66    1
   111    67    68    1
   112    56    57   ar
   113    56    54   ar
   114    75    76    1
   115    66    60   am
   116    57    55   ar
   117    60    61    2
   118    60    59    1
   119    68    69    2
   120    59    58    1
   121    76    79    1
   122    54    53   ar
   123    17    18    1
   124    17    20    1
   125    21    20    1
   126    18    19    2
   127    58    50   am
   128    55    53   ar
   129    48    49    1
   130    53    52    1
   131    79    80    1
   132    50    49    1
   133    50    51    2
   134    81    80    2
   135    49    52    1
   136    80    82   am
