@<TRIPOS>MOLECULE
tmp/2x63A00.pdb
 178 176 0 0 0
SMALL
GASTEIGER

@<TRIPOS>ATOM
      1  N         34.3830  -10.8920  -13.2860 N.3     7  GLY7       -0.1210
      2  CA        34.2780  -10.7350  -14.7210 C.3     7  GLY7        0.1956
      3  C         34.8670  -11.9800  -15.3470 C.2     7  GLY7        0.2612
      4  O         35.2580  -12.9160  -14.6380 O.2     7  GLY7       -0.2717
      5  N         34.9470  -12.0010  -16.6690 N.am    8  ASN8       -0.1960
      6  CA        35.5290  -13.1520  -17.3620 C.3     8  ASN8        0.1819
      7  C         36.8260  -12.8280  -18.1110 C.2     8  ASN8        0.2622
      8  O         37.1750  -13.5060  -19.0830 O.2     8  ASN8       -0.2715
      9  CB        34.4950  -13.8020  -18.2820 C.3     8  ASN8        0.1195
     10  CG        33.2870  -14.3120  -17.5130 C.2     8  ASN8        0.2630
     11  OD1       33.4280  -14.9100  -16.4390 O.2     8  ASN8       -0.2716
     12  ND2       32.0910  -14.0680  -18.0500 N.am    8  ASN8       -0.0877
     13  N         37.5230  -11.7900  -17.6520 N.am    9  GLY9       -0.1940
     14  CA        38.8550  -11.4630  -18.1580 C.3     9  GLY9        0.1998
     15  C         39.9100  -12.4860  -17.7550 C.2     9  GLY9        0.2480
     16  O         39.6470  -13.3610  -16.9210 O.2     9  GLY9       -0.2729
     17  N         41.1110  -12.3870  -18.3530 N.am   10  PRO10      -0.2726
     18  CA        42.2000  -13.3440  -18.1250 C.3    10  PRO10       0.1402
     19  C         42.5760  -13.4730  -16.6520 C.2    10  PRO10       0.2269
     20  O         43.0140  -14.5390  -16.2230 O.2    10  PRO10      -0.2865
     21  CB        43.3830  -12.7460  -18.9060 C.3    10  PRO10       0.0296
     22  CG        42.7720  -11.7920  -19.9080 C.3    10  PRO10       0.0237
     23  CD        41.4550  -11.3440  -19.3410 C.3    10  PRO10       0.0939
     24  N         28.7730  -13.9630  -14.3770 N.3    29  CYS29      -0.1221
     25  CA        27.9400  -13.3930  -15.4290 C.3    29  CYS29       0.1808
     26  C         28.2160  -14.0300  -16.7760 C.2    29  CYS29       0.2601
     27  O         29.2900  -14.5710  -17.0060 O.2    29  CYS29      -0.2717
     28  CB        28.1810  -11.8820  -15.5270 C.3    29  CYS29       0.0970
     29  SG        29.8430  -11.4580  -16.1360 S.3    29  CYS29      -0.0800
     30  N         27.2300  -13.9560  -17.6580 N.am   30  ASN30      -0.1960
     31  CA        27.4130  -14.2430  -19.0840 C.3    30  ASN30       0.1819
     32  C         27.9960  -15.6220  -19.4090 C.2    30  ASN30       0.2621
     33  O         27.4080  -16.6250  -19.0140 O.2    30  ASN30      -0.2715
     34  CB        28.1440  -13.0800  -19.7630 C.3    30  ASN30       0.1195
     35  CG        27.3350  -11.7770  -19.6920 C.2    30  ASN30       0.2630
     36  OD1       26.1310  -11.8020  -19.4070 O.2    30  ASN30      -0.2716
     37  ND2       27.9850  -10.6470  -19.9420 N.am   30  ASN30      -0.0877
     38  N         29.1130  -15.6870  -20.1300 N.am   31  GLN31      -0.1977
     39  CA        29.6950  -16.9870  -20.5080 C.3    31  GLN31       0.1601
     40  C         30.6480  -17.5610  -19.4500 C.2    31  GLN31       0.2287
     41  O         31.6090  -18.2570  -19.7810 O.2    31  GLN31      -0.2864
     42  CB        30.4090  -16.8870  -21.8620 C.3    31  GLN31       0.0394
     43  CG        29.4490  -16.8520  -23.0500 C.3    31  GLN31       0.0908
     44  CD        28.8280  -15.4870  -23.2740 C.2    31  GLN31       0.2608
     45  OE1       27.6050  -15.3520  -23.3460 O.2    31  GLN31      -0.2717
     46  NE2       29.6670  -14.4660  -23.3900 N.am   31  GLN31      -0.0878
     47  N         30.6610   -1.9590  -17.7370 N.3   130  THR130     -0.1203
     48  CA        30.5830   -3.3570  -18.1350 C.3   130  THR130      0.1994
     49  C         29.7620   -4.1240  -17.1120 C.2   130  THR130      0.2619
     50  O         29.4300   -3.5830  -16.0490 O.2   130  THR130     -0.2717
     51  CB        31.9710   -4.0080  -18.2610 C.3   130  THR130      0.1784
     52  OG1       32.6310   -3.9540  -16.9930 O.3   130  THR130     -0.2211
     53  CG2       32.8180   -3.2880  -19.3110 C.3   130  THR130      0.0376
     54  N         29.4320   -5.3750  -17.4400 N.am  131  SER131     -0.1937
     55  CA        28.6510   -6.2450  -16.5550 C.3   131  SER131      0.2055
     56  C         29.2200   -6.3560  -15.1590 C.2   131  SER131      0.2643
     57  O         28.4730   -6.4260  -14.1870 O.2   131  SER131     -0.2714
     58  CB        28.5570   -7.6470  -17.1360 C.3   131  SER131      0.2130
     59  OG        28.0470   -7.6020  -18.4460 O.3   131  SER131     -0.2179
     60  N         30.5460   -6.4060  -15.0600 N.am  132  GLY132     -0.1954
     61  CA        31.2020   -6.5310  -13.7600 C.3   132  GLY132      0.1869
     62  C         30.8510   -5.3650  -12.8640 C.2   132  GLY132      0.2309
     63  O         30.6560   -5.5160  -11.6500 O.2   132  GLY132     -0.2863
     64  N         38.7860  -11.0930  -12.4920 N.3   151  GLY151     -0.1210
     65  CA        38.3750  -11.2170  -13.8880 C.3   151  GLY151      0.1956
     66  C         37.9850   -9.9000  -14.5460 C.2   151  GLY151      0.2612
     67  O         37.3160   -9.8900  -15.5770 O.2   151  GLY151     -0.2717
     68  N         38.4070   -8.7810  -13.9700 N.am  152  ILE152     -0.1965
     69  CA        38.1710   -7.4910  -14.6190 C.3   152  ILE152      0.1727
     70  C         39.4810   -6.9100  -15.1570 C.2   152  ILE152      0.2616
     71  O         40.3840   -6.5310  -14.4010 O.2   152  ILE152     -0.2715
     72  CB        37.4270   -6.5310  -13.6900 C.3   152  ILE152      0.0290
     73  CG1       36.0080   -7.0650  -13.4540 C.3   152  ILE152      0.0022
     74  CG2       37.3730   -5.1080  -14.2850 C.3   152  ILE152      0.0023
     75  CD1       35.2840   -6.3550  -12.3730 C.3   152  ILE152      0.0001
     76  N         39.5860   -6.8680  -16.4800 N.am  153  ASP153     -0.1957
     77  CA        40.8540   -6.5560  -17.1240 C.3   153  ASP153      0.1840
     78  C         40.7130   -5.5350  -18.2630 C.2   153  ASP153      0.2622
     79  O         41.6730   -5.2720  -18.9830 O.2   153  ASP153     -0.2715
     80  CB        41.4790   -7.8410  -17.6640 C.3   153  ASP153      0.1450
     81  CG        41.9230   -8.7820  -16.5600 C.2   153  ASP153      0.3671
     82  OD1       42.9230   -8.4720  -15.8780 O.co2 153  ASP153     -0.2456
     83  OD2       41.2830   -9.8420  -16.3930 O.co2 153  ASP153     -0.2456
     84  N         39.5070   -5.0090  -18.4450 N.am  154  PHE154     -0.1960
     85  CA        39.2660   -3.9060  -19.3700 C.3   154  PHE154      0.1771
     86  C         39.4690   -4.2610  -20.8480 C.2   154  PHE154      0.2620
     87  O         39.7910   -3.3890  -21.6600 O.2   154  PHE154     -0.2715
     88  CB        40.1430   -2.7140  -18.9920 C.3   154  PHE154      0.0574
     89  CG        40.1720   -2.4320  -17.5150 C.ar  154  PHE154     -0.0200
     90  CD1       39.0140   -2.0790  -16.8450 C.ar  154  PHE154     -0.0042
     91  CD2       41.3540   -2.5300  -16.7980 C.ar  154  PHE154     -0.0042
     92  CE1       39.0350   -1.8170  -15.4850 C.ar  154  PHE154     -0.0003
     93  CE2       41.3820   -2.2770  -15.4360 C.ar  154  PHE154     -0.0003
     94  CZ        40.2210   -1.9150  -14.7810 C.ar  154  PHE154     -0.0000
     95  N         39.2790   -5.5320  -21.1960 N.am  155  TYR155     -0.1960
     96  CA        39.4020   -5.9540  -22.5920 C.3   155  TYR155      0.1771
     97  C         40.7270   -5.5270  -23.2380 C.2   155  TYR155      0.2619
     98  O         40.7330   -4.9720  -24.3310 O.2   155  TYR155     -0.2715
     99  CB        38.2600   -5.3730  -23.4330 C.3   155  TYR155      0.0574
    100  CG        36.8510   -5.7000  -22.9580 C.ar  155  TYR155     -0.0198
    101  CD1       36.0460   -4.7210  -22.3830 C.ar  155  TYR155     -0.0009
    102  CD2       36.3180   -6.9810  -23.1080 C.ar  155  TYR155     -0.0009
    103  CE1       34.7450   -5.0120  -21.9640 C.ar  155  TYR155      0.0417
    104  CE2       35.0230   -7.2750  -22.6990 C.ar  155  TYR155      0.0417
    105  CZ        34.2470   -6.2900  -22.1260 C.ar  155  TYR155      0.1957
    106  OH        32.9660   -6.5790  -21.7180 O.3   155  TYR155     -0.2866
    107  N         41.8510   -5.7770  -22.5810 N.am  156  GLN156     -0.1977
    108  CA        43.1450   -5.4030  -23.1750 C.3   156  GLN156      0.1601
    109  C         43.5550   -6.3130  -24.3460 C.2   156  GLN156      0.2287
    110  O         43.4990   -7.5370  -24.2430 O.2   156  GLN156     -0.2864
    111  CB        44.2410   -5.3880  -22.1030 C.3   156  GLN156      0.0394
    112  CG        44.0840   -4.2740  -21.0720 C.3   156  GLN156      0.0908
    113  CD        44.2490   -2.8890  -21.6760 C.2   156  GLN156      0.2608
    114  OE1       44.7990   -2.7360  -22.7640 O.2   156  GLN156     -0.2717
    115  NE2       43.7730   -1.8710  -20.9670 N.am  156  GLN156     -0.0878
    116  N         39.0500   -8.7000  -26.9270 N.3   159  SER159     -0.1202
    117  CA        38.1400   -9.0230  -25.8410 C.3   159  SER159      0.2020
    118  C         38.7890  -10.0250  -24.8860 C.2   159  SER159      0.2619
    119  O         38.5040  -10.0330  -23.6830 O.2   159  SER159     -0.2717
    120  CB        36.8080   -9.5370  -26.3880 C.3   159  SER159      0.2103
    121  OG        36.1790   -8.5190  -27.1490 O.3   159  SER159     -0.2182
    122  N         39.6680  -10.8580  -25.4350 N.am  160  SER160     -0.1937
    123  CA        40.4960  -11.7630  -24.6470 C.3   160  SER160      0.2055
    124  C         39.8560  -12.2080  -23.3310 C.2   160  SER160      0.2643
    125  O         40.2930  -11.8070  -22.2560 O.2   160  SER160     -0.2714
    126  CB        41.8470  -11.1140  -24.3550 C.3   160  SER160      0.2130
    127  OG        41.6790   -9.9500  -23.5690 O.3   160  SER160     -0.2179
    128  N         38.8330  -13.0450  -23.4210 N.am  161  TYR161     -0.1973
    129  CA        38.2390  -13.6390  -22.2370 C.3   161  TYR161      0.1639
    130  C         39.1470  -14.7390  -21.7020 C.2   161  TYR161      0.2290
    131  O         40.1070  -15.1300  -22.3610 O.2   161  TYR161     -0.2864
    132  CB        36.8540  -14.2040  -22.5610 C.3   161  TYR161      0.0560
    133  CG        35.8350  -13.1440  -22.9150 C.ar  161  TYR161     -0.0198
    134  CD1       35.6280  -12.7640  -24.2330 C.ar  161  TYR161     -0.0009
    135  CD2       35.0810  -12.5270  -21.9310 C.ar  161  TYR161     -0.0009
    136  CE1       34.6960  -11.7990  -24.5620 C.ar  161  TYR161      0.0417
    137  CE2       34.1440  -11.5580  -22.2480 C.ar  161  TYR161      0.0417
    138  CZ        33.9540  -11.1990  -23.5690 C.ar  161  TYR161      0.1957
    139  OH        33.0300  -10.2280  -23.8890 O.3   161  TYR161     -0.2866
    140  N         31.0430  -12.3810  -31.9050 N.3   177  PHE177     -0.1241
    141  CA        32.1280  -13.1620  -31.3120 C.3   177  PHE177      0.1605
    142  C         33.0880  -13.7300  -32.3620 C.2   177  PHE177      0.2264
    143  O         34.1710  -14.2100  -32.0240 O.2   177  PHE177     -0.2867
    144  CB        31.5810  -14.2730  -30.4140 C.3   177  PHE177      0.0534
    145  CG        31.0660  -13.7780  -29.0870 C.ar  177  PHE177     -0.0203
    146  CD1       31.9460  -13.4850  -28.0490 C.ar  177  PHE177     -0.0042
    147  CD2       29.7060  -13.5870  -28.8780 C.ar  177  PHE177     -0.0042
    148  CE1       31.4740  -13.0250  -26.8230 C.ar  177  PHE177     -0.0003
    149  CE2       29.2260  -13.1230  -27.6440 C.ar  177  PHE177     -0.0003
    150  CZ        30.1140  -12.8420  -26.6220 C.ar  177  PHE177     -0.0000
    151  N         33.1450   -6.9770  -28.0200 N.3   183  HIS183     -0.1241
    152  CA        32.4260   -6.2470  -26.9720 C.3   183  HIS183      0.1621
    153  C         32.0320   -4.8320  -27.4190 C.2   183  HIS183      0.2264
    154  O         32.4380   -4.3710  -28.4880 O.2   183  HIS183     -0.2867
    155  CB        33.2860   -6.1730  -25.7100 C.3   183  HIS183      0.0745
    156  CG        34.6020   -5.4900  -25.9230 C.ar  183  HIS183      0.0817
    157  ND1       34.8160   -4.1640  -25.6050 N.ar  183  HIS183     -0.2268
    158  CD2       35.7670   -5.9430  -26.4430 C.ar  183  HIS183      0.1154
    159  CE1       36.0590   -3.8340  -25.9080 C.ar  183  HIS183      0.1986
    160  NE2       36.6560   -4.8950  -26.4210 N.ar  183  HIS183     -0.2212
    161  N         32.6550    0.5970  -24.0300 N.3   187  HIS187     -0.1241
    162  CA        33.3310    0.1970  -22.7900 C.3   187  HIS187      0.1621
    163  C         34.7500    0.7610  -22.7820 C.2   187  HIS187      0.2264
    164  O         35.3590    0.9340  -23.8500 O.2   187  HIS187     -0.2867
    165  CB        33.4450   -1.3290  -22.6760 C.3   187  HIS187      0.0745
    166  CG        32.1340   -2.0450  -22.5800 C.ar  187  HIS187      0.0817
    167  ND1       31.0540   -1.5460  -21.8820 N.ar  187  HIS187     -0.2268
    168  CD2       31.7460   -3.2460  -23.0690 C.ar  187  HIS187      0.1154
    169  CE1       30.0510   -2.4030  -21.9600 C.ar  187  HIS187      0.1986
    170  NE2       30.4450   -3.4420  -22.6770 N.ar  187  HIS187     -0.2212
    171  N         34.9620    2.1220  -16.4820 N.3   192  ASP192     -0.1239
    172  CA        34.7490    1.1490  -15.4060 C.3   192  ASP192      0.1674
    173  C         35.3460    1.6440  -14.0960 C.2   192  ASP192      0.2266
    174  O         34.6950    1.5860  -13.0730 O.2   192  ASP192     -0.2867
    175  CB        35.3060   -0.2360  -15.7590 C.3   192  ASP192      0.1410
    176  CG        34.2870   -1.1090  -16.4780 C.2   192  ASP192      0.3668
    177  OD1       33.2420   -0.5730  -16.9260 O.co2 192  ASP192     -0.2456
    178  OD2       34.5190   -2.3340  -16.5870 O.co2 192  ASP192     -0.2456
@<TRIPOS>BOND
     1   142   143    2
     2   142   141    1
     3   140   141    1
     4   141   144    1
     5   144   145    1
     6   145   147   ar
     7   145   146   ar
     8   147   149   ar
     9   154   153    2
    10   146   148   ar
    11   151   152    1
    12   149   150   ar
    13   153   152    1
    14   121   120    1
    15   152   155    1
    16   116   117    1
    17   148   150   ar
    18   158   160   ar
    19   158   156   ar
    20   160   159   ar
    21   120   117    1
    22   156   155    1
    23   156   157   ar
    24   159   157   ar
    25   117   118    1
    26   122   118   am
    27   122   123    1
    28   118   119    2
    29   123   126    1
    30   123   124    1
    31   136   134   ar
    32   136   138   ar
    33   126   127    1
    34   109   110    2
    35   109   108    1
    36    98    97    2
    37   134   133   ar
    38   161   162    1
    39   139   138    1
    40   164   163    2
    41   138   137   ar
    42    99   100    1
    43    99    96    1
    44   128   124   am
    45   128   129    1
    46    46    44   am
    47    45    44    2
    48   124   125    2
    49    44    43    1
    50    97    96    1
    51    97   107   am
    52   108   107    1
    53   108   111    1
    54   102   100   ar
    55   102   104   ar
    56   168   170   ar
    57   168   166   ar
    58    43    42    1
    59   100   101   ar
    60   133   132    1
    61   133   135   ar
    62   162   163    1
    63   162   165    1
    64   114   113    2
    65   104   105   ar
    66   170   169   ar
    67   165   166    1
    68    96    95    1
    69   166   167   ar
    70   132   129    1
    71   101   103   ar
    72   131   130    2
    73   137   135   ar
    74   129   130    1
    75   105   103   ar
    76   105   106    1
    77   111   112    1
    78   169   167   ar
    79    42    39    1
    80   113   112    1
    81   113   115   am
    82    87    86    2
    83    95    86   am
    84    86    85    1
    85    39    38    1
    86    39    40    1
    87    38    32   am
    88    37    35   am
    89    22    23    1
    90    22    21    1
    91    41    40    2
    92    34    35    1
    93    34    31    1
    94    35    36    2
    95    32    31    1
    96    32    33    2
    97    85    88    1
    98    85    84    1
    99    23    17    1
   100    53    51    1
   101    31    30    1
   102     8     7    2
   103    88    89    1
   104    79    78    2
   105    21    18    1
   106    59    58    1
   107    84    78   am
   108    17    18    1
   109    17    15   am
   110     9    10    1
   111     9     6    1
   112    78    77    1
   113    51    48    1
   114    51    52    1
   115    14    15    1
   116    14    13    1
   117    48    47    1
   118    48    49    1
   119    18    19    1
   120     7    13   am
   121     7     6    1
   122    12    10   am
   123    15    16    2
   124    80    77    1
   125    80    81    1
   126    30    26   am
   127    89    90   ar
   128    89    91   ar
   129    10    11    2
   130    54    49   am
   131    54    55    1
   132     6     5    1
   133    58    55    1
   134    77    76    1
   135    49    50    2
   136    27    26    2
   137   177   176   ar
   138    90    92   ar
   139    91    93   ar
   140    26    25    1
   141     5     3   am
   142    19    20    2
   143   178   176   ar
   144    81    83   ar
   145    81    82   ar
   146    55    56    1
   147   171   172    1
   148    76    70   am
   149   176   175    1
   150    29    28    1
   151   175   172    1
   152    67    66    2
   153    28    25    1
   154    92    94   ar
   155    93    94   ar
   156    25    24    1
   157   172   173    1
   158     3     2    1
   159     3     4    2
   160    56    60   am
   161    56    57    2
   162    70    69    1
   163    70    71    2
   164    60    61    1
   165     2     1    1
   166    69    68    1
   167    69    72    1
   168    66    68   am
   169    66    65    1
   170    74    72    1
   171   173   174    2
   172    65    64    1
   173    61    62    1
   174    72    73    1
   175    73    75    1
   176    62    63    2
