@<TRIPOS>MOLECULE
tmp/2x65B00.pdb
 139 133 0 0 0
SMALL
GASTEIGER

@<TRIPOS>ATOM
      1  N        -39.6350    6.1290   45.8090 N.3    14  ARG14      -0.1245
      2  CA       -39.5170    5.8110   44.3880 C.3    14  ARG14       0.1563
      3  C        -39.6300    7.0110   43.4280 C.2    14  ARG14       0.2260
      4  O        -39.3740    6.8470   42.2220 O.2    14  ARG14      -0.2867
      5  CB       -40.5210    4.7050   43.9970 C.3    14  ARG14       0.0307
      6  CG       -40.0710    3.2700   44.3990 C.3    14  ARG14       0.0489
      7  CD       -41.2180    2.2420   44.2980 C.3    14  ARG14       0.2205
      8  NE       -42.2410    2.4360   45.3320 N.pl3  14  ARG14      -0.0865
      9  CZ       -43.4370    1.8370   45.3630 C.cat  14  ARG14       0.5346
     10  NH1      -43.8300    1.0150   44.3920 N.pl3  14  ARG14       0.1354
     11  NH2      -44.2690    2.0990   46.3670 N.pl3  14  ARG14       0.1354
     12  N        -48.8290    1.1430   58.3020 N.3    85  ASN85      -0.1225
     13  CA       -49.4630    0.6620   57.0920 C.3    85  ASN85       0.1785
     14  C        -50.9960    0.8340   57.1840 C.2    85  ASN85       0.2597
     15  O        -51.4870    1.5670   58.0520 O.2    85  ASN85      -0.2718
     16  CB       -49.0120   -0.7760   56.7420 C.3    85  ASN85       0.1169
     17  CG       -48.9350   -1.0170   55.2200 C.2    85  ASN85       0.2627
     18  OD1      -49.7790   -0.5220   54.4620 O.2    85  ASN85      -0.2716
     19  ND2      -47.9310   -1.7700   54.7780 N.am   85  ASN85      -0.0877
     20  N        -51.7440    0.1830   56.2950 N.am   86  THR86      -0.1953
     21  CA       -53.1640    0.5170   56.0860 C.3    86  THR86       0.1897
     22  C        -54.1470   -0.0660   57.0930 C.2    86  THR86       0.2313
     23  O        -55.1720    0.5610   57.3810 O.2    86  THR86      -0.2863
     24  CB       -53.6200    0.1530   54.6570 C.3    86  THR86       0.1794
     25  OG1      -53.3330   -1.2250   54.3830 O.3    86  THR86      -0.2208
     26  CG2      -52.8830    1.0300   53.6700 C.3    86  THR86       0.0378
     27  N        -53.1530    7.6890   44.2440 N.3   110  HIS110     -0.1241
     28  CA       -53.5020    6.9820   43.0190 C.3   110  HIS110      0.1621
     29  C        -54.0460    7.9940   42.0160 C.2   110  HIS110      0.2264
     30  O        -54.1190    9.1720   42.3100 O.2   110  HIS110     -0.2867
     31  CB       -54.5690    5.9150   43.2920 C.3   110  HIS110      0.0745
     32  CG       -54.0620    4.7430   44.0460 C.ar  110  HIS110      0.0817
     33  ND1      -54.7320    3.5340   44.0680 N.ar  110  HIS110     -0.2268
     34  CD2      -52.9190    4.5630   44.7610 C.ar  110  HIS110      0.1154
     35  CE1      -54.0350    2.6720   44.7980 C.ar  110  HIS110      0.1986
     36  NE2      -52.9260    3.2670   45.2140 N.ar  110  HIS110     -0.2212
     37  N        -46.8060   -6.8040   42.5660 N.3   148  GLY148     -0.1210
     38  CA       -47.0340   -5.8310   43.6490 C.3   148  GLY148      0.1956
     39  C        -48.4990   -5.5860   43.9730 C.2   148  GLY148      0.2612
     40  O        -48.8170   -4.8720   44.9170 O.2   148  GLY148     -0.2717
     41  N        -49.3980   -6.1640   43.1740 N.am  149  TYR149     -0.1962
     42  CA       -50.8170   -6.0130   43.3900 C.3   149  TYR149      0.1771
     43  C        -51.3820   -7.2300   44.1230 C.2   149  TYR149      0.2620
     44  O        -50.8260   -8.3330   44.0780 O.2   149  TYR149     -0.2715
     45  CB       -51.5530   -5.8270   42.0660 C.3   149  TYR149      0.0574
     46  CG       -51.2610   -4.5430   41.2810 C.ar  149  TYR149     -0.0198
     47  CD1      -50.8300   -3.3870   41.8960 C.ar  149  TYR149     -0.0009
     48  CD2      -51.4820   -4.4980   39.9220 C.ar  149  TYR149     -0.0009
     49  CE1      -50.5810   -2.2400   41.1670 C.ar  149  TYR149      0.0417
     50  CE2      -51.2510   -3.3660   39.1780 C.ar  149  TYR149      0.0417
     51  CZ       -50.7890   -2.2350   39.8030 C.ar  149  TYR149      0.1957
     52  OH       -50.5560   -1.1010   39.0700 O.3   149  TYR149     -0.2866
     53  N        -52.4790   -7.0020   44.8360 N.am  150  GLY150     -0.1954
     54  CA       -53.3580   -8.0840   45.2600 C.3   150  GLY150      0.1869
     55  C        -54.2100   -8.5200   44.0780 C.2   150  GLY150      0.2309
     56  O        -54.5210   -7.7220   43.1930 O.2   150  GLY150     -0.2863
     57  N        -52.7020  -11.5160   48.1540 N.3   170  GLU170     -0.1231
     58  CA       -51.8610  -10.3100   48.1730 C.3   170  GLU170      0.1699
     59  C        -50.4070  -10.5890   47.7270 C.2   170  GLU170      0.2592
     60  O        -49.6930  -11.3780   48.3340 O.2   170  GLU170     -0.2718
     61  CB       -51.8850   -9.6420   49.5660 C.3   170  GLU170      0.0402
     62  CG       -51.1070   -8.2870   49.6840 C.3   170  GLU170      0.1161
     63  CD       -51.6910   -7.1460   48.8480 C.2   170  GLU170      0.3649
     64  OE1      -52.7210   -7.3210   48.1850 O.co2 170  GLU170     -0.2457
     65  OE2      -51.1140   -6.0450   48.8560 O.co2 170  GLU170     -0.2457
     66  N        -50.0000   -9.9180   46.6510 N.am  171  LYS171     -0.1980
     67  CA       -48.6190   -9.9150   46.1960 C.3   171  LYS171      0.1596
     68  C        -48.0820  -11.3340   46.0030 C.2   171  LYS171      0.2287
     69  O        -47.1970  -11.7960   46.7390 O.2   171  LYS171     -0.2864
     70  CB       -47.7420   -9.0910   47.1560 C.3   171  LYS171      0.0298
     71  CG       -48.1660   -7.6200   47.2120 C.3   171  LYS171      0.0038
     72  CD       -47.4590   -6.8600   48.3420 C.3   171  LYS171      0.0206
     73  CE       -47.5940   -5.3340   48.1700 C.3   171  LYS171      0.1093
     74  NZ       -48.9000   -4.9420   47.5620 N.3   171  LYS171     -0.1314
     75  N        -56.7330   -5.9040   42.6670 N.3   189  ASN189     -0.1225
     76  CA       -57.2520   -5.1080   43.7310 C.3   189  ASN189      0.1785
     77  C        -56.7660   -3.6870   43.5490 C.2   189  ASN189      0.2598
     78  O        -55.5630   -3.4430   43.4010 O.2   189  ASN189     -0.2718
     79  CB       -56.7710   -5.6650   45.0730 C.3   189  ASN189      0.1169
     80  CG       -57.3790   -4.9510   46.2370 C.2   189  ASN189      0.2627
     81  OD1      -58.5770   -4.6850   46.2460 O.2   189  ASN189     -0.2716
     82  ND2      -56.5600   -4.5990   47.2100 N.am  189  ASN189     -0.0877
     83  N        -57.6910   -2.7280   43.5430 N.am  190  SER190     -0.1938
     84  CA       -57.3070   -1.3360   43.3070 C.3   190  SER190      0.2055
     85  C        -56.8210   -0.6400   44.5920 C.2   190  SER190      0.2643
     86  O        -56.4370    0.5170   44.5600 O.2   190  SER190     -0.2714
     87  CB       -58.4840   -0.5660   42.7460 C.3   190  SER190      0.2130
     88  OG       -59.5060   -0.4890   43.7480 O.3   190  SER190     -0.2179
     89  N        -56.8800   -1.3180   45.7200 N.am  191  GLY191     -0.1954
     90  CA       -56.5000   -0.7060   46.9940 C.3   191  GLY191      0.1869
     91  C        -57.5600    0.1760   47.6050 C.2   191  GLY191      0.2309
     92  O        -57.3300    0.7890   48.6370 O.2   191  GLY191     -0.2863
     93  N        -61.5960    0.5610   49.1660 N.3   193  PHE193     -0.1241
     94  CA       -62.5980   -0.2390   49.8900 C.3   193  PHE193      0.1605
     95  C        -63.8650    0.5260   50.2990 C.2   193  PHE193      0.2264
     96  O        -63.8880    1.7750   50.4090 O.2   193  PHE193     -0.2867
     97  CB       -61.9930   -0.9050   51.1220 C.3   193  PHE193      0.0534
     98  CG       -60.6660   -1.5450   50.8750 C.ar  193  PHE193     -0.0203
     99  CD1      -60.5870   -2.8430   50.4200 C.ar  193  PHE193     -0.0042
    100  CD2      -59.4920   -0.8410   51.0980 C.ar  193  PHE193     -0.0042
    101  CE1      -59.3700   -3.4380   50.1840 C.ar  193  PHE193     -0.0003
    102  CE2      -58.2670   -1.4220   50.8660 C.ar  193  PHE193     -0.0003
    103  CZ       -58.2080   -2.7310   50.3980 C.ar  193  PHE193     -0.0000
    104  N        -50.6710   -4.2120   56.2380 N.3   237  SER237     -0.1217
    105  CA       -51.6580   -3.6730   55.3170 C.3   237  SER237      0.1889
    106  C        -53.0000   -4.3280   55.6100 C.2   237  SER237      0.2288
    107  O        -53.0440   -5.4330   56.1300 O.2   237  SER237     -0.2866
    108  CB       -51.2390   -3.9110   53.8480 C.3   237  SER237      0.2089
    109  OG       -51.4550   -5.2690   53.4580 O.3   237  SER237     -0.2183
    110  N        -54.9410   -5.5770   53.4720 N.3   239  ASP239     -0.1239
    111  CA       -54.9410   -6.7450   52.5700 C.3   239  ASP239      0.1674
    112  C        -54.4200   -8.0520   53.2010 C.2   239  ASP239      0.2266
    113  O        -55.0330   -9.1160   53.0340 O.2   239  ASP239     -0.2867
    114  CB       -54.1210   -6.4380   51.3120 C.3   239  ASP239      0.1410
    115  CG       -54.4290   -5.0620   50.7440 C.2   239  ASP239      0.3668
    116  OD1      -55.2420   -4.9480   49.8050 O.co2 239  ASP239     -0.2456
    117  OD2      -53.8920   -4.0840   51.2870 O.co2 239  ASP239     -0.2456
    118  N        -57.4940    3.4730   35.8820 N.3   258  TRP258     -0.1241
    119  CA       -56.8910    3.6180   37.2020 C.3   258  TRP258      0.1605
    120  C        -55.4070    3.3250   37.0920 C.2   258  TRP258      0.2264
    121  O        -54.9960    2.4840   36.2820 O.2   258  TRP258     -0.2867
    122  CB       -57.5420    2.6150   38.1740 C.3   258  TRP258      0.0550
    123  CG       -56.8130    2.3580   39.4490 C.ar  258  TRP258      0.0003
    124  CD1      -56.9400    3.0470   40.6080 C.ar  258  TRP258      0.0946
    125  CD2      -55.8650    1.3170   39.7100 C.ar  258  TRP258      0.0152
    126  NE1      -56.1250    2.5180   41.5720 N.ar  258  TRP258     -0.2442
    127  CE2      -55.4380    1.4650   41.0450 C.ar  258  TRP258      0.0810
    128  CE3      -55.2890    0.3150   38.9280 C.ar  258  TRP258      0.0012
    129  CZ2      -54.5200    0.6000   41.6500 C.ar  258  TRP258      0.0191
    130  CZ3      -54.3460   -0.5570   39.5330 C.ar  258  TRP258      0.0001
    131  CH2      -53.9850   -0.4020   40.8890 C.ar  258  TRP258      0.0015
    132  N        -52.0610    3.0710   40.2050 N.3   260  ASP260     -0.1239
    133  CA       -51.4920    3.3620   41.5220 C.3   260  ASP260      0.1674
    134  C        -50.2530    4.2190   41.4340 C.2   260  ASP260      0.2266
    135  O        -49.7620    4.6520   42.4450 O.2   260  ASP260     -0.2867
    136  CB       -51.1510    2.0800   42.2810 C.3   260  ASP260      0.1410
    137  CG       -50.1000    1.2130   41.5780 C.2   260  ASP260      0.3668
    138  OD1      -50.2170    0.9780   40.3480 O.co2 260  ASP260     -0.2456
    139  OD2      -49.1860    0.7250   42.2790 O.co2 260  ASP260     -0.2456
@<TRIPOS>BOND
     1   118   119    1
     2   121   120    2
     3   120   119    1
     4   119   122    1
     5   122   123    1
     6   128   130   ar
     7   128   125   ar
     8    52    51    1
     9    50    51   ar
    10    50    48   ar
    11   123   125   ar
    12   123   124   ar
    13   130   131   ar
    14   125   127   ar
    15    51    49   ar
    16    48    46   ar
    17   132   133    1
    18   138   137   ar
    19   124   126   ar
    20   131   129   ar
    21   127   126   ar
    22   127   129   ar
    23    49    47   ar
    24    46    47   ar
    25    46    45    1
    26   134   133    1
    27   134   135    2
    28   133   136    1
    29   137   139   ar
    30   137   136    1
    31    29    30    2
    32    29    28    1
    33    45    42    1
    34     4     3    2
    35    37    38    1
    36    75    76    1
    37    87    84    1
    38    87    88    1
    39    28    31    1
    40    28    27    1
    41    41    42    1
    42    41    39   am
    43    56    55    2
    44    31    32    1
    45    84    83    1
    46    84    85    1
    47    42    43    1
    48    78    77    2
    49     3     2    1
    50    83    77   am
    51    77    76    1
    52    38    39    1
    53    76    79    1
    54    39    40    2
    55     5     2    1
    56     5     6    1
    57    32    33   ar
    58    32    34   ar
    59    33    35   ar
    60    44    43    2
    61    55    54    1
    62    43    53   am
    63     7     6    1
    64     7     8    1
    65     2     1    1
    66    10     9    1
    67    86    85    2
    68    85    89   am
    69    34    36   ar
    70    35    36   ar
    71    53    54    1
    72    79    80    1
    73     8     9    2
    74     9    11    1
    75    89    90    1
    76    68    67    1
    77    68    69    2
    78    67    66    1
    79    67    70    1
    80    80    81    2
    81    80    82   am
    82    66    59   am
    83    90    91    1
    84    70    71    1
    85    71    72    1
    86    74    73    1
    87    91    92    2
    88    59    58    1
    89    59    60    2
    90    57    58    1
    91    73    72    1
    92    58    61    1
    93    64    63   ar
    94    63    65   ar
    95    63    62    1
    96    93    94    1
    97    61    62    1
    98   116   115   ar
    99    94    95    1
   100    94    97    1
   101   101   103   ar
   102   101    99   ar
   103    95    96    2
   104   103   102   ar
   105    99    98   ar
   106   115   117   ar
   107   115   114    1
   108   102   100   ar
   109    98   100   ar
   110    98    97    1
   111   114   111    1
   112   111   112    1
   113   111   110    1
   114   113   112    2
   115   109   108    1
   116    26    24    1
   117   108   105    1
   118    25    24    1
   119    18    17    2
   120    24    21    1
   121    19    17   am
   122    17    16    1
   123   105   106    1
   124   105   104    1
   125   106   107    2
   126    21    20    1
   127    21    22    1
   128    20    14   am
   129    16    13    1
   130    13    14    1
   131    13    12    1
   132    22    23    2
   133    14    15    2
