@<TRIPOS>MOLECULE
tmp/2x67A00.pdb
 134 128 0 0 0
SMALL
GASTEIGER

@<TRIPOS>ATOM
      1  N         17.4350   19.2860    8.4500 N.3   111  LEU111     -0.1245
      2  CA        16.1470   19.8060    8.8590 C.3   111  LEU111      0.1561
      3  C         15.6780   20.9920    7.9960 C.2   111  LEU111      0.2260
      4  O         14.4970   21.0640    7.5770 O.2   111  LEU111     -0.2867
      5  CB        16.2080   20.2010   10.3410 C.3   111  LEU111      0.0270
      6  CG        14.8710   20.7430   10.8840 C.3   111  LEU111      0.0019
      7  CD1       13.8900   19.5840   11.1410 C.3   111  LEU111      0.0001
      8  CD2       15.1200   21.5190   12.1390 C.3   111  LEU111      0.0001
      9  N         14.2010   19.9210    4.5750 N.3   114  VAL114     -0.1231
     10  CA        12.9490   19.1400    4.5510 C.3   114  VAL114      0.1692
     11  C         11.7600   19.9000    5.1760 C.2   114  VAL114      0.2592
     12  O         10.6010   19.4850    5.0160 O.2   114  VAL114     -0.2718
     13  CB        13.1110   17.7120    5.1650 C.3   114  VAL114      0.0266
     14  CG1       14.4290   17.0600    4.6920 C.3   114  VAL114      0.0020
     15  CG2       13.0430   17.7340    6.6740 C.3   114  VAL114      0.0020
     16  N         12.0270   21.0350    5.8320 N.am  115  THR115     -0.1953
     17  CA        10.9400   21.8140    6.4280 C.3   115  THR115      0.1897
     18  C         10.7910   23.1980    5.7740 C.2   115  THR115      0.2313
     19  O         10.0740   23.3450    4.7940 O.2   115  THR115     -0.2863
     20  CB        11.0980   21.9340    7.9660 C.3   115  THR115      0.1794
     21  OG1       12.3280   22.6130    8.2620 O.3   115  THR115     -0.2208
     22  CG2       11.1250   20.5410    8.6160 C.3   115  THR115      0.0378
     23  N          4.4740   16.6940   11.2730 N.3   137  LEU137     -0.1231
     24  CA         5.8410   16.8190   11.7590 C.3   137  LEU137      0.1693
     25  C          6.5830   17.9990   11.1100 C.2   137  LEU137      0.2591
     26  O          7.2530   18.7730   11.7960 O.2   137  LEU137     -0.2718
     27  CB         6.6220   15.5210   11.5390 C.3   137  LEU137      0.0284
     28  CG         8.0220   15.5090   12.1700 C.3   137  LEU137      0.0019
     29  CD1        7.8960   15.5220   13.6760 C.3   137  LEU137      0.0001
     30  CD2        8.8110   14.2790   11.7270 C.3   137  LEU137      0.0001
     31  N          6.4780   18.1270    9.7940 N.am  138  LEU138     -0.1980
     32  CA         7.1420   19.2440    9.1210 C.3   138  LEU138      0.1596
     33  C          6.5130   20.5480    9.5730 C.2   138  LEU138      0.2287
     34  O          7.2190   21.5400    9.7910 O.2   138  LEU138     -0.2864
     35  CB         7.0430   19.1540    7.5980 C.3   138  LEU138      0.0297
     36  CG         7.6000   17.9060    6.9110 C.3   138  LEU138      0.0022
     37  CD1        7.5600   18.1710    5.4000 C.3   138  LEU138      0.0001
     38  CD2        9.0140   17.5260    7.3770 C.3   138  LEU138      0.0001
     39  N          5.1200   21.2300   12.4370 N.3   140  SER140     -0.1202
     40  CA         5.5190   21.5720   13.8080 C.3   140  SER140      0.2020
     41  C          6.8230   22.3770   13.8350 C.2   140  SER140      0.2618
     42  O          6.9900   23.2610   14.6830 O.2   140  SER140     -0.2717
     43  CB         5.5670   20.3440   14.7160 C.3   140  SER140      0.2103
     44  OG         6.6330   19.4820   14.3560 O.3   140  SER140     -0.2182
     45  N          7.7000   22.1440   12.8580 N.am  141  VAL141     -0.1979
     46  CA         8.9560   22.8840   12.7960 C.3   141  VAL141      0.1595
     47  C          8.7770   24.2310   12.0970 C.2   141  VAL141      0.2287
     48  O          9.3610   25.2210   12.5210 O.2   141  VAL141     -0.2864
     49  CB        10.1020   22.0740   12.1180 C.3   141  VAL141      0.0276
     50  CG1       11.4030   22.9550   11.9290 C.3   141  VAL141      0.0022
     51  CG2       10.4050   20.8370   12.9510 C.3   141  VAL141      0.0022
     52  N          5.0070    7.6670   14.0500 N.3   198  PHE198     -0.1241
     53  CA         6.3020    8.2850   13.9930 C.3   198  PHE198      0.1605
     54  C          7.4040    7.2410   14.1100 C.2   198  PHE198      0.2264
     55  O          8.2850    7.1470   13.2320 O.2   198  PHE198     -0.2867
     56  CB         6.4910    9.3320   15.0810 C.3   198  PHE198      0.0534
     57  CG         7.8920    9.8020   15.1680 C.ar  198  PHE198     -0.0203
     58  CD1        8.3560   10.8160   14.3170 C.ar  198  PHE198     -0.0042
     59  CD2        8.7770    9.1920   16.0370 C.ar  198  PHE198     -0.0042
     60  CE1        9.6770   11.2450   14.3620 C.ar  198  PHE198     -0.0003
     61  CE2       10.1280    9.6040   16.0750 C.ar  198  PHE198     -0.0003
     62  CZ        10.5710   10.6220   15.2340 C.ar  198  PHE198     -0.0000
     63  N         10.5540    7.4940   11.7310 N.3   203  ARG203     -0.1245
     64  CA        11.8950    7.3640   12.3300 C.3   203  ARG203      0.1563
     65  C         12.9120    6.5750   11.4370 C.2   203  ARG203      0.2260
     66  O         14.0600    7.0040   11.2970 O.2   203  ARG203     -0.2867
     67  CB        11.7780    6.7980   13.7720 C.3   203  ARG203      0.0307
     68  CG        13.1060    6.5130   14.5060 C.3   203  ARG203      0.0489
     69  CD        14.0080    7.7370   14.5860 C.3   203  ARG203      0.2205
     70  NE        15.3390    7.4190   15.1670 N.pl3 203  ARG203     -0.0865
     71  CZ        16.4060    7.0540   14.4490 C.cat 203  ARG203      0.5346
     72  NH1       16.3270    6.9820   13.1110 N.pl3 203  ARG203      0.1354
     73  NH2       17.5650    6.7830   15.0580 N.pl3 203  ARG203      0.1354
     74  N         15.3190    8.5090    9.0550 N.3   206  TYR206     -0.1241
     75  CA        16.2850    9.4950    9.5760 C.3   206  TYR206      0.1605
     76  C         17.6400    8.9560   10.0590 C.2   206  TYR206      0.2264
     77  O         18.3160    9.5710   10.8780 O.2   206  TYR206     -0.2867
     78  CB        15.6460   10.3400   10.6810 C.3   206  TYR206      0.0534
     79  CG        14.3040   10.8840   10.2950 C.ar  206  TYR206     -0.0201
     80  CD1       14.1440   11.6520    9.1210 C.ar  206  TYR206     -0.0009
     81  CD2       13.1800   10.6000   11.0580 C.ar  206  TYR206     -0.0009
     82  CE1       12.8900   12.1300    8.7390 C.ar  206  TYR206      0.0417
     83  CE2       11.9130   11.0740   10.6810 C.ar  206  TYR206      0.0417
     84  CZ        11.7820   11.8410    9.5350 C.ar  206  TYR206      0.1957
     85  OH        10.5390   12.3140    9.1790 O.3   206  TYR206     -0.2866
     86  N         17.8880   14.1660    9.1770 N.3   219  PRO219     -0.2102
     87  CA        17.2100   15.3500    9.6650 C.3   219  PRO219      0.1504
     88  C         16.4860   15.1070   10.9740 C.2   219  PRO219      0.2576
     89  O         16.0700   13.9820   11.2880 O.2   219  PRO219     -0.2718
     90  CB        16.2450   15.7230    8.5430 C.3   219  PRO219      0.0282
     91  CG        16.2840   14.6380    7.5590 C.3   219  PRO219      0.0208
     92  CD        17.4940   13.8030    7.8040 C.3   219  PRO219      0.0893
     93  N         16.4100   16.1480   11.7800 N.am  220  GLY220     -0.1943
     94  CA        15.6530   16.0990   12.9990 C.3   220  GLY220      0.2014
     95  C         15.5620   17.4950   13.5790 C.2   220  GLY220      0.2639
     96  O         16.4580   18.3250   13.3840 O.2   220  GLY220     -0.2714
     97  N         14.4990   17.7440   14.3350 N.am  221  ALA221     -0.1963
     98  CA        14.3330   19.0620   14.9420 C.3   221  ALA221      0.1728
     99  C         15.4410   19.4060   15.9460 C.2   221  ALA221      0.2616
    100  O         15.6810   20.5880   16.2450 O.2   221  ALA221     -0.2715
    101  CB        12.9230   19.2180   15.5540 C.3   221  ALA221      0.0334
    102  N         16.1500   18.3790   16.4120 N.am  222  VAL222     -0.1977
    103  CA        17.3780   18.5430   17.1980 C.3   222  VAL222      0.1596
    104  C         18.4040   19.4850   16.5110 C.2   222  VAL222      0.2287
    105  O         19.1890   20.1720   17.1850 O.2   222  VAL222     -0.2864
    106  CB        18.0120   17.1370   17.5610 C.3   222  VAL222      0.0276
    107  CG1       18.4320   16.3820   16.2950 C.3   222  VAL222      0.0022
    108  CG2       19.2020   17.2990   18.5060 C.3   222  VAL222      0.0022
    109  N          9.4350    6.7930   21.9910 N.3   318  TYR318     -0.1241
    110  CA        10.3510    5.6750   22.2640 C.3   318  TYR318      0.1605
    111  C          9.7680    4.5990   23.2070 C.2   318  TYR318      0.2264
    112  O         10.3940    3.5560   23.4320 O.2   318  TYR318     -0.2867
    113  CB        11.7560    6.1780   22.6510 C.3   318  TYR318      0.0534
    114  CG        12.4280    6.7530   21.4070 C.ar  318  TYR318     -0.0201
    115  CD1       12.0850    8.0260   20.9390 C.ar  318  TYR318     -0.0009
    116  CD2       13.3200    5.9910   20.6500 C.ar  318  TYR318     -0.0009
    117  CE1       12.6250    8.5390   19.7800 C.ar  318  TYR318      0.0417
    118  CE2       13.8750    6.5000   19.4640 C.ar  318  TYR318      0.0417
    119  CZ        13.5230    7.7850   19.0410 C.ar  318  TYR318      0.1957
    120  OH        14.0580    8.3280   17.8900 O.3   318  TYR318     -0.2866
    121  N         17.4740    8.8270   19.0000 N.3   323  GLY323     -0.1210
    122  CA        16.9220    9.6600   17.9540 C.3   323  GLY323      0.1956
    123  C         17.8100    9.7410   16.7180 C.2   323  GLY323      0.2613
    124  O         18.8830    9.1170   16.6420 O.2   323  GLY323     -0.2717
    125  N         17.3490   10.5230   15.7500 N.am  324  SER324     -0.1938
    126  CA        18.0910   10.8250   14.5340 C.3   324  SER324      0.2055
    127  C         19.3590   11.6270   14.8520 C.2   324  SER324      0.2643
    128  O         20.3360   11.5500   14.1190 O.2   324  SER324     -0.2714
    129  CB        17.2170   11.6160   13.5500 C.3   324  SER324      0.2130
    130  OG        16.8760   12.8960   14.0630 O.3   324  SER324     -0.2179
    131  N         19.3290   12.3970   15.9360 N.am  325  GLY325     -0.1954
    132  CA        20.4990   13.1300   16.4090 C.3   325  GLY325      0.1869
    133  C         21.5140   12.2680   17.1660 C.2   325  GLY325      0.2309
    134  O         22.5730   12.7670   17.5530 O.2   325  GLY325     -0.2863
@<TRIPOS>BOND
     1    10     9    1
     2    10    13    1
     3    10    11    1
     4    14    13    1
     5    19    18    2
     6    12    11    2
     7    13    15    1
     8    11    16   am
     9    37    36    1
    10    18    17    1
    11    16    17    1
    12    17    20    1
    13    36    38    1
    14    36    35    1
    15    91    92    1
    16    91    90    1
    17     4     3    2
    18    35    32    1
    19    92    86    1
    20    20    21    1
    21    20    22    1
    22     3     2    1
    23     1     2    1
    24    90    87    1
    25    82    80   ar
    26    82    84   ar
    27     2     5    1
    28    74    75    1
    29    80    79   ar
    30    32    33    1
    31    32    31    1
    32    86    87    1
    33    85    84    1
    34    84    83   ar
    35    33    34    2
    36    75    76    1
    37    75    78    1
    38    87    88    1
    39    31    25   am
    40    76    77    2
    41    79    78    1
    42    79    81   ar
    43     5     6    1
    44    83    81   ar
    45     6     7    1
    46     6     8    1
    47    88    89    2
    48    88    93   am
    49    25    24    1
    50    25    26    2
    51    23    24    1
    52    66    65    2
    53    65    64    1
    54    27    24    1
    55    27    28    1
    56    30    28    1
    57    63    64    1
    58    93    94    1
    59    50    49    1
    60    47    48    2
    61    47    46    1
    62    49    46    1
    63    49    51    1
    64    28    29    1
    65    64    67    1
    66    39    40    1
    67    46    45    1
    68    45    41   am
    69    94    95    1
    70    72    71    1
    71    55    54    2
    72    96    95    2
    73   129   130    1
    74   129   126    1
    75    95    97   am
    76    67    68    1
    77    40    41    1
    78    40    43    1
    79    41    42    2
    80    53    52    1
    81    53    54    1
    82    53    56    1
    83   128   127    2
    84    58    60   ar
    85    58    57   ar
    86    97    98    1
    87    44    43    1
    88    60    62   ar
    89    71    73    1
    90    71    70    2
    91    68    69    1
    92   126   127    1
    93   126   125    1
    94    69    70    1
    95   127   131   am
    96    98   101    1
    97    98    99    1
    98    56    57    1
    99    57    59   ar
   100    62    61   ar
   101   125   123   am
   102   131   132    1
   103    99   100    2
   104    99   102   am
   105    59    61   ar
   106   107   106    1
   107   132   133    1
   108   102   103    1
   109   104   105    2
   110   104   103    1
   111   124   123    2
   112   123   122    1
   113   133   134    2
   114   103   106    1
   115   106   108    1
   116   120   119    1
   117   122   121    1
   118   119   118   ar
   119   119   117   ar
   120   118   116   ar
   121   117   115   ar
   122   116   114   ar
   123   115   114   ar
   124   114   113    1
   125   109   110    1
   126   110   113    1
   127   110   111    1
   128   111   112    2
