@<TRIPOS>MOLECULE
tmp/2x6bA00.pdb
 88 88 0 0 0
SMALL
GASTEIGER

@<TRIPOS>ATOM
      1  N        -11.6450   61.6830   -2.7910 N.3   189  ARG189     -0.1245
      2  CA       -10.6610   61.8850   -1.7410 C.3   189  ARG189      0.1563
      3  C        -10.9450   60.9270   -0.6010 C.2   189  ARG189      0.2260
      4  O        -11.8050   61.1780    0.2360 O.2   189  ARG189     -0.2867
      5  CB       -10.6490   63.3310   -1.2400 C.3   189  ARG189      0.0307
      6  CG        -9.7890   63.5170   -0.0020 C.3   189  ARG189      0.0489
      7  CD        -9.3600   64.9540    0.2180 C.3   189  ARG189      0.2205
      8  NE        -8.6430   65.5010   -0.9300 N.pl3 189  ARG189     -0.0865
      9  CZ        -9.0470   66.5670   -1.6150 C.cat 189  ARG189      0.5346
     10  NH1      -10.1630   67.1960   -1.2530 N.pl3 189  ARG189      0.1354
     11  NH2       -8.3400   67.0110   -2.6530 N.pl3 189  ARG189      0.1354
     12  N         -7.3940   62.1530    4.0960 N.3   192  SER192     -0.1217
     13  CA        -7.3620   63.5640    4.4160 C.3   192  SER192      0.1889
     14  C         -6.3590   63.7280    5.5430 C.2   192  SER192      0.2288
     15  O         -6.5710   63.2290    6.6500 O.2   192  SER192     -0.2866
     16  CB        -8.7530   64.0580    4.8210 C.3   192  SER192      0.2089
     17  OG        -8.7560   65.4470    5.0920 O.3   192  SER192     -0.2183
     18  N         -5.6260   65.9260    7.4160 N.3   194  ILE194     -0.1231
     19  CA        -6.1430   66.5910    8.5920 C.3   194  ILE194      0.1692
     20  C         -7.6350   66.8490    8.4100 C.2   194  ILE194      0.2592
     21  O         -8.1110   66.9960    7.2820 O.2   194  ILE194     -0.2718
     22  CB        -5.4320   67.9140    8.8180 C.3   194  ILE194      0.0266
     23  CG1       -5.4860   68.2920   10.2870 C.3   194  ILE194      0.0019
     24  CG2       -6.0730   68.9910    7.9920 C.3   194  ILE194      0.0020
     25  CD1       -5.2960   69.7500   10.5090 C.3   194  ILE194      0.0001
     26  N         -8.3690   66.8950    9.5180 N.am  195  PHE195     -0.1962
     27  CA        -9.8140   67.0480    9.4690 C.3   195  PHE195      0.1771
     28  C        -10.2950   67.6510   10.7660 C.2   195  PHE195      0.2620
     29  O        -10.1980   67.0150   11.8120 O.2   195  PHE195     -0.2715
     30  CB       -10.4690   65.6820    9.2630 C.3   195  PHE195      0.0574
     31  CG       -11.9740   65.6960    9.3680 C.ar  195  PHE195     -0.0200
     32  CD1      -12.7290   66.5540    8.5910 C.ar  195  PHE195     -0.0042
     33  CD2      -12.6280   64.8250   10.2250 C.ar  195  PHE195     -0.0042
     34  CE1      -14.1010   66.5550    8.6820 C.ar  195  PHE195     -0.0003
     35  CE2      -14.0000   64.8190   10.3230 C.ar  195  PHE195     -0.0003
     36  CZ       -14.7400   65.6820    9.5520 C.ar  195  PHE195     -0.0000
     37  N        -10.8090   68.8740   10.7180 N.am  196  SER196     -0.1936
     38  CA       -11.2630   69.5090   11.9460 C.3   196  SER196      0.2055
     39  C        -12.6910   70.0030   11.8560 C.2   196  SER196      0.2643
     40  O        -13.3880   70.0710   12.8670 O.2   196  SER196     -0.2714
     41  CB       -10.3350   70.6530   12.3450 C.3   196  SER196      0.2130
     42  OG       -10.1150   71.5110   11.2400 O.3   196  SER196     -0.2179
     43  N        -13.1350   70.3270   10.6470 N.am  197  LEU197     -0.1963
     44  CA       -14.4510   70.9320   10.4690 C.3   197  LEU197      0.1728
     45  C        -15.4800   70.0250    9.7830 C.2   197  LEU197      0.2617
     46  O        -16.2050   69.2770   10.4430 O.2   197  LEU197     -0.2715
     47  CB       -14.3090   72.2350    9.6850 C.3   197  LEU197      0.0311
     48  CG       -13.1840   73.1320   10.2100 C.3   197  LEU197      0.0022
     49  CD1      -13.0150   74.3680    9.3520 C.3   197  LEU197      0.0001
     50  CD2      -13.4500   73.5130   11.6480 C.3   197  LEU197      0.0001
     51  N        -15.5450   70.1070    8.4560 N.am  198  SER198     -0.1936
     52  CA       -16.5170   69.3420    7.6860 C.3   198  SER198      0.2055
     53  C        -15.8720   68.7190    6.4570 C.2   198  SER198      0.2643
     54  O        -14.9710   69.3030    5.8650 O.2   198  SER198     -0.2714
     55  CB       -17.6810   70.2440    7.2710 C.3   198  SER198      0.2130
     56  OG       -18.6500   69.5290    6.5310 O.3   198  SER198     -0.2179
     57  N        -16.3580   67.5470    6.0630 N.am  199  TRP199     -0.1959
     58  CA       -15.8160   66.8320    4.9180 C.3   199  TRP199      0.1771
     59  C        -16.9480   66.2290    4.1000 C.2   199  TRP199      0.2620
     60  O        -17.6910   65.3950    4.6050 O.2   199  TRP199     -0.2715
     61  CB       -14.8920   65.7140    5.4200 C.3   199  TRP199      0.0590
     62  CG       -14.2060   64.9050    4.3500 C.ar  199  TRP199      0.0006
     63  CD1      -14.3230   65.0600    3.0050 C.ar  199  TRP199      0.0946
     64  CD2      -13.2970   63.8210    4.5500 C.ar  199  TRP199      0.0152
     65  NE1      -13.5460   64.1350    2.3480 N.ar  199  TRP199     -0.2442
     66  CE2      -12.8970   63.3680    3.2790 C.ar  199  TRP199      0.0810
     67  CE3      -12.7750   63.1890    5.6800 C.ar  199  TRP199      0.0012
     68  CZ2      -12.0040   62.3100    3.1070 C.ar  199  TRP199      0.0191
     69  CZ3      -11.8840   62.1370    5.5080 C.ar  199  TRP199      0.0001
     70  CH2      -11.5150   61.7070    4.2330 C.ar  199  TRP199      0.0015
     71  N        -17.1030   66.6370    2.8460 N.am  200  THR200     -0.1951
     72  CA       -18.0660   65.9430    1.9920 C.3   200  THR200      0.1897
     73  C        -17.3420   64.8140    1.2860 C.2   200  THR200      0.2313
     74  O        -16.4430   65.0480    0.4770 O.2   200  THR200     -0.2863
     75  CB       -18.7320   66.8460    0.9110 C.3   200  THR200      0.1794
     76  OG1      -19.3710   67.9780    1.5140 O.3   200  THR200     -0.2208
     77  CG2      -19.7710   66.0550    0.1310 C.3   200  THR200      0.0378
     78  N        -20.9090   76.8170    6.2260 N.3   262  PHE262     -0.1241
     79  CA       -20.0100   77.8620    6.6820 C.3   262  PHE262      0.1605
     80  C        -20.6940   79.2180    6.7380 C.2   262  PHE262      0.2264
     81  O        -21.3040   79.6670    5.7660 O.2   262  PHE262     -0.2867
     82  CB       -18.7390   77.8810    5.8480 C.3   262  PHE262      0.0534
     83  CG       -17.8390   76.7110    6.1180 C.ar  262  PHE262     -0.0203
     84  CD1      -17.7460   75.6610    5.2160 C.ar  262  PHE262     -0.0042
     85  CD2      -17.1070   76.6480    7.2940 C.ar  262  PHE262     -0.0042
     86  CE1      -16.9260   74.5810    5.4720 C.ar  262  PHE262     -0.0003
     87  CE2      -16.2850   75.5700    7.5550 C.ar  262  PHE262     -0.0003
     88  CZ       -16.1960   74.5320    6.6400 C.ar  262  PHE262     -0.0000
@<TRIPOS>BOND
     1     1     2    1
     2    11     9    1
     3     2     5    1
     4     2     3    1
     5     9    10    1
     6     9     8    2
     7     5     6    1
     8     8     7    1
     9     3     4    2
    10     6     7    1
    11    77    75    1
    12    74    73    2
    13    75    76    1
    14    75    72    1
    15    73    72    1
    16    72    71    1
    17    65    63   ar
    18    65    66   ar
    19    71    59   am
    20    63    62   ar
    21    68    66   ar
    22    68    70   ar
    23    66    64   ar
    24    12    13    1
    25    59    60    2
    26    59    58    1
    27    70    69   ar
    28    62    64   ar
    29    62    61    1
    30    13    16    1
    31    13    14    1
    32    64    67   ar
    33    16    17    1
    34    58    61    1
    35    58    57    1
    36    84    86   ar
    37    84    83   ar
    38    86    88   ar
    39    69    67   ar
    40    14    15    2
    41    81    80    2
    42    82    83    1
    43    82    79    1
    44    54    53    2
    45    57    53   am
    46    83    85   ar
    47    78    79    1
    48    53    52    1
    49    56    55    1
    50    88    87   ar
    51    79    80    1
    52    55    52    1
    53    21    20    2
    54    85    87   ar
    55    18    19    1
    56    52    51    1
    57    24    22    1
    58    20    19    1
    59    20    26   am
    60    51    45   am
    61    32    34   ar
    62    32    31   ar
    63    19    22    1
    64    34    36   ar
    65    22    23    1
    66    30    31    1
    67    30    27    1
    68    49    48    1
    69    31    33   ar
    70    27    26    1
    71    27    28    1
    72    36    35   ar
    73    47    48    1
    74    47    44    1
    75    45    46    2
    76    45    44    1
    77    48    50    1
    78    33    35   ar
    79    23    25    1
    80    44    43    1
    81    43    39   am
    82    37    28   am
    83    37    38    1
    84    28    29    2
    85    42    41    1
    86    39    38    1
    87    39    40    2
    88    38    41    1
