@<TRIPOS>MOLECULE
tmp/2x6dA00.pdb
 205 196 0 0 0
SMALL
GASTEIGER

@<TRIPOS>ATOM
      1  N          7.3110   27.2290   81.7040 N.3    12  ARG12      -0.1245
      2  CA         6.5270   27.2080   82.9580 C.3    12  ARG12       0.1563
      3  C          5.0870   26.6480   82.8510 C.2    12  ARG12       0.2260
      4  O          4.4340   26.7710   81.8240 O.2    12  ARG12      -0.2867
      5  CB         6.5510   28.5580   83.7040 C.3    12  ARG12       0.0307
      6  CG         6.0210   29.7820   82.9830 C.3    12  ARG12       0.0489
      7  CD         5.9580   31.0430   83.9080 C.3    12  ARG12       0.2205
      8  NE         4.6870   31.1290   84.6030 N.pl3  12  ARG12      -0.0865
      9  CZ         3.6650   31.8690   84.2030 C.cat  12  ARG12       0.5346
     10  NH1        3.8020   32.6290   83.1120 N.pl3  12  ARG12       0.1354
     11  NH2        2.5080   31.8490   84.8800 N.pl3  12  ARG12       0.1354
     12  N          1.2740   27.0820   83.3940 N.3    14  LEU14      -0.1231
     13  CA         0.5400   28.3180   83.2850 C.3    14  LEU14       0.1693
     14  C         -0.7090   28.2200   84.1450 C.2    14  LEU14       0.2593
     15  O         -1.3440   29.2260   84.4740 O.2    14  LEU14      -0.2718
     16  CB         0.2450   28.6140   81.8190 C.3    14  LEU14       0.0284
     17  CG         1.3980   28.9290   80.8790 C.3    14  LEU14       0.0019
     18  CD1        0.9500   29.1490   79.4320 C.3    14  LEU14       0.0001
     19  CD2        2.2020   30.1120   81.3480 C.3    14  LEU14       0.0001
     20  N         -1.0300   26.9860   84.5200 N.am   15  GLY15      -0.1942
     21  CA        -2.2020   26.6440   85.3140 C.3    15  GLY15       0.2014
     22  C         -2.3260   25.1400   85.5480 C.2    15  GLY15       0.2639
     23  O         -1.9250   24.3300   84.6940 O.2    15  GLY15      -0.2714
     24  N         -2.8560   24.7660   86.7160 N.am   16  LYS16      -0.1963
     25  CA        -3.1180   23.3600   87.0630 C.3    16  LYS16       0.1728
     26  C         -4.5010   22.9260   86.6010 C.2    16  LYS16       0.2616
     27  O         -5.3590   23.7620   86.2820 O.2    16  LYS16      -0.2715
     28  CB        -3.0380   23.1660   88.5720 C.3    16  LYS16       0.0311
     29  CG        -1.6390   23.4240   89.1720 C.3    16  LYS16       0.0038
     30  CD        -1.6390   23.2440   90.7130 C.3    16  LYS16       0.0206
     31  CE        -0.2230   23.4080   91.2850 C.3    16  LYS16       0.1093
     32  NZ        -0.1980   23.3210   92.7670 N.3    16  LYS16      -0.1314
     33  N         -4.7240   21.6150   86.5640 N.am   17  GLY17      -0.1955
     34  CA        -5.9830   21.0580   86.0790 C.3    17  GLY17       0.1869
     35  C         -6.0760   19.5910   86.4170 C.2    17  GLY17       0.2309
     36  O         -5.0660   18.8590   86.4240 O.2    17  GLY17      -0.2863
     37  N         -7.6230   17.4230   84.6810 N.3    19  PHE19      -0.1227
     38  CA        -7.5070   16.6670   83.4430 C.3    19  PHE19       0.1736
     39  C         -6.0700   16.6770   82.8820 C.2    19  PHE19       0.2596
     40  O         -5.6760   15.8660   82.0370 O.2    19  PHE19      -0.2718
     41  CB        -8.5060   17.2290   82.4420 C.3    19  PHE19       0.0547
     42  CG        -9.9220   16.8210   82.7110 C.ar   19  PHE19      -0.0202
     43  CD1      -10.2630   15.4830   82.7380 C.ar   19  PHE19      -0.0042
     44  CD2      -10.9110   17.7690   82.9080 C.ar   19  PHE19      -0.0042
     45  CE1      -11.5640   15.0880   82.9710 C.ar   19  PHE19      -0.0003
     46  CE2      -12.2160   17.3800   83.1500 C.ar   19  PHE19      -0.0003
     47  CZ       -12.5410   16.0310   83.1770 C.ar   19  PHE19      -0.0000
     48  N         -5.2780   17.6000   83.3880 N.am   20  GLY20      -0.1942
     49  CA        -3.9330   17.7730   82.8930 C.3    20  GLY20       0.2014
     50  C         -3.3270   19.1240   83.2530 C.2    20  GLY20       0.2639
     51  O         -3.5760   19.6590   84.3450 O.2    20  GLY20      -0.2714
     52  N         -2.5440   19.6780   82.3240 N.am   21  ASN21      -0.1958
     53  CA        -1.7140   20.8530   82.5840 C.3    21  ASN21       0.1819
     54  C         -1.4690   21.7010   81.3350 C.2    21  ASN21       0.2621
     55  O         -1.4540   21.1800   80.2220 O.2    21  ASN21      -0.2715
     56  CB        -0.3590   20.4210   83.1450 C.3    21  ASN21       0.1195
     57  CG        -0.3860   20.1350   84.6380 C.2    21  ASN21       0.2630
     58  OD1        0.5710   19.5790   85.1520 O.2    21  ASN21      -0.2716
     59  ND2       -1.4570   20.5290   85.3370 N.am   21  ASN21      -0.0877
     60  N         -1.2590   23.0040   81.5220 N.am   22  VAL22      -0.1977
     61  CA        -0.9000   23.8610   80.4080 C.3    22  VAL22       0.1596
     62  C          0.4490   24.5390   80.6080 C.2    22  VAL22       0.2287
     63  O          0.5970   25.3590   81.4870 O.2    22  VAL22      -0.2864
     64  CB        -1.9480   24.9290   80.1200 C.3    22  VAL22       0.0276
     65  CG1       -1.3680   25.9010   79.1060 C.3    22  VAL22       0.0022
     66  CG2       -3.2490   24.3100   79.6100 C.3    22  VAL22       0.0022
     67  N          0.9560   28.0000   73.9050 N.3    35  ALA35      -0.1245
     68  CA         0.4620   27.2280   75.0630 C.3    35  ALA35       0.1562
     69  C          0.1610   25.7990   74.6720 C.2    35  ALA35       0.2260
     70  O         -0.6250   25.5520   73.7600 O.2    35  ALA35      -0.2867
     71  CB        -0.7640   27.8450   75.6450 C.3    35  ALA35       0.0290
     72  N         -1.5710   22.5570   76.0680 N.3    37  LYS37      -0.1245
     73  CA        -2.3980   21.8200   77.0410 C.3    37  LYS37       0.1561
     74  C         -2.1190   20.3360   76.9550 C.2    37  LYS37       0.2260
     75  O         -2.2590   19.7490   75.8940 O.2    37  LYS37      -0.2867
     76  CB        -3.8870   22.0250   76.8300 C.3    37  LYS37       0.0271
     77  CG        -4.6650   21.2970   77.8940 C.3    37  LYS37       0.0035
     78  CD        -6.1150   21.0530   77.4970 C.3    37  LYS37       0.0206
     79  CE        -7.0340   22.1140   78.0170 C.3    37  LYS37       0.1093
     80  NZ        -7.5360   23.0120   76.9530 N.3    37  LYS37      -0.1314
     81  N         -2.8790   16.6030   78.3370 N.3    39  LEU39      -0.1245
     82  CA        -3.9970   15.9360   79.0180 C.3    39  LEU39       0.1561
     83  C         -3.7110   14.4810   79.3850 C.2    39  LEU39       0.2260
     84  O         -2.8970   13.7960   78.7290 O.2    39  LEU39      -0.2867
     85  CB        -5.2640   16.0410   78.1750 C.3    39  LEU39       0.0270
     86  CG        -5.7790   17.4960   78.1520 C.3    39  LEU39       0.0019
     87  CD1       -6.9560   17.7010   77.2100 C.3    39  LEU39       0.0001
     88  CD2       -6.1730   17.9400   79.5340 C.3    39  LEU39       0.0001
     89  N         -9.4180   32.3260   71.1970 N.3    65  LEU65      -0.1245
     90  CA        -8.1070   31.6760   71.2280 C.3    65  LEU65       0.1561
     91  C         -7.9390   30.6350   70.1220 C.2    65  LEU65       0.2260
     92  O         -8.7900   29.7410   69.9760 O.2    65  LEU65      -0.2867
     93  CB        -7.8810   30.9950   72.5720 C.3    65  LEU65       0.0270
     94  CG        -6.4150   30.7920   72.8860 C.3    65  LEU65       0.0019
     95  CD1       -5.8100   32.1690   73.2260 C.3    65  LEU65       0.0001
     96  CD2       -6.2170   29.7460   73.9940 C.3    65  LEU65       0.0001
     97  N         -2.0470   25.3810   71.4410 N.3    81  LEU81      -0.1231
     98  CA        -2.8730   26.5890   71.5110 C.3    81  LEU81       0.1693
     99  C         -2.1920   27.9440   71.2840 C.2    81  LEU81       0.2592
    100  O         -0.9980   28.1060   71.4540 O.2    81  LEU81      -0.2718
    101  CB        -3.6240   26.6000   72.8570 C.3    81  LEU81       0.0284
    102  CG        -4.6970   25.5220   73.0530 C.3    81  LEU81       0.0019
    103  CD1       -4.7000   24.9780   74.4540 C.3    81  LEU81       0.0001
    104  CD2       -6.0370   26.0890   72.6870 C.3    81  LEU81       0.0001
    105  N         -2.9820   28.9350   70.9020 N.am   82  GLU82      -0.1966
    106  CA        -2.5250   30.3220   70.9920 C.3    82  GLU82       0.1733
    107  C         -2.2220   30.6680   72.4550 C.2    82  GLU82       0.2616
    108  O         -2.9540   30.2890   73.3890 O.2    82  GLU82      -0.2715
    109  CB        -3.5500   31.2750   70.4210 C.3    82  GLU82       0.0429
    110  CG        -3.1610   32.7190   70.6400 C.3    82  GLU82       0.1163
    111  CD        -4.1850   33.7220   70.1500 C.2    82  GLU82       0.3649
    112  OE1       -3.8860   34.9060   70.2650 O.co2  82  GLU82      -0.2457
    113  OE2       -5.2660   33.3340   69.6500 O.co2  82  GLU82      -0.2457
    114  N         -1.1050   31.3330   72.6800 N.am   83  TYR83      -0.1960
    115  CA        -0.7520   31.7300   74.0370 C.3    83  TYR83       0.1771
    116  C         -1.1790   33.1870   74.1800 C.2    83  TYR83       0.2619
    117  O         -1.0620   33.9690   73.2590 O.2    83  TYR83      -0.2715
    118  CB         0.7250   31.4780   74.3100 C.3    83  TYR83       0.0574
    119  CG         1.3620   32.3930   75.3070 C.ar   83  TYR83      -0.0198
    120  CD1        2.1450   33.4670   74.9040 C.ar   83  TYR83      -0.0009
    121  CD2        1.2040   32.1820   76.6730 C.ar   83  TYR83      -0.0009
    122  CE1        2.7140   34.3070   75.8240 C.ar   83  TYR83       0.0417
    123  CE2        1.7710   33.0290   77.6110 C.ar   83  TYR83       0.0417
    124  CZ         2.5300   34.0880   77.1730 C.ar   83  TYR83       0.1957
    125  OH         3.1070   34.9530   78.0760 O.3    83  TYR83      -0.2866
    126  N         -1.7600   33.5170   75.3240 N.am   84  ALA84      -0.1964
    127  CA        -2.3250   34.8250   75.5520 C.3    84  ALA84       0.1713
    128  C         -1.4350   35.5710   76.5550 C.2    84  ALA84       0.2458
    129  O         -1.4230   35.2780   77.7230 O.2    84  ALA84      -0.2730
    130  CB        -3.7420   34.6920   76.0530 C.3    84  ALA84       0.0333
    131  N         -0.6630   36.5420   76.0780 N.am   85  PRO85      -0.2716
    132  CA         0.4240   37.0930   76.8900 C.3    85  PRO85       0.1536
    133  C          0.0060   37.7780   78.2100 C.2    85  PRO85       0.2598
    134  O          0.8240   37.9130   79.1190 O.2    85  PRO85      -0.2715
    135  CB         1.0650   38.1170   75.9470 C.3    85  PRO85       0.0310
    136  CG         0.6130   37.7100   74.5760 C.3    85  PRO85       0.0237
    137  CD        -0.7270   37.1500   74.7360 C.3    85  PRO85       0.0939
    138  N         -1.2330   38.2100   78.3580 N.am   86  LEU86      -0.1964
    139  CA        -1.5680   38.9620   79.5800 C.3    86  LEU86       0.1728
    140  C         -2.4180   38.1770   80.6160 C.2    86  LEU86       0.2617
    141  O         -2.9390   38.7760   81.5340 O.2    86  LEU86      -0.2715
    142  CB        -2.1490   40.3560   79.2290 C.3    86  LEU86       0.0311
    143  CG        -1.1760   41.5380   79.0600 C.3    86  LEU86       0.0022
    144  CD1        0.0390   41.1290   78.1990 C.3    86  LEU86       0.0001
    145  CD2       -1.8690   42.6580   78.3770 C.3    86  LEU86       0.0001
    146  N         -2.5500   36.8530   80.4580 N.am   87  GLY87      -0.1940
    147  CA        -3.2090   35.9840   81.4210 C.3    87  GLY87       0.2014
    148  C         -4.7300   36.0270   81.4090 C.2    87  GLY87       0.2639
    149  O         -5.3040   36.4040   80.3930 O.2    87  GLY87      -0.2714
    150  N         -5.3820   35.6610   82.5160 N.am   88  THR88      -0.1950
    151  CA        -6.8530   35.6520   82.5320 C.3    88  THR88       0.1897
    152  C         -7.5620   36.9050   83.0450 C.2    88  THR88       0.2313
    153  O         -7.0450   37.6410   83.8750 O.2    88  THR88      -0.2863
    154  CB        -7.4350   34.4380   83.2940 C.3    88  THR88       0.1794
    155  OG1       -7.2800   34.5960   84.7130 O.3    88  THR88      -0.2208
    156  CG2       -6.7780   33.1900   82.8030 C.3    88  THR88       0.0378
    157  N         -7.6900   36.7280   86.8330 N.3    91  ARG91      -0.1245
    158  CA        -6.5950   37.3130   87.6310 C.3    91  ARG91       0.1563
    159  C         -6.6610   38.8420   87.6150 C.2    91  ARG91       0.2260
    160  O         -6.4800   39.4940   88.6150 O.2    91  ARG91      -0.2867
    161  CB        -5.2280   36.8170   87.1560 C.3    91  ARG91       0.0307
    162  CG        -4.0740   36.9920   88.1720 C.3    91  ARG91       0.0489
    163  CD        -2.6560   36.8650   87.5150 C.3    91  ARG91       0.2205
    164  NE        -1.5850   37.5200   88.2970 N.pl3  91  ARG91      -0.0865
    165  CZ        -0.4280   36.9490   88.6610 C.cat  91  ARG91       0.5346
    166  NH1        0.4640   37.6220   89.3830 N.pl3  91  ARG91       0.1354
    167  NH2       -0.1520   35.7060   88.2920 N.pl3  91  ARG91       0.1354
    168  N        -12.3630   32.7830   84.3210 N.3   131  GLU131     -0.1231
    169  CA       -11.2050   31.9060   84.2800 C.3   131  GLU131      0.1699
    170  C        -10.9860   31.3570   82.8770 C.2   131  GLU131      0.2592
    171  O         -9.9020   30.8940   82.5680 O.2   131  GLU131     -0.2718
    172  CB       -11.1690   30.8170   85.3960 C.3   131  GLU131      0.0402
    173  CG       -12.4950   30.2610   85.8550 C.3   131  GLU131      0.1161
    174  CD       -13.1540   31.1050   86.9300 C.2   131  GLU131      0.3649
    175  OE1      -12.6660   30.9930   88.0670 O.co2 131  GLU131     -0.2457
    176  OE2      -14.1440   31.8380   86.6490 O.co2 131  GLU131     -0.2457
    177  N        -12.0040   31.4520   82.0200 N.am  132  ASN132     -0.1974
    178  CA       -11.8760   31.0930   80.5810 C.3   132  ASN132      0.1688
    179  C        -11.7560   32.2970   79.6550 C.2   132  ASN132      0.2292
    180  O        -11.9930   32.2040   78.4610 O.2   132  ASN132     -0.2864
    181  CB       -13.0460   30.2340   80.0490 C.3   132  ASN132      0.1181
    182  CG       -13.2210   28.9230   80.7810 C.2   132  ASN132      0.2629
    183  OD1      -14.3000   28.3360   80.7390 O.2   132  ASN132     -0.2716
    184  ND2      -12.1600   28.4500   81.4510 N.am  132  ASN132     -0.0877
    185  N         -9.2020   35.3310   78.3060 N.3   134  LEU134     -0.1245
    186  CA        -7.7480   35.5230   78.2400 C.3   134  LEU134      0.1561
    187  C         -7.3990   36.8870   77.6360 C.2   134  LEU134      0.2260
    188  O         -8.2150   37.4900   76.9870 O.2   134  LEU134     -0.2867
    189  CB        -7.0750   34.3980   77.4310 C.3   134  LEU134      0.0270
    190  CG        -7.0090   33.0380   78.1130 C.3   134  LEU134      0.0019
    191  CD1       -6.6280   31.9090   77.1150 C.3   134  LEU134      0.0001
    192  CD2       -6.0280   33.0810   79.2870 C.3   134  LEU134      0.0001
    193  N        -11.7730   31.3850   75.5720 N.3   144  ALA144     -0.1231
    194  CA       -11.0050   30.1590   75.5580 C.3   144  ALA144      0.1694
    195  C        -11.7910   28.9490   76.0940 C.2   144  ALA144      0.2592
    196  O        -12.9640   29.0610   76.4970 O.2   144  ALA144     -0.2718
    197  CB        -9.7470   30.3490   76.3610 C.3   144  ALA144      0.0304
    198  N        -11.1530   27.7910   76.0870 N.am  145  ASP145     -0.1974
    199  CA       -11.7500   26.6400   76.7120 C.3   145  ASP145      0.1709
    200  C        -13.0070   26.1120   76.0770 C.2   145  ASP145      0.2293
    201  O        -14.0790   26.0840   76.6910 O.2   145  ASP145     -0.2864
    202  CB       -12.1600   27.0020   78.0920 C.3   145  ASP145      0.1436
    203  CG       -12.1290   25.8430   78.9670 C.2   145  ASP145      0.3671
    204  OD1      -10.9780   25.5220   79.3030 O.co2 145  ASP145     -0.2456
    205  OD2      -13.2190   25.2640   79.2730 O.co2 145  ASP145     -0.2456
@<TRIPOS>BOND
     1   113   111   ar
     2    92    91    2
     3    91    90    1
     4   111   112   ar
     5   111   110    1
     6   109   110    1
     7   109   106    1
     8   105   106    1
     9   105    99   am
    10   106   107    1
    11    89    90    1
    12    90    93    1
    13    99   100    2
    14    99    98    1
    15    97    98    1
    16    98   101    1
    17   107   114   am
    18   107   108    2
    19    93    94    1
    20   114   115    1
    21   104   102    1
    22   101   102    1
    23    94    95    1
    24    94    96    1
    25   102   103    1
    26   117   116    2
    27    70    69    2
    28    67    68    1
    29   115   116    1
    30   115   118    1
    31   116   126   am
    32   118   119    1
    33   136   137    1
    34   136   135    1
    35    69    68    1
    36   137   131    1
    37   120   119   ar
    38   120   122   ar
    39    68    71    1
    40   119   121   ar
    41   126   127    1
    42   127   130    1
    43   127   128    1
    44   194   193    1
    45   194   195    1
    46   194   197    1
    47   122   124   ar
    48    75    74    2
    49   135   132    1
    50    72    73    1
    51   200   201    2
    52   200   199    1
    53   131   128   am
    54   131   132    1
    55   198   195   am
    56   198   199    1
    57   195   196    2
    58   128   129    2
    59   121   123   ar
    60   199   202    1
    61    76    73    1
    62    76    77    1
    63   132   133    1
    64    80    79    1
    65    74    73    1
    66   188   187    2
    67   191   190    1
    68   124   123   ar
    69   124   125    1
    70    87    86    1
    71   189   190    1
    72   189   186    1
    73    78    77    1
    74    78    79    1
    75   187   186    1
    76   202   203    1
    77   190   192    1
    78    86    85    1
    79    86    88    1
    80    85    82    1
    81   144   143    1
    82   133   138   am
    83   133   134    2
    84   186   185    1
    85    81    82    1
    86   138   139    1
    87   145   143    1
    88   180   179    2
    89    84    83    2
    90   203   205   ar
    91   203   204   ar
    92    82    83    1
    93   143   142    1
    94    65    64    1
    95   142   139    1
    96    18    17    1
    97   139   140    1
    98    66    64    1
    99   179   178    1
   100   181   178    1
   101   181   182    1
   102    64    61    1
   103    55    54    2
   104   149   148    2
   105    61    62    1
   106    61    60    1
   107   146   140   am
   108   146   147    1
   109   178   177    1
   110    62    63    2
   111   140   141    2
   112   183   182    2
   113   182   184   am
   114    17    19    1
   115    17    16    1
   116    54    60   am
   117    54    53    1
   118   148   147    1
   119   148   150   am
   120     1     2    1
   121    16    13    1
   122     4     3    2
   123   177   170   am
   124    40    39    2
   125    52    53    1
   126    52    50   am
   127    41    42    1
   128    41    38    1
   129   150   151    1
   130   151   152    1
   131   151   154    1
   132   171   170    2
   133    53    56    1
   134    42    43   ar
   135    42    44   ar
   136    43    45   ar
   137   156   154    1
   138     3     2    1
   139   170   169    1
   140    39    48   am
   141    39    38    1
   142    49    50    1
   143    49    48    1
   144    44    46   ar
   145     2     5    1
   146    45    47   ar
   147     6     5    1
   148     6     7    1
   149   152   153    2
   150    10     9    1
   151    56    57    1
   152    46    47   ar
   153    50    51    2
   154    13    12    1
   155    13    14    1
   156   154   155    1
   157    38    37    1
   158     7     8    1
   159    14    15    2
   160    14    20   am
   161     9     8    2
   162     9    11    1
   163   169   168    1
   164   169   172    1
   165    20    21    1
   166    57    58    2
   167    57    59   am
   168    23    22    2
   169    21    22    1
   170   172   173    1
   171    22    24   am
   172   173   174    1
   173    34    35    1
   174    34    33    1
   175    27    26    2
   176    35    36    2
   177    33    26   am
   178    26    25    1
   179   176   174   ar
   180    24    25    1
   181   157   158    1
   182   174   175   ar
   183    25    28    1
   184   161   158    1
   185   161   162    1
   186   163   162    1
   187   163   164    1
   188   159   158    1
   189   159   160    2
   190   167   165    1
   191   164   165    2
   192    28    29    1
   193   165   166    1
   194    29    30    1
   195    30    31    1
   196    31    32    1
