@<TRIPOS>MOLECULE
tmp/2x6eA00.pdb
 221 212 0 0 0
SMALL
GASTEIGER

@<TRIPOS>ATOM
      1  N          6.4950   28.4780   -3.8060 N.3    12  ARG12      -0.1245
      2  CA         5.7160   28.2810   -2.5970 C.3    12  ARG12       0.1563
      3  C          4.3300   27.7540   -2.9090 C.2    12  ARG12       0.2260
      4  O          3.8840   27.8070   -4.0530 O.2    12  ARG12      -0.2867
      5  CB         5.6320   29.5800   -1.7810 C.3    12  ARG12       0.0307
      6  CG         5.1380   30.7990   -2.5430 C.3    12  ARG12       0.0489
      7  CD         4.9750   31.9970   -1.6070 C.3    12  ARG12       0.2205
      8  NE         3.6740   32.0320   -0.9380 N.pl3  12  ARG12      -0.0865
      9  CZ         2.7280   32.9370   -1.1870 C.cat  12  ARG12       0.5346
     10  NH1        2.9400   33.8950   -2.0910 N.pl3  12  ARG12       0.1354
     11  NH2        1.5710   32.8830   -0.5280 N.pl3  12  ARG12       0.1354
     12  N          0.5990   28.3000   -2.8030 N.3    14  LEU14      -0.1231
     13  CA        -0.3180   29.4120   -2.6690 C.3    14  LEU14       0.1693
     14  C         -1.4530   29.0590   -1.7070 C.2    14  LEU14       0.2593
     15  O         -1.8710   29.8730   -0.8730 O.2    14  LEU14      -0.2718
     16  CB        -0.8700   29.8160   -4.0360 C.3    14  LEU14       0.0284
     17  CG         0.0770   30.4130   -5.0830 C.3    14  LEU14       0.0019
     18  CD1        1.2870   31.0390   -4.4150 C.3    14  LEU14       0.0001
     19  CD2        0.4970   29.3610   -6.0760 C.3    14  LEU14       0.0001
     20  N         -1.9480   27.8350   -1.8240 N.am   15  GLY15      -0.1942
     21  CA        -3.0030   27.3820   -0.9470 C.3    15  GLY15       0.2014
     22  C         -2.9790   25.8800   -0.7740 C.2    15  GLY15       0.2639
     23  O         -2.2390   25.1850   -1.4680 O.2    15  GLY15      -0.2714
     24  N         -3.7780   25.3860    0.1670 N.am   16  LYS16      -0.1963
     25  CA        -3.9690   23.9550    0.3490 C.3    16  LYS16       0.1728
     26  C         -5.4620   23.6840    0.4600 C.2    16  LYS16       0.2616
     27  O         -6.1550   24.2780    1.2890 O.2    16  LYS16      -0.2715
     28  CB        -3.2240   23.4370    1.5880 C.3    16  LYS16       0.0311
     29  CG        -3.8210   23.8920    2.9220 C.3    16  LYS16       0.0038
     30  CD        -3.2800   23.1060    4.1300 C.3    16  LYS16       0.0206
     31  CE        -3.9820   23.5430    5.4330 C.3    16  LYS16       0.1093
     32  NZ        -3.4090   22.9730    6.6950 N.3    16  LYS16      -0.1314
     33  N         -5.9540   22.8000   -0.3990 N.am   17  GLY17      -0.1955
     34  CA        -7.3670   22.4800   -0.4430 C.3    17  GLY17       0.1869
     35  C         -7.6300   21.0920    0.0940 C.2    17  GLY17       0.2309
     36  O         -6.7090   20.3730    0.4950 O.2    17  GLY17      -0.2863
     37  N         -8.7620   18.5730   -1.6040 N.3    19  PHE19      -0.1227
     38  CA        -8.4160   17.5690   -2.5960 C.3    19  PHE19       0.1736
     39  C         -6.9640   17.6310   -2.9840 C.2    19  PHE19       0.2596
     40  O         -6.4640   16.7740   -3.7120 O.2    19  PHE19      -0.2718
     41  CB        -9.2780   17.7740   -3.8260 C.3    19  PHE19       0.0547
     42  CG       -10.7330   17.6830   -3.5410 C.ar   19  PHE19      -0.0202
     43  CD1      -11.3340   16.4450   -3.4000 C.ar   19  PHE19      -0.0042
     44  CD2      -11.5000   18.8290   -3.3900 C.ar   19  PHE19      -0.0042
     45  CE1      -12.6740   16.3390   -3.1310 C.ar   19  PHE19      -0.0003
     46  CE2      -12.8470   18.7340   -3.1200 C.ar   19  PHE19      -0.0003
     47  CZ       -13.4370   17.4840   -2.9910 C.ar   19  PHE19      -0.0000
     48  N         -6.2900   18.6550   -2.4930 N.am   20  GLY20      -0.1942
     49  CA        -4.9020   18.8540   -2.8240 C.3    20  GLY20       0.2014
     50  C         -4.4830   20.2590   -2.4770 C.2    20  GLY20       0.2639
     51  O         -4.7170   20.7380   -1.3640 O.2    20  GLY20      -0.2714
     52  N         -3.8550   20.9240   -3.4360 N.am   21  ASN21      -0.1958
     53  CA        -3.3330   22.2540   -3.1880 C.3    21  ASN21       0.1819
     54  C         -2.6180   22.8700   -4.3840 C.2    21  ASN21       0.2621
     55  O         -2.3310   22.2010   -5.3710 O.2    21  ASN21      -0.2715
     56  CB        -2.4440   22.2690   -1.9320 C.3    21  ASN21       0.1195
     57  CG        -1.5400   21.0500   -1.8260 C.2    21  ASN21       0.2630
     58  OD1       -1.7660   20.0230   -2.4640 O.2    21  ASN21      -0.2716
     59  ND2       -0.5070   21.1630   -1.0080 N.am   21  ASN21      -0.0877
     60  N         -2.3370   24.1590   -4.2770 N.am   22  VAL22      -0.1977
     61  CA        -1.7690   24.9020   -5.3810 C.3    22  VAL22       0.1596
     62  C         -0.4140   25.5240   -5.0570 C.2    22  VAL22       0.2287
     63  O         -0.2720   26.2800   -4.0870 O.2    22  VAL22      -0.2864
     64  CB        -2.7230   25.9970   -5.8200 C.3    22  VAL22       0.0276
     65  CG1       -1.9770   27.0520   -6.6010 C.3    22  VAL22       0.0022
     66  CG2       -3.8460   25.3980   -6.6350 C.3    22  VAL22       0.0022
     67  N          0.3260   29.3390  -11.6520 N.3    35  ALA35      -0.1245
     68  CA        -0.0350   28.4810  -10.5400 C.3    35  ALA35       0.1562
     69  C         -0.3440   27.0840  -11.0590 C.2    35  ALA35       0.2260
     70  O         -0.6900   26.9040  -12.2280 O.2    35  ALA35      -0.2867
     71  CB        -1.2110   29.0450   -9.8130 C.3    35  ALA35       0.0290
     72  N         -2.3760   23.6380   -9.9430 N.3    37  LYS37      -0.1231
     73  CA        -3.2830   22.8780   -9.0970 C.3    37  LYS37       0.1693
     74  C         -2.8240   21.4250   -9.0440 C.2    37  LYS37       0.2592
     75  O         -2.6260   20.7750  -10.0730 O.2    37  LYS37      -0.2718
     76  CB        -4.7140   22.9790   -9.6420 C.3    37  LYS37       0.0285
     77  CG        -5.8140   23.2490   -8.6140 C.3    37  LYS37       0.0035
     78  CD        -7.0420   23.8700   -9.3000 C.3    37  LYS37       0.0206
     79  CE        -8.0530   24.4510   -8.3010 C.3    37  LYS37       0.1093
     80  NZ        -8.9260   25.5320   -8.8820 N.3    37  LYS37      -0.1314
     81  N         -2.6360   20.9260   -7.8330 N.am   38  VAL38      -0.1966
     82  CA        -2.2730   19.5360   -7.6470 C.3    38  VAL38       0.1727
     83  C         -3.3570   18.8040   -6.8820 C.2    38  VAL38       0.2616
     84  O         -3.8310   19.2780   -5.8480 O.2    38  VAL38      -0.2715
     85  CB        -0.9700   19.3940   -6.8740 C.3    38  VAL38       0.0290
     86  CG1       -0.7800   17.9490   -6.4540 C.3    38  VAL38       0.0023
     87  CG2        0.1870   19.8780   -7.7120 C.3    38  VAL38       0.0023
     88  N         -3.7460   17.6430   -7.3950 N.am   39  LEU39      -0.1977
     89  CA        -4.8210   16.8710   -6.7890 C.3    39  LEU39       0.1596
     90  C         -4.5460   15.3880   -6.8930 C.2    39  LEU39       0.2287
     91  O         -3.8220   14.9490   -7.7780 O.2    39  LEU39      -0.2864
     92  CB        -6.1490   17.1910   -7.4620 C.3    39  LEU39       0.0297
     93  CG        -6.3600   18.6720   -7.7470 C.3    39  LEU39       0.0022
     94  CD1       -5.7660   19.0200   -9.1010 C.3    39  LEU39       0.0001
     95  CD2       -7.8320   18.9860   -7.7070 C.3    39  LEU39       0.0001
     96  N        -10.0040   33.2750  -15.2610 N.3    69  LEU69      -0.1245
     97  CA        -8.6700   32.7370  -15.0580 C.3    69  LEU69       0.1561
     98  C         -8.3740   31.6800  -16.0890 C.2    69  LEU69       0.2260
     99  O         -9.0140   30.6290  -16.1210 O.2    69  LEU69      -0.2867
    100  CB        -8.5460   32.1240  -13.6730 C.3    69  LEU69       0.0270
    101  CG        -7.1200   32.0920  -13.1570 C.3    69  LEU69       0.0019
    102  CD1       -6.8210   33.4150  -12.4740 C.3    69  LEU69       0.0001
    103  CD2       -6.9560   30.9180  -12.2130 C.3    69  LEU69       0.0001
    104  N         -2.4830   26.4970  -14.4560 N.3    85  LEU85      -0.1231
    105  CA        -3.3550   27.6540  -14.3700 C.3    85  LEU85       0.1693
    106  C         -2.6470   28.9730  -14.5110 C.2    85  LEU85       0.2592
    107  O         -1.4380   29.0670  -14.3540 O.2    85  LEU85      -0.2718
    108  CB        -4.1160   27.6310  -13.0510 C.3    85  LEU85       0.0284
    109  CG        -5.1410   26.5040  -13.0560 C.3    85  LEU85       0.0019
    110  CD1       -5.5030   26.0840  -11.6490 C.3    85  LEU85       0.0001
    111  CD2       -6.3670   26.9320  -13.8510 C.3    85  LEU85       0.0001
    112  N         -3.4370   29.9920  -14.8170 N.am   86  GLU86      -0.1966
    113  CA        -2.9580   31.3520  -14.8310 C.3    86  GLU86       0.1733
    114  C         -2.5600   31.6550  -13.4100 C.2    86  GLU86       0.2616
    115  O         -2.8570   30.8940  -12.4980 O.2    86  GLU86      -0.2715
    116  CB        -4.0660   32.3000  -15.2760 C.3    86  GLU86       0.0429
    117  CG        -3.5710   33.6630  -15.6960 C.3    86  GLU86       0.1163
    118  CD        -4.6810   34.6990  -15.7710 C.2    86  GLU86       0.3649
    119  OE1       -4.4480   35.8280  -15.2800 O.co2  86  GLU86      -0.2457
    120  OE2       -5.7730   34.3880  -16.3150 O.co2  86  GLU86      -0.2457
    121  N         -1.8820   32.7670  -13.2160 N.am   87  TYR87      -0.1960
    122  CA        -1.4370   33.1300  -11.8940 C.3    87  TYR87       0.1771
    123  C         -1.8280   34.5810  -11.6200 C.2    87  TYR87       0.2619
    124  O         -1.5860   35.4680  -12.4400 O.2    87  TYR87      -0.2715
    125  CB         0.0720   32.9150  -11.7930 C.3    87  TYR87       0.0574
    126  CG         0.7010   33.5140  -10.5600 C.ar   87  TYR87      -0.0198
    127  CD1        1.2120   34.8050  -10.5810 C.ar   87  TYR87      -0.0009
    128  CD2        0.7860   32.7920   -9.3760 C.ar   87  TYR87      -0.0009
    129  CE1        1.7880   35.3600   -9.4630 C.ar   87  TYR87       0.0417
    130  CE2        1.3580   33.3390   -8.2500 C.ar   87  TYR87       0.0417
    131  CZ         1.8590   34.6260   -8.2990 C.ar   87  TYR87       0.1957
    132  OH         2.4350   35.1930   -7.1780 O.3    87  TYR87      -0.2866
    133  N         -2.4710   34.8150  -10.4810 N.am   88  ALA88      -0.1964
    134  CA        -2.8540   36.1690  -10.0960 C.3    88  ALA88       0.1713
    135  C         -2.0650   36.6150   -8.8750 C.2    88  ALA88       0.2458
    136  O         -2.2960   36.1450   -7.7700 O.2    88  ALA88      -0.2730
    137  CB        -4.3440   36.2540   -9.8390 C.3    88  ALA88       0.0333
    138  N         -1.1190   37.5310   -9.0840 N.am   89  PRO89      -0.2716
    139  CA        -0.1400   37.9560   -8.0830 C.3    89  PRO89       0.1536
    140  C         -0.7590   38.5430   -6.8250 C.2    89  PRO89       0.2598
    141  O         -0.2300   38.3390   -5.7310 O.2    89  PRO89      -0.2715
    142  CB         0.6330   39.0510   -8.8200 C.3    89  PRO89       0.0310
    143  CG        -0.3090   39.4930   -9.9110 C.3    89  PRO89       0.0237
    144  CD        -0.8900   38.2120  -10.3640 C.3    89  PRO89       0.0939
    145  N         -1.8600   39.2680   -6.9720 N.am   90  LEU90      -0.1964
    146  CA        -2.3670   40.0610   -5.8610 C.3    90  LEU90       0.1728
    147  C         -3.2220   39.2460   -4.8940 C.2    90  LEU90       0.2617
    148  O         -3.8000   39.7890   -3.9530 O.2    90  LEU90      -0.2715
    149  CB        -3.1070   41.3010   -6.3740 C.3    90  LEU90       0.0311
    150  CG        -2.2170   42.4850   -6.7790 C.3    90  LEU90       0.0022
    151  CD1       -0.9630   42.0110   -7.4790 C.3    90  LEU90       0.0001
    152  CD2       -2.9550   43.4930   -7.6470 C.3    90  LEU90       0.0001
    153  N         -3.2840   37.9380   -5.1240 N.am   91  GLY91      -0.1940
    154  CA        -4.0080   37.0360   -4.2420 C.3    91  GLY91       0.2014
    155  C         -5.5170   37.0880   -4.4120 C.2    91  GLY91       0.2639
    156  O         -6.0260   37.6890   -5.3630 O.2    91  GLY91      -0.2714
    157  N         -6.2290   36.4640   -3.4750 N.am   92  THR92      -0.1950
    158  CA        -7.6810   36.3550   -3.5300 C.3    92  THR92       0.1897
    159  C         -8.3740   37.5750   -2.9650 C.2    92  THR92       0.2313
    160  O         -7.7910   38.3190   -2.1900 O.2    92  THR92      -0.2863
    161  CB        -8.1520   35.1460   -2.7420 C.3    92  THR92       0.1794
    162  OG1       -9.3220   35.5010   -1.9990 O.3    92  THR92      -0.2208
    163  CG2       -7.0720   34.7130   -1.7730 C.3    92  THR92       0.0378
    164  N         -8.9210   37.4070    0.9660 N.3    95  ARG95      -0.1245
    165  CA        -7.8680   37.9690    1.7830 C.3    95  ARG95       0.1563
    166  C         -7.8410   39.4630    1.7690 C.2    95  ARG95       0.2260
    167  O         -7.7030   40.0920    2.8130 O.2    95  ARG95      -0.2867
    168  CB        -6.4960   37.6490    1.2380 C.3    95  ARG95       0.0307
    169  CG        -5.4330   37.6560    2.3210 C.3    95  ARG95       0.0489
    170  CD        -4.2010   36.9380    1.8210 C.3    95  ARG95       0.2205
    171  NE        -4.5730   36.0320    0.7370 N.pl3  95  ARG95      -0.0865
    172  CZ        -3.8920   34.9440    0.4090 C.cat  95  ARG95       0.5346
    173  NH1       -4.3140   34.1700   -0.5900 N.pl3  95  ARG95       0.1354
    174  NH2       -2.7930   34.6310    1.0900 N.pl3  95  ARG95       0.1354
    175  N         -8.6080   41.0860    5.1190 N.3    99  LYS99      -0.1245
    176  CA        -7.4100   41.8790    5.3560 C.3    99  LYS99       0.1561
    177  C         -7.7650   43.3140    5.7540 C.2    99  LYS99       0.2260
    178  O         -7.1520   43.8800    6.6550 O.2    99  LYS99      -0.2867
    179  CB        -6.4950   41.8780    4.1290 C.3    99  LYS99       0.0271
    180  CG        -5.2240   42.7000    4.2970 C.3    99  LYS99       0.0035
    181  CD        -4.4230   42.8290    2.9950 C.3    99  LYS99       0.0206
    182  CE        -4.1960   41.4590    2.3850 C.3    99  LYS99       0.1093
    183  NZ        -3.3590   41.5630    1.1010 N.3    99  LYS99      -0.1314
    184  N        -13.5350   33.8570   -2.1350 N.3   135  GLU135     -0.1231
    185  CA       -12.4040   32.9490   -2.1910 C.3   135  GLU135      0.1699
    186  C        -12.3530   32.2020   -3.5310 C.2   135  GLU135      0.2592
    187  O        -11.8250   31.0950   -3.6320 O.2   135  GLU135     -0.2718
    188  CB       -12.4250   31.9820   -0.9980 C.3   135  GLU135      0.0402
    189  CG       -13.8020   31.4140   -0.6400 C.3   135  GLU135      0.1161
    190  CD       -14.4500   32.0870    0.5750 C.2   135  GLU135      0.3649
    191  OE1      -14.9650   31.3610    1.4570 O.co2 135  GLU135     -0.2457
    192  OE2      -14.4500   33.3350    0.6550 O.co2 135  GLU135     -0.2457
    193  N        -12.9140   32.8160   -4.5620 N.am  136  ASN136     -0.1974
    194  CA       -12.9030   32.2370   -5.8980 C.3   136  ASN136      0.1688
    195  C        -12.7560   33.3310   -6.9200 C.2   136  ASN136      0.2292
    196  O        -12.9700   33.1350   -8.1130 O.2   136  ASN136     -0.2864
    197  CB       -14.1610   31.4200   -6.1660 C.3   136  ASN136      0.1181
    198  CG       -13.9080   29.9460   -6.0460 C.2   136  ASN136      0.2629
    199  OD1      -12.7590   29.5100   -6.0320 O.2   136  ASN136     -0.2716
    200  ND2      -14.9690   29.1660   -5.9550 N.am  136  ASN136     -0.0877
    201  N         -9.8880   36.1830   -7.8390 N.3   138  LEU138     -0.1245
    202  CA        -8.5150   36.5570   -7.5560 C.3   138  LEU138      0.1561
    203  C         -8.1890   37.9380   -8.0920 C.2   138  LEU138      0.2260
    204  O         -9.0350   38.5950   -8.6890 O.2   138  LEU138     -0.2867
    205  CB        -7.5710   35.5120   -8.1380 C.3   138  LEU138      0.0270
    206  CG        -7.8060   34.1150   -7.5540 C.3   138  LEU138      0.0019
    207  CD1       -7.5760   33.0140   -8.5810 C.3   138  LEU138      0.0001
    208  CD2       -6.9380   33.9140   -6.3190 C.3   138  LEU138      0.0001
    209  N        -12.2460   32.1310  -10.7320 N.3   148  ALA148     -0.1231
    210  CA       -11.6080   30.8270  -10.8730 C.3   148  ALA148      0.1694
    211  C        -12.4260   29.6650  -10.3300 C.2   148  ALA148      0.2592
    212  O        -13.6170   29.7980  -10.0760 O.2   148  ALA148     -0.2718
    213  CB       -10.2700   30.8490  -10.2030 C.3   148  ALA148      0.0304
    214  N        -11.7630   28.5210  -10.1670 N.am  149  ASP149     -0.1974
    215  CA       -12.3640   27.3190   -9.5770 C.3   149  ASP149      0.1709
    216  C        -13.7300   27.0050  -10.1640 C.2   149  ASP149      0.2293
    217  O        -14.7340   27.5530   -9.7380 O.2   149  ASP149     -0.2864
    218  CB       -12.4620   27.4510   -8.0500 C.3   149  ASP149      0.1436
    219  CG       -12.9380   26.1710   -7.3700 C.2   149  ASP149      0.3671
    220  OD1      -12.8780   26.1180   -6.1190 O.co2 149  ASP149     -0.2456
    221  OD2      -13.3670   25.2270   -8.0750 O.co2 149  ASP149     -0.2456
@<TRIPOS>BOND
     1   120   118   ar
     2    99    98    2
     3    98    97    1
     4   118   117    1
     5   118   119   ar
     6   117   116    1
     7   116   113    1
     8    96    97    1
     9    97   100    1
    10   113   112    1
    11   113   114    1
    12   112   106   am
    13   106   105    1
    14   106   107    2
    15   104   105    1
    16   105   108    1
    17   111   109    1
    18   100   101    1
    19   114   121   am
    20   114   115    2
    21   121   122    1
    22   101   102    1
    23   101   103    1
    24   109   108    1
    25   109   110    1
    26   124   123    2
    27    70    69    2
    28   122   125    1
    29   122   123    1
    30   125   126    1
    31    67    68    1
    32   123   133   am
    33    69    68    1
    34   210   209    1
    35   210   211    1
    36   210   213    1
    37   127   126   ar
    38   127   129   ar
    39   126   128   ar
    40    68    71    1
    41   133   134    1
    42   144   143    1
    43   144   138    1
    44   211   214   am
    45   211   212    2
    46   214   215    1
    47   216   217    2
    48   216   215    1
    49   134   137    1
    50   134   135    1
    51    75    74    2
    52    72    73    1
    53   143   142    1
    54    76    73    1
    55    76    77    1
    56   215   218    1
    57   129   131   ar
    58   128   130   ar
    59    78    77    1
    60    78    79    1
    61    94    93    1
    62    73    74    1
    63   138   135   am
    64   138   139    1
    65    74    81   am
    66    80    79    1
    67   135   136    2
    68   142   139    1
    69   204   203    2
    70   207   206    1
    71   131   130   ar
    72   131   132    1
    73   205   202    1
    74   205   206    1
    75   196   195    2
    76   203   202    1
    77   139   140    1
    78   221   219   ar
    79   218   219    1
    80   201   202    1
    81    81    82    1
    82    91    90    2
    83    93    95    1
    84    93    92    1
    85    87    85    1
    86    82    83    1
    87    82    85    1
    88   152   150    1
    89   206   208    1
    90   151   150    1
    91    92    89    1
    92    88    83   am
    93    88    89    1
    94   219   220   ar
    95   145   140   am
    96   145   146    1
    97   195   194    1
    98    90    89    1
    99    83    84    2
   100    85    86    1
   101   140   141    2
   102   150   149    1
   103    66    64    1
   104    65    64    1
   105   149   146    1
   106   197   198    1
   107   197   194    1
   108    19    17    1
   109   198   199    2
   110   198   200   am
   111   194   193    1
   112   146   147    1
   113    64    61    1
   114    61    62    1
   115    61    60    1
   116    55    54    2
   117   156   155    2
   118   153   147   am
   119   153   154    1
   120    17    18    1
   121    17    16    1
   122    62    63    2
   123   147   148    2
   124   193   186   am
   125   155   154    1
   126   155   157   am
   127    54    60   am
   128    54    53    1
   129     4     3    2
   130    16    13    1
   131    41    42    1
   132    41    38    1
   133     1     2    1
   134    40    39    2
   135   187   186    2
   136    42    43   ar
   137    42    44   ar
   138   186   185    1
   139   158   157    1
   140   158   159    1
   141   158   161    1
   142    52    53    1
   143    52    50   am
   144    43    45   ar
   145    44    46   ar
   146    53    56    1
   147    45    47   ar
   148    46    47   ar
   149    39    38    1
   150    39    48   am
   151   159   160    2
   152     3     2    1
   153    49    48    1
   154    49    50    1
   155    12    13    1
   156   161   162    1
   157   161   163    1
   158    13    14    1
   159     2     5    1
   160    38    37    1
   161     6     5    1
   162     6     7    1
   163    50    51    2
   164    58    57    2
   165   185   184    1
   166   185   188    1
   167    10     9    1
   168    56    57    1
   169    57    59   am
   170    20    14   am
   171    20    21    1
   172    14    15    2
   173     7     8    1
   174    23    22    2
   175     9     8    2
   176     9    11    1
   177   188   189    1
   178    21    22    1
   179    22    24   am
   180   189   190    1
   181   173   172    1
   182    34    33    1
   183    34    35    1
   184    33    26   am
   185    35    36    2
   186    24    25    1
   187    25    26    1
   188    25    28    1
   189   172   171    2
   190   172   174    1
   191    26    27    2
   192   190   192   ar
   193   190   191   ar
   194   171   170    1
   195   164   165    1
   196   183   182    1
   197   168   165    1
   198   168   169    1
   199    28    29    1
   200   166   165    1
   201   166   167    2
   202   170   169    1
   203   182   181    1
   204    29    30    1
   205   181   180    1
   206   179   180    1
   207   179   176    1
   208    30    31    1
   209   175   176    1
   210   176   177    1
   211    31    32    1
   212   177   178    2
