@<TRIPOS>MOLECULE
tmp/2x6fB00.pdb
 100 96 0 0 0
SMALL
GASTEIGER

@<TRIPOS>ATOM
      1  N         65.5890   81.9120   40.0330 N.3   266  PHE266     -0.1241
      2  CA        64.7980   80.9220   39.2830 C.3   266  PHE266      0.1605
      3  C         65.0620   80.7660   37.7820 C.2   266  PHE266      0.2264
      4  O         65.2860   81.7450   37.0630 O.2   266  PHE266     -0.2867
      5  CB        63.2980   81.1410   39.5000 C.3   266  PHE266      0.0534
      6  CG        62.7660   80.5150   40.7570 C.ar  266  PHE266     -0.0203
      7  CD1       63.3190   79.3410   41.2610 C.ar  266  PHE266     -0.0042
      8  CD2       61.6900   81.0840   41.4240 C.ar  266  PHE266     -0.0042
      9  CE1       62.8240   78.7590   42.4200 C.ar  266  PHE266     -0.0003
     10  CE2       61.1850   80.5070   42.5820 C.ar  266  PHE266     -0.0003
     11  CZ        61.7540   79.3410   43.0800 C.ar  266  PHE266     -0.0000
     12  N         58.7480   84.3770   47.3580 N.3   289  ILE289     -0.1245
     13  CA        59.2320   84.5780   46.0160 C.3   289  ILE289      0.1561
     14  C         58.8990   86.0080   45.6490 C.2   289  ILE289      0.2260
     15  O         57.7840   86.4750   45.9100 O.2   289  ILE289     -0.2867
     16  CB        58.5210   83.5980   45.0590 C.3   289  ILE289      0.0252
     17  CG1       58.7740   82.1490   45.5020 C.3   289  ILE289      0.0019
     18  CG2       58.9520   83.8260   43.6100 C.3   289  ILE289      0.0019
     19  CD1       57.6610   81.1840   45.1560 C.3   289  ILE289      0.0001
     20  N         48.9050   78.2790   48.3800 N.3   325  TYR325     -0.1241
     21  CA        49.7750   79.2710   48.9560 C.3   325  TYR325      0.1605
     22  C         49.1630   80.6450   48.7260 C.2   325  TYR325      0.2264
     23  O         48.4060   80.8360   47.7760 O.2   325  TYR325     -0.2867
     24  CB        51.1510   79.1630   48.3330 C.3   325  TYR325      0.0534
     25  CG        51.1270   79.1610   46.8310 C.ar  325  TYR325     -0.0201
     26  CD1       51.1110   77.9680   46.1090 C.ar  325  TYR325     -0.0009
     27  CD2       51.1280   80.3550   46.1240 C.ar  325  TYR325     -0.0009
     28  CE1       51.0920   77.9730   44.7260 C.ar  325  TYR325      0.0417
     29  CE2       51.1100   80.3650   44.7460 C.ar  325  TYR325      0.0417
     30  CZ        51.0880   79.1750   44.0630 C.ar  325  TYR325      0.1957
     31  OH        51.0690   79.2030   42.7050 O.3   325  TYR325     -0.2866
     32  N         54.9550   85.6070   46.1980 N.3   337  LEU337     -0.1231
     33  CA        54.2360   84.3490   46.3120 C.3   337  LEU337      0.1693
     34  C         54.8230   83.5600   47.4480 C.2   337  LEU337      0.2592
     35  O         56.0440   83.4790   47.5970 O.2   337  LEU337     -0.2718
     36  CB        54.3010   83.5260   45.0180 C.3   337  LEU337      0.0284
     37  CG        54.2400   84.1830   43.6290 C.3   337  LEU337      0.0019
     38  CD1       53.9370   83.1450   42.5580 C.3   337  LEU337      0.0001
     39  CD2       53.2270   85.3050   43.5490 C.3   337  LEU337      0.0001
     40  N         53.9460   82.9800   48.2550 N.am  338  GLN338     -0.1966
     41  CA        54.3890   82.0570   49.2700 C.3   338  GLN338      0.1733
     42  C         55.2380   80.9920   48.6070 C.2   338  GLN338      0.2616
     43  O         55.0670   80.6860   47.4280 O.2   338  GLN338     -0.2715
     44  CB        53.1960   81.4190   49.9650 C.3   338  GLN338      0.0408
     45  CG        53.5920   80.3410   50.9510 C.3   338  GLN338      0.0908
     46  CD        52.5950   80.1760   52.0620 C.2   338  GLN338      0.2608
     47  OE1       52.8790   79.5150   53.0580 O.2   338  GLN338     -0.2717
     48  NE2       51.4190   80.7810   51.9080 N.am  338  GLN338     -0.0878
     49  N         56.1740   80.4420   49.3550 N.am  339  TYR339     -0.1960
     50  CA        56.9560   79.3450   48.8380 C.3   339  TYR339      0.1771
     51  C         56.8360   78.1690   49.7870 C.2   339  TYR339      0.2619
     52  O         56.8780   78.3310   51.0040 O.2   339  TYR339     -0.2715
     53  CB        58.4080   79.7860   48.6330 C.3   339  TYR339      0.0574
     54  CG        59.4090   78.6820   48.3440 C.ar  339  TYR339     -0.0198
     55  CD1       60.3060   78.7850   47.2730 C.ar  339  TYR339     -0.0009
     56  CD2       59.4840   77.5530   49.1610 C.ar  339  TYR339     -0.0009
     57  CE1       61.2350   77.7750   47.0210 C.ar  339  TYR339      0.0417
     58  CE2       60.3990   76.5480   48.9190 C.ar  339  TYR339      0.0417
     59  CZ        61.2700   76.6540   47.8530 C.ar  339  TYR339      0.1957
     60  OH        62.1740   75.6340   47.6380 O.3   339  TYR339     -0.2866
     61  N         56.6590   76.9860   49.2110 N.am  340  VAL340     -0.1977
     62  CA        56.5830   75.7470   49.9770 C.3   340  VAL340      0.1596
     63  C         57.6680   74.8150   49.4370 C.2   340  VAL340      0.2287
     64  O         57.7980   74.6780   48.2220 O.2   340  VAL340     -0.2864
     65  CB        55.1740   75.0900   49.8630 C.3   340  VAL340      0.0276
     66  CG1       54.1300   76.0830   49.3190 C.3   340  VAL340      0.0022
     67  CG2       55.2170   73.8280   49.0180 C.3   340  VAL340      0.0022
     68  N         59.3870   72.1190   47.7800 N.3   342  SER342     -0.1217
     69  CA        58.7500   71.2590   46.8070 C.3   342  SER342      0.1889
     70  C         59.6910   71.0140   45.6370 C.2   342  SER342      0.2288
     71  O         60.5800   71.8280   45.3590 O.2   342  SER342     -0.2866
     72  CB        57.4790   71.9360   46.2920 C.3   342  SER342      0.2089
     73  OG        57.7820   73.2300   45.7880 O.3   342  SER342     -0.2183
     74  N         54.0960   70.6080   41.1420 N.3   405  LEU405     -0.1245
     75  CA        55.1770   70.3150   42.0660 C.3   405  LEU405      0.1561
     76  C         54.7710   69.2670   43.0700 C.2   405  LEU405      0.2260
     77  O         53.6020   69.1200   43.4020 O.2   405  LEU405     -0.2867
     78  CB        55.6510   71.5830   42.7980 C.3   405  LEU405      0.0270
     79  CG        56.0940   72.8970   42.1210 C.3   405  LEU405      0.0019
     80  CD1       56.6050   72.7600   40.6870 C.3   405  LEU405      0.0001
     81  CD2       54.9640   73.8830   42.1470 C.3   405  LEU405      0.0001
     82  N         50.5960   69.8940   44.0070 N.3   413  PHE413     -0.1241
     83  CA        49.9670   71.1660   43.6720 C.3   413  PHE413      0.1605
     84  C         50.4290   71.7280   42.3380 C.2   413  PHE413      0.2264
     85  O         51.4240   71.2700   41.7750 O.2   413  PHE413     -0.2867
     86  CB        50.1600   72.1980   44.8010 C.3   413  PHE413      0.0534
     87  CG        51.5960   72.4050   45.2270 C.ar  413  PHE413     -0.0203
     88  CD1       52.3120   73.5050   44.7760 C.ar  413  PHE413     -0.0042
     89  CD2       52.2130   71.5210   46.1120 C.ar  413  PHE413     -0.0042
     90  CE1       53.6200   73.7090   45.1760 C.ar  413  PHE413     -0.0003
     91  CE2       53.5200   71.7200   46.5120 C.ar  413  PHE413     -0.0003
     92  CZ        54.2260   72.8140   46.0380 C.ar  413  PHE413     -0.0000
     93  N         51.7930   75.1200   40.2460 N.3   415  ILE415     -0.1245
     94  CA        52.4970   76.3690   40.4920 C.3   415  ILE415      0.1561
     95  C         51.9420   77.5450   39.7180 C.2   415  ILE415      0.2260
     96  O         51.6690   78.5970   40.2980 O.2   415  ILE415     -0.2867
     97  CB        54.0330   76.2930   40.2000 C.3   415  ILE415      0.0252
     98  CG1       54.6320   77.7140   40.0990 C.3   415  ILE415      0.0019
     99  CG2       54.3280   75.5610   38.9050 C.3   415  ILE415      0.0019
    100  CD1       56.1110   77.6640   39.4200 C.3   415  ILE415      0.0001
@<TRIPOS>BOND
     1     4     3    2
     2     3     2    1
     3    99    97    1
     4     2     5    1
     5     2     1    1
     6   100    98    1
     7     5     6    1
     8    95    96    2
     9    95    94    1
    10    98    97    1
    11    97    94    1
    12    93    94    1
    13    80    79    1
    14     6     7   ar
    15     6     8   ar
    16    74    75    1
    17     7     9   ar
    18     8    10   ar
    19    85    84    2
    20    75    78    1
    21    75    76    1
    22    79    81    1
    23    79    78    1
    24    84    83    1
    25     9    11   ar
    26    38    37    1
    27    10    11   ar
    28    31    30    1
    29    76    77    2
    30    39    37    1
    31    18    16    1
    32    37    36    1
    33    83    82    1
    34    83    86    1
    35    30    28   ar
    36    30    29   ar
    37    28    26   ar
    38    29    27   ar
    39    88    90   ar
    40    88    87   ar
    41    86    87    1
    42    36    33    1
    43    16    17    1
    44    16    13    1
    45    19    17    1
    46    90    92   ar
    47    87    89   ar
    48    71    70    2
    49    70    69    1
    50    14    15    2
    51    14    13    1
    52    73    72    1
    53    13    12    1
    54    92    91   ar
    55    26    25   ar
    56    89    91   ar
    57    27    25   ar
    58    32    33    1
    59    72    69    1
    60    33    34    1
    61    69    68    1
    62    25    24    1
    63    57    55   ar
    64    57    59   ar
    65    55    54   ar
    66    43    42    2
    67    34    35    2
    68    34    40   am
    69    60    59    1
    70    23    22    2
    71    59    58   ar
    72    64    63    2
    73    40    41    1
    74    24    21    1
    75    54    53    1
    76    54    56   ar
    77    20    21    1
    78    42    41    1
    79    42    49   am
    80    53    50    1
    81    22    21    1
    82    50    49    1
    83    50    51    1
    84    58    56   ar
    85    67    65    1
    86    61    51   am
    87    61    62    1
    88    41    44    1
    89    66    65    1
    90    63    62    1
    91    51    52    2
    92    65    62    1
    93    44    45    1
    94    45    46    1
    95    48    46   am
    96    46    47    2
