@<TRIPOS>MOLECULE
tmp/2x6iA00.pdb
 193 183 0 0 0
SMALL
GASTEIGER

@<TRIPOS>ATOM
      1  N         19.9380   32.9260   -0.8080 N.3   271  PHE271     -0.1227
      2  CA        20.6900   34.0260   -0.2180 C.3   271  PHE271      0.1736
      3  C         22.1530   34.0780   -0.6540 C.2   271  PHE271      0.2595
      4  O         22.7250   33.0970   -1.1500 O.2   271  PHE271     -0.2718
      5  CB        20.5660   34.0500    1.3230 C.3   271  PHE271      0.0547
      6  CG        19.2130   34.5300    1.8190 C.ar  271  PHE271     -0.0202
      7  CD1       18.7300   35.7900    1.4770 C.ar  271  PHE271     -0.0042
      8  CD2       18.4200   33.7220    2.6210 C.ar  271  PHE271     -0.0042
      9  CE1       17.4820   36.2270    1.9310 C.ar  271  PHE271     -0.0003
     10  CE2       17.1730   34.1520    3.0670 C.ar  271  PHE271     -0.0003
     11  CZ        16.7080   35.4050    2.7310 C.ar  271  PHE271     -0.0000
     12  N         22.7210   35.2690   -0.4760 N.am  272  LYS272     -0.1966
     13  CA        24.1150   35.5830   -0.7620 C.3   272  LYS272      0.1728
     14  C         24.9810   34.8370    0.2550 C.2   272  LYS272      0.2616
     15  O         26.0770   34.3560   -0.0850 O.2   272  LYS272     -0.2715
     16  CB        24.3570   37.1040   -0.6560 C.3   272  LYS272      0.0311
     17  CG        23.1680   38.0590   -1.0930 C.3   272  LYS272      0.0038
     18  CD        21.9410   38.1760   -0.0810 C.3   272  LYS272      0.0206
     19  CE        22.2960   38.6900    1.3380 C.3   272  LYS272      0.1093
     20  NZ        22.7600   37.6000    2.2750 N.3   272  LYS272     -0.1314
     21  N         24.4590   34.7410    1.4890 N.am  273  SER273     -0.1950
     22  CA        25.0160   33.9130    2.5640 C.3   273  SER273      0.1924
     23  C         25.7270   32.6790    1.9980 C.2   273  SER273      0.2314
     24  O         25.2260   32.0220    1.0760 O.2   273  SER273     -0.2863
     25  CB        23.9100   33.5280    3.5700 C.3   273  SER273      0.2116
     26  OG        24.3720   32.6340    4.5910 O.3   273  SER273     -0.2180
     27  N         20.9320   29.3610    1.5890 N.3   277  PRO277     -0.2116
     28  CA        19.6160   28.9490    2.0430 C.3   277  PRO277      0.1372
     29  C         18.4800   29.4250    1.1260 C.2   277  PRO277      0.2244
     30  O         18.5730   30.4980    0.5560 O.2   277  PRO277     -0.2868
     31  CB        19.5400   29.5980    3.4230 C.3   277  PRO277      0.0268
     32  CG        20.4600   30.8170    3.3420 C.3   277  PRO277      0.0207
     33  CD        21.3400   30.6680    2.1500 C.3   277  PRO277      0.0892
     34  N         12.8210   31.1100    5.5170 N.3   294  ILE294     -0.1245
     35  CA        14.0370   30.5820    4.9730 C.3   294  ILE294      0.1561
     36  C         14.1130   29.1270    5.2550 C.2   294  ILE294      0.2260
     37  O         13.4940   28.6750    6.1990 O.2   294  ILE294     -0.2867
     38  CB        15.1660   31.2650    5.6650 C.3   294  ILE294      0.0252
     39  CG1       14.9360   32.7660    5.5940 C.3   294  ILE294      0.0019
     40  CG2       16.4730   30.9110    5.0420 C.3   294  ILE294      0.0019
     41  CD1       16.0930   33.5650    6.0980 C.3   294  ILE294      0.0001
     42  N         17.4990   26.3580    5.6410 N.3   296  LYS296     -0.1245
     43  CA        18.9440   26.3270    5.6250 C.3   296  LYS296      0.1561
     44  C         19.4910   24.9070    5.7690 C.2   296  LYS296      0.2260
     45  O         19.1960   24.2330    6.7410 O.2   296  LYS296     -0.2867
     46  CB        19.4550   27.2200    6.7460 C.3   296  LYS296      0.0271
     47  CG        20.9270   27.2730    6.8310 C.3   296  LYS296      0.0035
     48  CD        21.4160   28.6700    7.1340 C.3   296  LYS296      0.0206
     49  CE        22.9490   28.7150    6.9760 C.3   296  LYS296      0.1093
     50  NZ        23.6220   30.0030    7.3740 N.3   296  LYS296     -0.1314
     51  N         23.8780   24.2190    8.4070 N.3   299  ASP299     -0.1239
     52  CA        24.2990   24.4350    9.7850 C.3   299  ASP299      0.1674
     53  C         23.3490   23.7350   10.7200 C.2   299  ASP299      0.2266
     54  O         22.3180   23.2270   10.2880 O.2   299  ASP299     -0.2867
     55  CB        24.3080   25.9420   10.1120 C.3   299  ASP299      0.1410
     56  CG        25.5640   26.3720   10.9010 C.2   299  ASP299      0.3668
     57  OD1       26.6690   26.3720   10.3070 O.co2 299  ASP299     -0.2456
     58  OD2       25.4640   26.7140   12.1040 O.co2 299  ASP299     -0.2456
     59  N         20.8710   24.6660   13.8660 N.3   301  LEU301     -0.1245
     60  CA        20.2650   25.9000   14.3720 C.3   301  LEU301      0.1561
     61  C         19.9660   25.9640   15.8680 C.2   301  LEU301      0.2260
     62  O         19.4890   26.9940   16.3560 O.2   301  LEU301     -0.2867
     63  CB        18.9830   26.2090   13.6100 C.3   301  LEU301      0.0270
     64  CG        19.1100   26.6030   12.1390 C.3   301  LEU301      0.0019
     65  CD1       17.7310   26.9170   11.6150 C.3   301  LEU301      0.0001
     66  CD2       20.0390   27.8240   11.9750 C.3   301  LEU301      0.0001
     67  N         20.8800   28.8820   17.6380 N.3   304  ASP304     -0.1239
     68  CA        20.2290   30.1070   17.1730 C.3   304  ASP304      0.1674
     69  C         18.8660   30.1630   17.8000 C.2   304  ASP304      0.2266
     70  O         18.3780   31.2460   18.0960 O.2   304  ASP304     -0.2867
     71  CB        20.1460   30.2040   15.6450 C.3   304  ASP304      0.1410
     72  CG        21.4900   30.7010   14.9830 C.2   304  ASP304      0.3668
     73  OD1       22.4910   29.9150   14.9650 O.co2 304  ASP304     -0.2456
     74  OD2       21.5350   31.8620   14.4600 O.co2 304  ASP304     -0.2456
     75  N         12.3680   36.9420   15.5790 N.3   330  TYR330     -0.1241
     76  CA        11.8370   36.0540   14.5400 C.3   330  TYR330      0.1605
     77  C         11.8520   34.6020   14.9780 C.2   330  TYR330      0.2264
     78  O         12.6250   34.2170   15.8400 O.2   330  TYR330     -0.2867
     79  CB        12.5910   36.2370   13.2190 C.3   330  TYR330      0.0534
     80  CG        14.0860   36.0640   13.3260 C.ar  330  TYR330     -0.0201
     81  CD1       14.9110   37.1460   13.4660 C.ar  330  TYR330     -0.0009
     82  CD2       14.6650   34.8120   13.2710 C.ar  330  TYR330     -0.0009
     83  CE1       16.2670   36.9910   13.5550 C.ar  330  TYR330      0.0417
     84  CE2       16.0160   34.6470   13.3580 C.ar  330  TYR330      0.0417
     85  CZ        16.8190   35.7380   13.5010 C.ar  330  TYR330      0.1957
     86  OH        18.1950   35.5760   13.5860 O.3   330  TYR330     -0.2866
     87  N         13.6620   29.3160    9.2030 N.3   342  LEU342     -0.1231
     88  CA        13.5100   30.5590    9.9710 C.3   342  LEU342      0.1693
     89  C         12.4390   31.4220    9.3480 C.2   342  LEU342      0.2592
     90  O         12.2880   31.4480    8.1460 O.2   342  LEU342     -0.2718
     91  CB        14.8240   31.3600    9.9750 C.3   342  LEU342      0.0284
     92  CG        16.2530   30.8220    9.8470 C.3   342  LEU342      0.0019
     93  CD1       17.1330   31.7640   10.5200 C.3   342  LEU342      0.0001
     94  CD2       16.4500   29.5860   10.5610 C.3   342  LEU342      0.0001
     95  N         11.7100   32.1470   10.1690 N.am  343  GLN343     -0.1966
     96  CA        10.7150   33.0880    9.7070 C.3   343  GLN343      0.1733
     97  C         11.4980   34.1040    8.9490 C.2   343  GLN343      0.2616
     98  O         12.6270   34.3460    9.3100 O.2   343  GLN343     -0.2715
     99  CB        10.1490   33.7720   10.9330 C.3   343  GLN343      0.0408
    100  CG         8.7320   34.2980   10.8370 C.3   343  GLN343      0.0908
    101  CD         8.4210   35.1650   12.0330 C.2   343  GLN343      0.2608
    102  OE1        9.3170   35.8270   12.5630 O.2   343  GLN343     -0.2717
    103  NE2        7.1600   35.1700   12.4690 N.am  343  GLN343     -0.0878
    104  N         10.9350   34.7050    7.9100 N.am  344  TYR344     -0.1960
    105  CA        11.6570   35.7340    7.1770 C.3   344  TYR344      0.1771
    106  C         11.0390   37.0540    7.4730 C.2   344  TYR344      0.2619
    107  O          9.8420   37.1750    7.3180 O.2   344  TYR344     -0.2715
    108  CB        11.5180   35.4840    5.6940 C.3   344  TYR344      0.0574
    109  CG        12.0380   36.6190    4.8110 C.ar  344  TYR344     -0.0198
    110  CD1       13.3770   36.6640    4.4170 C.ar  344  TYR344     -0.0009
    111  CD2       11.1810   37.6190    4.3370 C.ar  344  TYR344     -0.0009
    112  CE1       13.8540   37.6690    3.6150 C.ar  344  TYR344      0.0417
    113  CE2       11.6520   38.6320    3.5210 C.ar  344  TYR344      0.0417
    114  CZ        12.9950   38.6540    3.1720 C.ar  344  TYR344      0.1957
    115  OH        13.4990   39.6590    2.3700 O.3   344  TYR344     -0.2866
    116  N         11.8210   38.0480    7.8890 N.am  345  VAL345     -0.1977
    117  CA        11.2710   39.4180    8.0680 C.3   345  VAL345      0.1596
    118  C         11.8010   40.3030    6.9760 C.2   345  VAL345      0.2287
    119  O         13.0010   40.2660    6.7060 O.2   345  VAL345     -0.2864
    120  CB        11.5590   40.0880    9.4640 C.3   345  VAL345      0.0276
    121  CG1       10.9420   39.2770   10.6060 C.3   345  VAL345      0.0022
    122  CG2       13.0260   40.2780    9.7090 C.3   345  VAL345      0.0022
    123  N         13.5430   42.9330    5.1590 N.3   347  SER347     -0.1202
    124  CA        14.5640   43.7680    5.7280 C.3   347  SER347      0.2020
    125  C         15.6360   43.8780    4.7180 C.2   347  SER347      0.2619
    126  O         15.5520   43.2830    3.6720 O.2   347  SER347     -0.2717
    127  CB        15.1490   43.0610    6.9280 C.3   347  SER347      0.2103
    128  OG        15.3010   41.6930    6.6110 O.3   347  SER347     -0.2182
    129  N         16.6810   44.6060    5.0610 N.am  348  CYS348     -0.1955
    130  CA        17.8240   44.7380    4.2070 C.3   348  CYS348      0.1843
    131  C         19.0350   44.7040    5.1160 C.2   348  CYS348      0.2626
    132  O         19.0360   45.3720    6.1300 O.2   348  CYS348     -0.2714
    133  CB        17.7460   46.0880    3.5340 C.3   348  CYS348      0.0997
    134  SG        17.8770   45.9760    1.8040 S.3   348  CYS348     -0.0797
    135  N         20.0560   43.9220    4.7750 N.am  349  THR349     -0.1950
    136  CA        21.3300   43.9300    5.5200 C.3   349  THR349      0.1897
    137  C         21.9390   45.3160    5.4670 C.2   349  THR349      0.2313
    138  O         21.8060   45.9780    4.4340 O.2   349  THR349     -0.2863
    139  CB        22.3700   42.9540    4.9340 C.3   349  THR349      0.1794
    140  OG1       23.6280   43.6370    4.7930 O.3   349  THR349     -0.2208
    141  CG2       21.9950   42.5210    3.5790 C.3   349  THR349      0.0378
    142  N         24.1350   46.3410    2.5140 N.3   352  GLU352     -0.1245
    143  CA        23.3690   46.4490    1.2660 C.3   352  GLU352      0.1567
    144  C         22.8850   47.8720    1.2140 C.2   352  GLU352      0.2260
    145  O         23.0400   48.5550    0.1940 O.2   352  GLU352     -0.2867
    146  CB        22.1420   45.5400    1.2970 C.3   352  GLU352      0.0388
    147  CG        22.4350   44.0780    1.0030 C.3   352  GLU352      0.1160
    148  CD        21.1790   43.1530    1.0400 C.2   352  GLU352      0.3649
    149  OE1       20.0280   43.6540    1.2390 O.co2 352  GLU352     -0.2457
    150  OE2       21.3570   41.9000    0.8710 O.co2 352  GLU352     -0.2457
    151  N         27.0300   42.3900    7.4170 N.3   407  ASP407     -0.1239
    152  CA        26.2640   41.3300    6.7430 C.3   407  ASP407      0.1674
    153  C         25.2560   40.7580    7.7300 C.2   407  ASP407      0.2266
    154  O         24.2270   40.2020    7.3490 O.2   407  ASP407     -0.2867
    155  CB        27.1890   40.2170    6.3100 C.3   407  ASP407      0.1410
    156  CG        28.0870   40.6180    5.1340 C.2   407  ASP407      0.3668
    157  OD1       27.5190   41.0180    4.0630 O.co2 407  ASP407     -0.2456
    158  OD2       29.3560   40.5130    5.2860 O.co2 407  ASP407     -0.2456
    159  N         20.5780   43.7860   10.3170 N.3   410  LEU410     -0.1245
    160  CA        19.8260   44.4700    9.2760 C.3   410  LEU410      0.1561
    161  C         18.9370   45.6120    9.6580 C.2   410  LEU410      0.2260
    162  O         18.3960   45.6360   10.7510 O.2   410  LEU410     -0.2867
    163  CB        18.9150   43.4210    8.6180 C.3   410  LEU410      0.0270
    164  CG        19.1530   41.9130    8.7660 C.3   410  LEU410      0.0019
    165  CD1       18.0540   41.2960    8.0060 C.3   410  LEU410      0.0001
    166  CD2       20.4740   41.3920    8.2280 C.3   410  LEU410      0.0001
    167  N         17.6720   44.7450   13.3830 N.3   418  PHE418     -0.1241
    168  CA        17.8600   43.6370   14.3030 C.3   418  PHE418      0.1605
    169  C         19.1020   42.8380   14.0240 C.2   418  PHE418      0.2264
    170  O         19.6810   43.0310   12.9600 O.2   418  PHE418     -0.2867
    171  CB        16.6740   42.7330   14.1670 C.3   418  PHE418      0.0534
    172  CG        16.3320   42.3840   12.7550 C.ar  418  PHE418     -0.0203
    173  CD1       16.6540   41.1490   12.2500 C.ar  418  PHE418     -0.0042
    174  CD2       15.6220   43.2630   11.9550 C.ar  418  PHE418     -0.0042
    175  CE1       16.3050   40.8020   10.9830 C.ar  418  PHE418     -0.0003
    176  CE2       15.2770   42.9200   10.6730 C.ar  418  PHE418     -0.0003
    177  CZ        15.6290   41.6900   10.1940 C.ar  418  PHE418     -0.0000
    178  N         21.1230   38.8680   13.4160 N.3   420  ILE420     -0.1231
    179  CA        20.9180   37.5940   12.7800 C.3   420  ILE420      0.1692
    180  C         22.1540   36.7150   12.9400 C.2   420  ILE420      0.2592
    181  O         23.2390   37.2020   13.2210 O.2   420  ILE420     -0.2718
    182  CB        20.7160   37.9400   11.3150 C.3   420  ILE420      0.0266
    183  CG1       19.2610   37.8710   10.9700 C.3   420  ILE420      0.0019
    184  CG2       21.5060   37.1000   10.3590 C.3   420  ILE420      0.0020
    185  CD1       19.0930   38.1610    9.5180 C.3   420  ILE420      0.0001
    186  N         22.0010   35.4090   12.7630 N.am  421  ASP421     -0.1974
    187  CA        23.1710   34.4980   12.6410 C.3   421  ASP421      0.1709
    188  C         24.0870   34.5670   13.8540 C.2   421  ASP421      0.2293
    189  O         25.2350   35.0400   13.7730 O.2   421  ASP421     -0.2864
    190  CB        23.9380   34.7320   11.3000 C.3   421  ASP421      0.1436
    191  CG        25.2800   33.9650   11.2080 C.2   421  ASP421      0.3671
    192  OD1       25.2980   32.7620   11.5540 O.co2 421  ASP421     -0.2456
    193  OD2       26.3150   34.5700   10.7900 O.co2 421  ASP421     -0.2456
@<TRIPOS>BOND
     1     4     3    2
     2    17    16    1
     3    17    18    1
     4     1     2    1
     5    13    16    1
     6    13    12    1
     7    13    14    1
     8     3    12   am
     9     3     2    1
    10     2     5    1
    11    15    14    2
    12    18    19    1
    13   145   144    2
    14    14    21   am
    15    30    29    2
    16   150   148   ar
    17   147   148    1
    18   147   146    1
    19   148   149   ar
    20    24    23    2
    21    29    28    1
    22   144   143    1
    23   143   146    1
    24   143   142    1
    25     5     6    1
    26    19    20    1
    27     7     6   ar
    28     7     9   ar
    29    21    22    1
    30    27    28    1
    31    27    33    1
    32   134   133    1
    33     6     8   ar
    34     9    11   ar
    35    23    22    1
    36    28    31    1
    37    33    32    1
    38   115   114    1
    39    22    25    1
    40     8    10   ar
    41    11    10   ar
    42   114   113   ar
    43   114   112   ar
    44    32    31    1
    45   113   111   ar
    46   133   130    1
    47    25    26    1
    48   141   139    1
    49   112   110   ar
    50   126   125    2
    51   157   156   ar
    52   130   129    1
    53   130   131    1
    54   111   109   ar
    55   110   109   ar
    56   138   137    2
    57   125   129   am
    58   125   124    1
    59   135   131   am
    60   135   136    1
    61   140   139    1
    62   109   108    1
    63   139   136    1
    64    35    36    1
    65    35    34    1
    66    35    38    1
    67    40    38    1
    68   131   132    2
    69   156   158   ar
    70   156   155    1
    71   123   124    1
    72    36    37    2
    73   137   136    1
    74    39    38    1
    75    39    41    1
    76    43    42    1
    77    43    44    1
    78    43    46    1
    79   108   105    1
    80   124   127    1
    81    44    45    2
    82   155   152    1
    83   128   127    1
    84   119   118    2
    85   152   151    1
    86   152   153    1
    87    46    47    1
    88    47    48    1
    89   118   117    1
    90    49    48    1
    91    49    50    1
    92   105   106    1
    93   105   104    1
    94   107   106    2
    95   154   153    2
    96   106   116   am
    97   116   117    1
    98   104    97   am
    99   165   164    1
   100   117   120    1
   101    90    89    2
   102   166   164    1
   103    51    52    1
   104   163   164    1
   105   163   160    1
   106    97    98    2
   107    97    96    1
   108    87    88    1
   109   160   161    1
   110   160   159    1
   111    89    88    1
   112    89    95   am
   113   120   122    1
   114   120   121    1
   115   185   183    1
   116   161   162    2
   117    96    95    1
   118    96    99    1
   119    52    55    1
   120    52    53    1
   121    92    91    1
   122    92    93    1
   123    92    94    1
   124    88    91    1
   125    55    56    1
   126   177   176   ar
   127   177   175   ar
   128    54    53    2
   129    57    56   ar
   130   184   182    1
   131   176   174   ar
   132   193   191   ar
   133   100    99    1
   134   100   101    1
   135    56    58   ar
   136   183   182    1
   137   175   173   ar
   138   191   190    1
   139   191   192   ar
   140   190   187    1
   141   182   179    1
   142    65    64    1
   143   174   172   ar
   144    66    64    1
   145   101   103   am
   146   101   102    2
   147    64    63    1
   148   173   172   ar
   149   187   186    1
   150   187   188    1
   151   172   171    1
   152   186   180   am
   153   179   180    1
   154   179   178    1
   155   180   181    2
   156   170   169    2
   157    79    80    1
   158    79    76    1
   159    82    80   ar
   160    82    84   ar
   161    80    81   ar
   162    84    85   ar
   163   167   168    1
   164    81    83   ar
   165    85    83   ar
   166    85    86    1
   167    63    60    1
   168   189   188    2
   169    59    60    1
   170   169   168    1
   171   171   168    1
   172    60    61    1
   173    74    72   ar
   174    76    77    1
   175    76    75    1
   176    73    72   ar
   177    77    78    2
   178    72    71    1
   179    71    68    1
   180    61    62    2
   181    68    67    1
   182    68    69    1
   183    69    70    2
