@<TRIPOS>MOLECULE
tmp/2x6jA00.pdb
 192 183 0 0 0
SMALL
GASTEIGER

@<TRIPOS>ATOM
      1  N         19.7020   32.5790   -1.0540 N.3   270  PHE270     -0.1227
      2  CA        20.4180   33.6600   -0.4200 C.3   270  PHE270      0.1736
      3  C         21.8580   33.8960   -0.7850 C.2   270  PHE270      0.2595
      4  O         22.5840   32.9860   -1.2140 O.2   270  PHE270     -0.2718
      5  CB        20.2690   33.6000    1.0770 C.3   270  PHE270      0.0547
      6  CG        19.0700   34.2860    1.5350 C.ar  270  PHE270     -0.0202
      7  CD1       18.6040   35.3860    0.8220 C.ar  270  PHE270     -0.0042
      8  CD2       18.3860   33.8580    2.6480 C.ar  270  PHE270     -0.0042
      9  CE1       17.4680   36.0610    1.2100 C.ar  270  PHE270     -0.0003
     10  CE2       17.2490   34.5250    3.0500 C.ar  270  PHE270     -0.0003
     11  CZ        16.7870   35.6330    2.3280 C.ar  270  PHE270     -0.0000
     12  N         22.2450   35.1570   -0.5830 N.am  271  LYS271     -0.1966
     13  CA        23.5740   35.6760   -0.9150 C.3   271  LYS271      0.1728
     14  C         24.6220   34.9640   -0.0700 C.2   271  LYS271      0.2616
     15  O         25.6860   34.5970   -0.5760 O.2   271  LYS271     -0.2715
     16  CB        23.6720   37.2030   -0.6900 C.3   271  LYS271      0.0311
     17  CG        22.3740   38.0450   -0.8540 C.3   271  LYS271      0.0038
     18  CD        21.5270   38.1400    0.4500 C.3   271  LYS271      0.0206
     19  CE        22.3460   38.5840    1.6950 C.3   271  LYS271      0.1093
     20  NZ        21.6040   38.5220    3.0110 N.3   271  LYS271     -0.1314
     21  N         24.3040   34.7660    1.2120 N.am  272  SER272     -0.1950
     22  CA        25.1500   33.9830    2.1050 C.3   272  SER272      0.1924
     23  C         25.6300   32.7160    1.4300 C.2   272  SER272      0.2314
     24  O         24.9670   32.1690    0.5370 O.2   272  SER272     -0.2863
     25  CB        24.4310   33.5960    3.4060 C.3   272  SER272      0.2116
     26  OG        25.0750   32.4710    4.0190 O.3   272  SER272     -0.2180
     27  N         20.5270   29.1510    1.4200 N.3   276  PRO276     -0.2116
     28  CA        19.2100   28.7190    1.8460 C.3   276  PRO276      0.1372
     29  C         18.1470   29.3460    0.9620 C.2   276  PRO276      0.2244
     30  O         18.3740   30.4530    0.4720 O.2   276  PRO276     -0.2868
     31  CB        19.1230   29.2990    3.2580 C.3   276  PRO276      0.0268
     32  CG        20.4620   29.9970    3.5100 C.3   276  PRO276      0.0207
     33  CD        20.9780   30.3120    2.1920 C.3   276  PRO276      0.0892
     34  N         12.5380   31.1950    5.3750 N.3   293  ILE293     -0.1245
     35  CA        13.7140   30.6260    4.7530 C.3   293  ILE293      0.1561
     36  C         13.7690   29.1610    5.0020 C.2   293  ILE293      0.2260
     37  O         13.2450   28.7180    6.0100 O.2   293  ILE293     -0.2867
     38  CB        14.9360   31.2680    5.3830 C.3   293  ILE293      0.0252
     39  CG1       14.9260   32.7590    5.0830 C.3   293  ILE293      0.0019
     40  CG2       16.2050   30.6650    4.8610 C.3   293  ILE293      0.0019
     41  CD1       15.1430   33.5960    6.2990 C.3   293  ILE293      0.0001
     42  N         17.0510   26.2890    5.4270 N.3   295  LYS295     -0.1245
     43  CA        18.5050   26.2360    5.4690 C.3   295  LYS295      0.1561
     44  C         19.1610   24.8480    5.3790 C.2   295  LYS295      0.2260
     45  O         18.9530   23.9760    6.2380 O.2   295  LYS295     -0.2867
     46  CB        19.0000   26.9550    6.6980 C.3   295  LYS295      0.0271
     47  CG        20.3640   27.4660    6.5250 C.3   295  LYS295      0.0035
     48  CD        20.6600   28.2870    7.6890 C.3   295  LYS295      0.0206
     49  CE        21.6640   29.3110    7.3310 C.3   295  LYS295      0.1093
     50  NZ        21.8460   30.1650    8.5120 N.3   295  LYS295     -0.1314
     51  N         20.6660   24.7880   14.0560 N.3   300  LEU300     -0.1245
     52  CA        20.1390   26.0930   14.4630 C.3   300  LEU300      0.1561
     53  C         19.8120   26.1830   15.9250 C.2   300  LEU300      0.2260
     54  O         19.3460   27.2210   16.3780 O.2   300  LEU300     -0.2867
     55  CB        18.8710   26.4360   13.6800 C.3   300  LEU300      0.0270
     56  CG        19.0520   26.6430   12.1790 C.3   300  LEU300      0.0019
     57  CD1       17.7690   27.1440   11.5180 C.3   300  LEU300      0.0001
     58  CD2       20.2200   27.6120   11.9150 C.3   300  LEU300      0.0001
     59  N         20.7810   29.1860   17.4320 N.3   303  ASP303     -0.1239
     60  CA        20.0790   30.3740   16.9680 C.3   303  ASP303      0.1674
     61  C         18.7560   30.4010   17.7120 C.2   303  ASP303      0.2266
     62  O         18.3250   31.4480   18.1620 O.2   303  ASP303     -0.2867
     63  CB        19.8350   30.3260   15.4510 C.3   303  ASP303      0.1410
     64  CG        20.9550   31.0350   14.6120 C.2   303  ASP303      0.3668
     65  OD1       22.1190   30.5340   14.5970 O.co2 303  ASP303     -0.2456
     66  OD2       20.6490   32.0680   13.9290 O.co2 303  ASP303     -0.2456
     67  N         12.3270   36.7860   15.5090 N.3   329  TYR329     -0.1241
     68  CA        11.7620   36.0380   14.4130 C.3   329  TYR329      0.1605
     69  C         11.7950   34.5830   14.7850 C.2   329  TYR329      0.2264
     70  O         12.6790   34.1550   15.5080 O.2   329  TYR329     -0.2867
     71  CB        12.5430   36.3110   13.1350 C.3   329  TYR329      0.0534
     72  CG        14.0410   36.1290   13.2440 C.ar  329  TYR329     -0.0201
     73  CD1       14.8730   37.2020   13.5230 C.ar  329  TYR329     -0.0009
     74  CD2       14.6210   34.8880   13.0340 C.ar  329  TYR329     -0.0009
     75  CE1       16.2480   37.0380   13.6030 C.ar  329  TYR329      0.0417
     76  CE2       15.9760   34.7110   13.1110 C.ar  329  TYR329      0.0417
     77  CZ        16.7970   35.7850   13.3940 C.ar  329  TYR329      0.1957
     78  OH        18.1720   35.5940   13.4610 O.3   329  TYR329     -0.2866
     79  N         13.4980   29.3700    9.1520 N.3   341  LEU341     -0.1231
     80  CA        13.5110   30.6170    9.9050 C.3   341  LEU341      0.1693
     81  C         12.4610   31.5110    9.3150 C.2   341  LEU341      0.2592
     82  O         12.3120   31.5670    8.1070 O.2   341  LEU341     -0.2718
     83  CB        14.8520   31.3250    9.7150 C.3   341  LEU341      0.0284
     84  CG        16.1540   30.7090   10.1900 C.3   341  LEU341      0.0019
     85  CD1       17.1360   30.6950    9.0720 C.3   341  LEU341      0.0001
     86  CD2       16.6790   31.4950   11.3430 C.3   341  LEU341      0.0001
     87  N         11.7560   32.2410   10.1600 N.am  342  GLN342     -0.1966
     88  CA        10.8080   33.2300    9.6950 C.3   342  GLN342      0.1733
     89  C         11.5400   34.2380    8.8410 C.2   342  GLN342      0.2616
     90  O         12.6830   34.5540    9.0920 O.2   342  GLN342     -0.2715
     91  CB        10.2030   33.9360   10.8940 C.3   342  GLN342      0.0408
     92  CG         8.8110   34.4820   10.6750 C.3   342  GLN342      0.0908
     93  CD         8.3240   35.2540   11.8820 C.2   342  GLN342      0.2608
     94  OE1        9.0970   35.9680   12.5300 O.2   342  GLN342     -0.2717
     95  NE2        7.0360   35.1140   12.1960 N.am  342  GLN342     -0.0878
     96  N         10.8910   34.7490    7.8200 N.am  343  TYR343     -0.1960
     97  CA        11.5310   35.7480    6.9980 C.3   343  TYR343      0.1771
     98  C         11.0070   37.1140    7.3820 C.2   343  TYR343      0.2619
     99  O          9.7950   37.3020    7.4910 O.2   343  TYR343     -0.2715
    100  CB        11.2440   35.4570    5.5320 C.3   343  TYR343      0.0574
    101  CG        11.7290   36.5100    4.5700 C.ar  343  TYR343     -0.0198
    102  CD1       13.0840   36.6890    4.3350 C.ar  343  TYR343     -0.0009
    103  CD2       10.8240   37.3090    3.8720 C.ar  343  TYR343     -0.0009
    104  CE1       13.5350   37.6550    3.4430 C.ar  343  TYR343      0.0417
    105  CE2       11.2600   38.2820    2.9760 C.ar  343  TYR343      0.0417
    106  CZ        12.6240   38.4550    2.7680 C.ar  343  TYR343      0.1957
    107  OH        13.0880   39.4180    1.8900 O.3   343  TYR343     -0.2866
    108  N         11.9070   38.0620    7.6140 N.am  344  VAL344     -0.1977
    109  CA        11.5010   39.4540    7.8090 C.3   344  VAL344      0.1596
    110  C         11.9370   40.2270    6.5830 C.2   344  VAL344      0.2287
    111  O         13.0700   40.0830    6.1410 O.2   344  VAL344     -0.2864
    112  CB        12.1320   40.0800    9.0690 C.3   344  VAL344      0.0276
    113  CG1       11.3080   39.7940   10.3080 C.3   344  VAL344      0.0022
    114  CG2       13.4750   39.5270    9.2830 C.3   344  VAL344      0.0022
    115  N         13.6040   42.9300    4.8360 N.3   346  SER346     -0.1202
    116  CA        14.5680   43.8680    5.3390 C.3   346  SER346      0.2020
    117  C         15.5820   44.0440    4.2660 C.2   346  SER346      0.2619
    118  O         15.5780   43.3220    3.2860 O.2   346  SER346     -0.2717
    119  CB        15.2350   43.2990    6.5870 C.3   346  SER346      0.2103
    120  OG        15.6820   41.9810    6.3340 O.3   346  SER346     -0.2182
    121  N         16.4450   45.0200    4.4420 N.am  347  CYS347     -0.1955
    122  CA        17.5960   45.1460    3.6030 C.3   347  CYS347      0.1843
    123  C         18.7880   45.0260    4.5430 C.2   347  CYS347      0.2626
    124  O         18.7580   45.5720    5.6420 O.2   347  CYS347     -0.2714
    125  CB        17.5700   46.5040    2.9190 C.3   347  CYS347      0.0997
    126  SG        17.8100   46.3930    1.1470 S.3   347  CYS347     -0.0797
    127  N         19.8230   44.2890    4.1460 N.am  348  THR348     -0.1950
    128  CA        21.0520   44.1930    4.9530 C.3   348  THR348      0.1897
    129  C         21.6790   45.5700    5.0630 C.2   348  THR348      0.2313
    130  O         21.6530   46.3020    4.0780 O.2   348  THR348     -0.2863
    131  CB        22.0680   43.2240    4.3070 C.3   348  THR348      0.1794
    132  OG1       22.8020   42.5490    5.3180 O.3   348  THR348     -0.2208
    133  CG2       23.0720   43.9200    3.4700 C.3   348  THR348      0.0378
    134  N         23.8230   46.4120    2.3560 N.3   351  GLU351     -0.1245
    135  CA        23.0860   46.5780    1.0960 C.3   351  GLU351      0.1567
    136  C         22.6170   47.9990    1.0780 C.2   351  GLU351      0.2260
    137  O         22.5810   48.6220    0.0170 O.2   351  GLU351     -0.2867
    138  CB        21.8210   45.7310    1.0470 C.3   351  GLU351      0.0388
    139  CG        21.9750   44.2660    0.6400 C.3   351  GLU351      0.1160
    140  CD        20.6180   43.5410    0.6390 C.2   351  GLU351      0.3649
    141  OE1       19.7330   44.0010   -0.1250 O.co2 351  GLU351     -0.2457
    142  OE2       20.4280   42.5370    1.3920 O.co2 351  GLU351     -0.2457
    143  N         28.5230   41.9960   11.9540 N.3   404  HIS404     -0.1241
    144  CA        28.9320   42.9420   10.9020 C.3   404  HIS404      0.1621
    145  C         27.7720   43.4330   10.0470 C.2   404  HIS404      0.2264
    146  O         26.6320   43.0640   10.2740 O.2   404  HIS404     -0.2867
    147  CB        30.0360   42.3890   10.0170 C.3   404  HIS404      0.0745
    148  CG        29.8900   40.9380    9.7030 C.ar  404  HIS404      0.0817
    149  ND1       30.6360   39.9650   10.3360 N.ar  404  HIS404     -0.2268
    150  CD2       29.1030   40.2930    8.8120 C.ar  404  HIS404      0.1154
    151  CE1       30.3130   38.7820    9.8500 C.ar  404  HIS404      0.1986
    152  NE2       29.3860   38.9530    8.9230 N.ar  404  HIS404     -0.2212
    153  N         26.7460   42.6570    7.1990 N.3   406  ASP406     -0.1225
    154  CA        26.0280   41.5250    6.5850 C.3   406  ASP406      0.1805
    155  C         25.1040   40.9670    7.6600 C.2   406  ASP406      0.2597
    156  O         24.0420   40.4350    7.3700 O.2   406  ASP406     -0.2718
    157  CB        26.9820   40.4120    6.1600 C.3   406  ASP406      0.1424
    158  CG        27.8590   40.8020    4.9740 C.2   406  ASP406      0.3668
    159  OD1       27.3210   40.9960    3.8490 O.co2 406  ASP406     -0.2456
    160  OD2       29.1000   40.8990    5.1680 O.co2 406  ASP406     -0.2456
    161  N         25.5410   41.0880    8.9080 N.am  407  ASN407     -0.1974
    162  CA        24.8790   40.5070   10.0630 C.3   407  ASN407      0.1688
    163  C         23.7200   41.3300   10.5480 C.2   407  ASN407      0.2292
    164  O         22.7710   40.7660   11.0700 O.2   407  ASN407     -0.2864
    165  CB        25.8390   40.4840   11.2280 C.3   407  ASN407      0.1181
    166  CG        26.3520   39.1320   11.5210 C.2   407  ASN407      0.2629
    167  OD1       26.4470   38.2800   10.6320 O.2   407  ASN407     -0.2716
    168  ND2       26.7110   38.9070   12.7810 N.am  407  ASN407     -0.0877
    169  N         20.5230   43.8880   10.0670 N.3   409  LEU409     -0.1245
    170  CA        19.7250   44.3980    8.9660 C.3   409  LEU409      0.1561
    171  C         18.9000   45.5980    9.2830 C.2   409  LEU409      0.2260
    172  O         18.5950   45.8210   10.4510 O.2   409  LEU409     -0.2867
    173  CB        18.7840   43.2760    8.5100 C.3   409  LEU409      0.0270
    174  CG        19.2900   41.8160    8.5670 C.3   409  LEU409      0.0019
    175  CD1       18.3040   40.9240    7.8600 C.3   409  LEU409      0.0001
    176  CD2       20.6700   41.5910    7.9420 C.3   409  LEU409      0.0001
    177  N         21.0570   38.9190   13.3720 N.3   419  ILE419     -0.1231
    178  CA        20.8770   37.6510   12.7120 C.3   419  ILE419      0.1692
    179  C         22.1050   36.7680   12.8970 C.2   419  ILE419      0.2592
    180  O         23.1840   37.2500   13.2360 O.2   419  ILE419     -0.2718
    181  CB        20.7260   37.9790   11.2180 C.3   419  ILE419      0.0266
    182  CG1       19.2810   38.0490   10.8300 C.3   419  ILE419      0.0019
    183  CG2       21.4390   37.0200   10.2900 C.3   419  ILE419      0.0020
    184  CD1       19.1870   38.3370    9.3880 C.3   419  ILE419      0.0001
    185  N         21.9430   35.4670   12.6630 N.am  420  ASP420     -0.1974
    186  CA        23.0770   34.5460   12.5980 C.3   420  ASP420      0.1709
    187  C         23.8650   34.5510   13.9060 C.2   420  ASP420      0.2293
    188  O         25.0250   34.9940   13.9570 O.2   420  ASP420     -0.2864
    189  CB        23.9820   34.9270   11.4160 C.3   420  ASP420      0.1436
    190  CG        25.3560   34.2840   11.4980 C.2   420  ASP420      0.3671
    191  OD1       25.4160   33.0540   11.7540 O.co2 420  ASP420     -0.2456
    192  OD2       26.3730   35.0110   11.3210 O.co2 420  ASP420     -0.2456
@<TRIPOS>BOND
     1     4     3    2
     2     1     2    1
     3    13    16    1
     4    13    12    1
     5    13    14    1
     6    17    16    1
     7    17    18    1
     8     3    12   am
     9     3     2    1
    10    15    14    2
    11     2     5    1
    12   141   140   ar
    13    14    21   am
    14   137   136    2
    15    18    19    1
    16    30    29    2
    17    24    23    2
    18   140   139    1
    19   140   142   ar
    20   139   138    1
    21     7     9   ar
    22     7     6   ar
    23    29    28    1
    24   138   135    1
    25     5     6    1
    26   136   135    1
    27   135   134    1
    28   126   125    1
    29     9    11   ar
    30    21    22    1
    31    27    28    1
    32    27    33    1
    33    23    22    1
    34     6     8   ar
    35    19    20    1
    36    28    31    1
    37   107   106    1
    38    22    25    1
    39    33    32    1
    40    11    10   ar
    41     8    10   ar
    42   106   105   ar
    43   106   104   ar
    44   125   122    1
    45   105   103   ar
    46    31    32    1
    47   118   117    2
    48    25    26    1
    49   104   102   ar
    50   133   131    1
    51   122   121    1
    52   122   123    1
    53   159   158   ar
    54   103   101   ar
    55   130   129    2
    56   127   123   am
    57   127   128    1
    58   117   121   am
    59   117   116    1
    60   131   128    1
    61   131   132    1
    62   102   101   ar
    63   123   124    2
    64   101   100    1
    65    35    36    1
    66    35    34    1
    67    35    38    1
    68   115   116    1
    69    40    38    1
    70   128   129    1
    71   158   160   ar
    72   158   157    1
    73    36    37    2
    74    39    38    1
    75    39    41    1
    76   116   119    1
    77    44    43    1
    78    44    45    2
    79    42    43    1
    80    43    46    1
    81   100    97    1
    82   111   110    2
    83   157   154    1
    84   120   119    1
    85    47    46    1
    86    47    48    1
    87   110   109    1
    88   154   153    1
    89   154   155    1
    90    97    98    1
    91    97    96    1
    92    49    48    1
    93    49    50    1
    94   156   155    2
    95    98    99    2
    96    98   108   am
    97   108   109    1
    98   155   161   am
    99   109   112    1
   100    96    89   am
   101   175   174    1
   102   176   174    1
   103    82    81    2
   104   173   174    1
   105   173   170    1
   106   150   152   ar
   107   150   148   ar
   108    89    90    2
   109    89    88    1
   110   161   162    1
   111   152   151   ar
   112   170   171    1
   113   170   169    1
   114   112   114    1
   115   112   113    1
   116    85    84    1
   117    79    80    1
   118   171   172    2
   119    81    80    1
   120    81    87   am
   121   184   182    1
   122    88    87    1
   123    88    91    1
   124   148   147    1
   125   148   149   ar
   126    83    80    1
   127    83    84    1
   128   151   149   ar
   129   147   144    1
   130   145   146    2
   131   145   144    1
   132   162   163    1
   133   162   165    1
   134    84    86    1
   135   183   181    1
   136   163   164    2
   137   167   166    2
   138    92    91    1
   139    92    93    1
   140   182   181    1
   141   144   143    1
   142   181   178    1
   143   165   166    1
   144   192   190   ar
   145   189   190    1
   146   189   186    1
   147   190   191   ar
   148    57    56    1
   149   166   168   am
   150    93    95   am
   151    93    94    2
   152    58    56    1
   153    56    55    1
   154   186   185    1
   155   186   187    1
   156   185   179   am
   157   178   179    1
   158   178   177    1
   159   179   180    2
   160    74    76   ar
   161    74    72   ar
   162    76    77   ar
   163    71    72    1
   164    71    68    1
   165    72    73   ar
   166    77    78    1
   167    77    75   ar
   168    73    75   ar
   169    55    52    1
   170   187   188    2
   171    66    64   ar
   172    51    52    1
   173    68    69    1
   174    68    67    1
   175    52    53    1
   176    65    64   ar
   177    64    63    1
   178    69    70    2
   179    63    60    1
   180    53    54    2
   181    60    59    1
   182    60    61    1
   183    61    62    2
