@<TRIPOS>MOLECULE
tmp/2x6kB00.pdb
 170 161 0 0 0
SMALL
GASTEIGER

@<TRIPOS>ATOM
      1  N         64.6090   81.6090   40.4650 N.3   274  PHE274     -0.1227
      2  CA        63.8360   80.6030   39.7340 C.3   274  PHE274      0.1736
      3  C         64.1620   80.4570   38.2510 C.2   274  PHE274      0.2595
      4  O         64.5220   81.4250   37.5760 O.2   274  PHE274     -0.2718
      5  CB        62.3300   80.8230   39.9100 C.3   274  PHE274      0.0547
      6  CG        61.7820   80.2910   41.2010 C.ar  274  PHE274     -0.0202
      7  CD1       62.2440   79.0880   41.7290 C.ar  274  PHE274     -0.0042
      8  CD2       60.7850   80.9760   41.8780 C.ar  274  PHE274     -0.0042
      9  CE1       61.7360   78.5900   42.9190 C.ar  274  PHE274     -0.0003
     10  CE2       60.2700   80.4830   43.0680 C.ar  274  PHE274     -0.0003
     11  CZ        60.7460   79.2870   43.5890 C.ar  274  PHE274     -0.0000
     12  N         63.9880   79.2270   37.7660 N.am  275  LYS275     -0.1966
     13  CA        64.3240   78.8210   36.3980 C.3   275  LYS275      0.1728
     14  C         63.5270   79.5280   35.2940 C.2   275  LYS275      0.2616
     15  O         64.0620   79.7280   34.1980 O.2   275  LYS275     -0.2715
     16  CB        64.1770   77.3000   36.2420 C.3   275  LYS275      0.0311
     17  CG        62.7260   76.8110   36.3050 C.3   275  LYS275      0.0038
     18  CD        62.6260   75.3020   36.5160 C.3   275  LYS275      0.0206
     19  CE        62.1080   74.6000   35.2570 C.3   275  LYS275      0.1093
     20  NZ        61.5490   73.2700   35.6130 N.3   275  LYS275     -0.1314
     21  N         62.2610   79.8750   35.5660 N.am  276  SER276     -0.1950
     22  CA        61.3950   80.5270   34.5670 C.3   276  SER276      0.1924
     23  C         62.0330   81.8350   34.0800 C.2   276  SER276      0.2314
     24  O         62.5970   82.5900   34.8830 O.2   276  SER276     -0.2863
     25  CB        59.9780   80.7530   35.1120 C.3   276  SER276      0.2116
     26  OG        59.8520   81.9940   35.7840 O.3   276  SER276     -0.2180
     27  N         61.5800   84.8860   38.7610 N.3   280  PRO280     -0.2116
     28  CA        61.0310   85.0670   40.1000 C.3   280  PRO280      0.1372
     29  C         62.1310   84.8250   41.1330 C.2   280  PRO280      0.2244
     30  O         62.9950   83.9600   40.9240 O.2   280  PRO280     -0.2868
     31  CB        59.9380   83.9810   40.1930 C.3   280  PRO280      0.0268
     32  CG        59.9620   83.2260   38.8680 C.3   280  PRO280      0.0207
     33  CD        61.2880   83.5310   38.2440 C.3   280  PRO280      0.0892
     34  N         58.1080   84.7620   47.5490 N.3   297  ILE297     -0.1245
     35  CA        58.6300   84.9960   46.2120 C.3   297  ILE297      0.1561
     36  C         58.2540   86.3930   45.7600 C.2   297  ILE297      0.2260
     37  O         57.1680   86.8690   46.0620 O.2   297  ILE297     -0.2867
     38  CB        58.0740   83.9510   45.2190 C.3   297  ILE297      0.0252
     39  CG1       58.5680   82.5500   45.5890 C.3   297  ILE297      0.0019
     40  CG2       58.4590   84.2880   43.7840 C.3   297  ILE297      0.0019
     41  CD1       57.5970   81.4550   45.2610 C.3   297  ILE297      0.0001
     42  N         57.9240   88.4900   42.1530 N.3   299  LYS299     -0.1245
     43  CA        57.9090   88.4180   40.6940 C.3   299  LYS299      0.1561
     44  C         57.6710   89.7990   40.0780 C.2   299  LYS299      0.2260
     45  O         56.6850   90.4600   40.3870 O.2   299  LYS299     -0.2867
     46  CB        56.8520   87.4110   40.2210 C.3   299  LYS299      0.0271
     47  CG        56.6410   87.4050   38.7170 C.3   299  LYS299      0.0035
     48  CD        55.7230   86.2870   38.2510 C.3   299  LYS299      0.0206
     49  CE        55.6240   86.3230   36.7150 C.3   299  LYS299      0.1093
     50  NZ        54.6390   85.3450   36.1610 N.3   299  LYS299     -0.1314
     51  N         49.4350   89.6520   38.5520 N.3   304  LEU304     -0.1245
     52  CA        49.0830   88.5840   39.4690 C.3   304  LEU304      0.1561
     53  C         47.5940   88.5820   39.8070 C.2   304  LEU304      0.2260
     54  O         47.1090   87.6030   40.3680 O.2   304  LEU304     -0.2867
     55  CB        49.9400   88.6450   40.7420 C.3   304  LEU304      0.0270
     56  CG        51.4170   88.2200   40.7350 C.3   304  LEU304      0.0019
     57  CD1       51.5590   86.7320   40.3890 C.3   304  LEU304      0.0001
     58  CD2       52.2860   89.0980   39.7990 C.3   304  LEU304      0.0001
     59  N         46.2690   85.3800   38.8400 N.3   307  ASP307     -0.1239
     60  CA        46.7570   84.2950   39.6940 C.3   307  ASP307      0.1674
     61  C         46.0740   84.3470   41.0520 C.2   307  ASP307      0.2266
     62  O         45.6600   83.3180   41.5730 O.2   307  ASP307     -0.2867
     63  CB        48.2870   84.3110   39.8480 C.3   307  ASP307      0.1410
     64  CG        49.0050   83.3930   38.8370 C.2   307  ASP307      0.3668
     65  OD1       48.6420   83.4080   37.6310 O.co2 307  ASP307     -0.2456
     66  OD2       49.9510   82.6650   39.2470 O.co2 307  ASP307     -0.2456
     67  N         48.2080   78.6470   48.4920 N.3   333  TYR333     -0.1241
     68  CA        49.1400   79.6460   48.9770 C.3   333  TYR333      0.1605
     69  C         48.6110   81.0550   48.7290 C.2   333  TYR333      0.2264
     70  O         47.9430   81.3010   47.7280 O.2   333  TYR333     -0.2867
     71  CB        50.4920   79.4440   48.3090 C.3   333  TYR333      0.0534
     72  CG        50.4410   79.4050   46.8030 C.ar  333  TYR333     -0.0201
     73  CD1       50.7690   78.2460   46.1030 C.ar  333  TYR333     -0.0009
     74  CD2       50.0850   80.5370   46.0770 C.ar  333  TYR333     -0.0009
     75  CE1       50.7360   78.2250   44.7100 C.ar  333  TYR333      0.0417
     76  CE2       50.0370   80.5220   44.7010 C.ar  333  TYR333      0.0417
     77  CZ        50.3630   79.3740   44.0200 C.ar  333  TYR333      0.1957
     78  OH        50.3160   79.4030   42.6470 O.3   333  TYR333     -0.2866
     79  N         54.4610   85.7750   46.1160 N.3   345  LEU345     -0.1231
     80  CA        53.7170   84.5380   46.1920 C.3   345  LEU345      0.1693
     81  C         54.2750   83.7110   47.3200 C.2   345  LEU345      0.2592
     82  O         55.4660   83.4040   47.3490 O.2   345  LEU345     -0.2718
     83  CB        53.7880   83.7760   44.8700 C.3   345  LEU345      0.0284
     84  CG        53.6760   84.5870   43.5740 C.3   345  LEU345      0.0019
     85  CD1       53.4590   83.6550   42.4200 C.3   345  LEU345      0.0001
     86  CD2       52.5480   85.6060   43.5970 C.3   345  LEU345      0.0001
     87  N         53.4180   83.3670   48.2680 N.am  346  GLN346     -0.1966
     88  CA        53.8310   82.4700   49.3080 C.3   346  GLN346      0.1733
     89  C         54.5100   81.2920   48.6490 C.2   346  GLN346      0.2616
     90  O         54.0690   80.7980   47.6210 O.2   346  GLN346     -0.2715
     91  CB        52.6440   81.9870   50.1260 C.3   346  GLN346      0.0408
     92  CG        53.0160   80.8390   51.0490 C.3   346  GLN346      0.0908
     93  CD        51.9380   80.4830   52.0290 C.2   346  GLN346      0.2608
     94  OE1       50.7580   80.7440   51.8020 O.2   346  GLN346     -0.2717
     95  NE2       52.3350   79.8730   53.1340 N.am  346  GLN346     -0.0878
     96  N         55.6090   80.8670   49.2340 N.am  347  TYR347     -0.1960
     97  CA        56.2920   79.7010   48.7560 C.3   347  TYR347      0.1771
     98  C         56.0480   78.6030   49.7580 C.2   347  TYR347      0.2619
     99  O         56.1520   78.8060   50.9600 O.2   347  TYR347     -0.2715
    100  CB        57.7830   79.9980   48.6050 C.3   347  TYR347      0.0574
    101  CG        58.6780   78.7980   48.3790 C.ar  347  TYR347     -0.0198
    102  CD1       59.6280   78.7920   47.3500 C.ar  347  TYR347     -0.0009
    103  CD2       58.6030   77.6870   49.2090 C.ar  347  TYR347     -0.0009
    104  CE1       60.4690   77.6940   47.1540 C.ar  347  TYR347      0.0417
    105  CE2       59.4240   76.5960   49.0230 C.ar  347  TYR347      0.0417
    106  CZ        60.3550   76.5950   47.9960 C.ar  347  TYR347      0.1957
    107  OH        61.1720   75.4950   47.8210 O.3   347  TYR347     -0.2866
    108  N         55.7020   77.4390   49.2420 N.am  348  VAL348     -0.1977
    109  CA        55.6110   76.2330   50.0370 C.3   348  VAL348      0.1596
    110  C         56.5870   75.2300   49.4280 C.2   348  VAL348      0.2287
    111  O         56.6390   75.0920   48.2050 O.2   348  VAL348     -0.2864
    112  CB        54.1640   75.6910   50.0560 C.3   348  VAL348      0.0276
    113  CG1       53.3900   76.1670   48.8330 C.3   348  VAL348      0.0022
    114  CG2       54.1490   74.1620   50.1340 C.3   348  VAL348      0.0022
    115  N         58.4030   72.5260   47.6440 N.3   350  SER350     -0.1217
    116  CA        57.8780   71.7130   46.5750 C.3   350  SER350      0.1889
    117  C         58.9730   71.3670   45.5920 C.2   350  SER350      0.2288
    118  O         59.9640   72.0820   45.4700 O.2   350  SER350     -0.2866
    119  CB        56.7890   72.4870   45.8390 C.3   350  SER350      0.2089
    120  OG        57.2850   73.7360   45.3710 O.3   350  SER350     -0.2183
    121  N         58.9010   70.6200   41.4630 N.3   352  THR352     -0.1218
    122  CA        58.1540   70.4840   40.2100 C.3   352  THR352      0.1862
    123  C         58.2450   69.0380   39.7350 C.2   352  THR352      0.2287
    124  O         59.3310   68.4730   39.6960 O.2   352  THR352     -0.2866
    125  CB        58.6350   71.4920   39.1120 C.3   352  THR352      0.1770
    126  OG1       57.9200   71.2580   37.8950 O.3   352  THR352     -0.2211
    127  CG2       60.1540   71.4050   38.8450 C.3   352  THR352      0.0375
    128  N         56.0310   71.0350   34.6360 N.3   410  ASP410     -0.1239
    129  CA        56.7000   72.1340   35.3500 C.3   410  ASP410      0.1674
    130  C         55.7120   72.8760   36.2560 C.2   410  ASP410      0.2266
    131  O         56.1020   73.5140   37.2430 O.2   410  ASP410     -0.2867
    132  CB        57.3280   73.1290   34.3660 C.3   410  ASP410      0.1410
    133  CG        58.4850   72.5270   33.5550 C.2   410  ASP410      0.3668
    134  OD1       59.3970   71.9110   34.1570 O.co2 410  ASP410     -0.2456
    135  OD2       58.4920   72.6930   32.3110 O.co2 410  ASP410     -0.2456
    136  N         53.2590   70.7010   41.1600 N.3   413  LEU413     -0.1245
    137  CA        54.3060   70.5720   42.1690 C.3   413  LEU413      0.1561
    138  C         54.0620   69.4290   43.1180 C.2   413  LEU413      0.2260
    139  O         52.9230   69.0950   43.4240 O.2   413  LEU413     -0.2867
    140  CB        54.4180   71.8580   42.9840 C.3   413  LEU413      0.0270
    141  CG        55.2060   73.0810   42.5010 C.3   413  LEU413      0.0019
    142  CD1       56.3170   72.7040   41.5520 C.3   413  LEU413      0.0001
    143  CD2       54.3010   74.0900   41.8430 C.3   413  LEU413      0.0001
    144  N         49.9610   70.0600   44.1030 N.3   421  PHE421     -0.1241
    145  CA        49.2970   71.3170   43.7810 C.3   421  PHE421      0.1605
    146  C         49.6330   71.8840   42.4160 C.2   421  PHE421      0.2264
    147  O         50.5530   71.4080   41.7520 O.2   421  PHE421     -0.2867
    148  CB        49.5150   72.3550   44.8840 C.3   421  PHE421      0.0534
    149  CG        50.9630   72.6350   45.2210 C.ar  421  PHE421     -0.0203
    150  CD1       51.5870   73.7810   44.7460 C.ar  421  PHE421     -0.0042
    151  CD2       51.6720   71.7940   46.0760 C.ar  421  PHE421     -0.0042
    152  CE1       52.8880   74.0600   45.0860 C.ar  421  PHE421     -0.0003
    153  CE2       52.9820   72.0720   46.4160 C.ar  421  PHE421     -0.0003
    154  CZ        53.5880   73.2040   45.9220 C.ar  421  PHE421     -0.0000
    155  N         50.6070   75.3900   40.0940 N.3   423  ILE423     -0.1231
    156  CA        51.4240   76.5710   40.3230 C.3   423  ILE423      0.1692
    157  C         51.0890   77.7800   39.4540 C.2   423  ILE423      0.2592
    158  O         51.0180   78.9030   39.9650 O.2   423  ILE423     -0.2718
    159  CB        52.9210   76.2280   40.1710 C.3   423  ILE423      0.0266
    160  CG1       53.8080   77.4700   40.2170 C.3   423  ILE423      0.0019
    161  CG2       53.1950   75.5880   38.8300 C.3   423  ILE423      0.0020
    162  CD1       55.0640   77.1520   39.2710 C.3   423  ILE423      0.0001
    163  N         50.9010   77.5910   38.1550 N.am  424  ASP424     -0.1974
    164  CA        50.8600   78.7690   37.3010 C.3   424  ASP424      0.1709
    165  C         49.5910   78.9560   36.5150 C.2   424  ASP424      0.2293
    166  O         49.1490   78.0540   35.8110 O.2   424  ASP424     -0.2864
    167  CB        52.0330   78.8020   36.3440 C.3   424  ASP424      0.1436
    168  CG        51.9600   79.9800   35.4000 C.2   424  ASP424      0.3671
    169  OD1       50.9270   80.1350   34.6850 O.co2 424  ASP424     -0.2456
    170  OD2       52.9450   80.7540   35.3910 O.co2 424  ASP424     -0.2456
@<TRIPOS>BOND
     1   135   133   ar
     2   133   134   ar
     3   133   132    1
     4    23    22    1
     5    23    24    2
     6    15    14    2
     7   132   129    1
     8    22    25    1
     9    22    21    1
    10   128   129    1
    11   169   168   ar
    12    25    26    1
    13    19    20    1
    14    19    18    1
    15    14    21   am
    16    14    13    1
    17   129   130    1
    18   170   168   ar
    19   168   167    1
    20   166   165    2
    21    50    49    1
    22    16    17    1
    23    16    13    1
    24   130   131    2
    25    17    18    1
    26   167   164    1
    27    13    12    1
    28   165   164    1
    29    49    48    1
    30   164   163    1
    31     4     3    2
    32    65    64   ar
    33    12     3   am
    34   126   125    1
    35   163   157   am
    36    33    27    1
    37    33    32    1
    38    48    47    1
    39     3     2    1
    40    51    52    1
    41    47    46    1
    42    27    28    1
    43   161   159    1
    44    64    66   ar
    45    64    63    1
    46    59    60    1
    47   127   125    1
    48    32    31    1
    49   125   122    1
    50   162   160    1
    51   157   158    2
    52   157   156    1
    53    52    53    1
    54    52    55    1
    55    60    63    1
    56    60    61    1
    57   124   123    2
    58     2     5    1
    59     2     1    1
    60   123   122    1
    61    58    56    1
    62    53    54    2
    63     5     6    1
    64    44    45    2
    65    44    43    1
    66   155   156    1
    67    28    31    1
    68    28    29    1
    69   159   160    1
    70   159   156    1
    71   122   121    1
    72    46    43    1
    73    57    56    1
    74    43    42    1
    75    56    55    1
    76    30    29    2
    77    61    62    2
    78   136   137    1
    79     6     7   ar
    80     6     8   ar
    81   142   141    1
    82     7     9   ar
    83   147   146    2
    84   143   141    1
    85     8    10   ar
    86   137   140    1
    87   137   138    1
    88   146   145    1
    89    85    84    1
    90   141   140    1
    91    78    77    1
    92     9    11   ar
    93    10    11   ar
    94   138   139    2
    95    84    86    1
    96    84    83    1
    97   145   144    1
    98   145   148    1
    99    40    38    1
   100    77    76   ar
   101    77    75   ar
   102    76    74   ar
   103    75    73   ar
   104   150   152   ar
   105   150   149   ar
   106    83    80    1
   107   148   149    1
   108   152   154   ar
   109    38    39    1
   110    38    35    1
   111   149   151   ar
   112    41    39    1
   113   120   119    1
   114   118   117    2
   115   117   116    1
   116    36    37    2
   117    36    35    1
   118   119   116    1
   119   154   153   ar
   120   151   153   ar
   121    74    72   ar
   122    73    72   ar
   123    79    80    1
   124    80    81    1
   125    35    34    1
   126   116   115    1
   127    72    71    1
   128   104   102   ar
   129   104   106   ar
   130    81    82    2
   131    81    87   am
   132   102   101   ar
   133    90    89    2
   134    70    69    2
   135   107   106    1
   136   106   105   ar
   137   111   110    2
   138    87    88    1
   139    71    68    1
   140   101   100    1
   141   101   103   ar
   142    67    68    1
   143   100    97    1
   144    89    96   am
   145    89    88    1
   146    69    68    1
   147    97    96    1
   148    97    98    1
   149   113   112    1
   150   105   103   ar
   151   108    98   am
   152   108   109    1
   153    88    91    1
   154   110   109    1
   155    98    99    2
   156   109   112    1
   157   112   114    1
   158    91    92    1
   159    92    93    1
   160    94    93    2
   161    93    95   am
