@<TRIPOS>MOLECULE
tmp/2x6mA00.pdb
 77 74 0 0 0
SMALL
GASTEIGER

@<TRIPOS>ATOM
      1  N        -20.4610   13.0920    6.4000 N.3    49  ARG49      -0.1245
      2  CA       -20.8980   14.3930    5.8270 C.3    49  ARG49       0.1563
      3  C        -22.2930   14.6940    6.3600 C.2    49  ARG49       0.2260
      4  O        -23.0360   13.7580    6.7610 O.2    49  ARG49      -0.2867
      5  CB       -20.8320   14.3680    4.2660 C.3    49  ARG49       0.0307
      6  CG       -21.7280   13.2720    3.6580 C.3    49  ARG49       0.0489
      7  CD       -21.7070   13.2980    2.1100 C.3    49  ARG49       0.2205
      8  NE       -22.7200   12.3500    1.6540 N.pl3  49  ARG49      -0.0865
      9  CZ       -22.4760   11.0820    1.3630 C.cat  49  ARG49       0.5346
     10  NH1      -21.2060   10.6010    1.3710 N.pl3  49  ARG49       0.1354
     11  NH2      -23.4750   10.2820    1.0210 N.pl3  49  ARG49       0.1354
     12  N        -25.7580   17.3290    5.5970 N.3    51  ASN51      -0.1240
     13  CA       -26.3670   18.2750    4.6620 C.3    51  ASN51       0.1653
     14  C        -26.2200   19.7270    5.0370 C.2    51  ASN51       0.2266
     15  O        -26.2190   20.1070    6.2440 O.2    51  ASN51      -0.2867
     16  CB       -27.8930   17.9660    4.5650 C.3    51  ASN51       0.1155
     17  CG       -28.2140   16.9460    3.5160 C.2    51  ASN51       0.2627
     18  OD1      -27.5090   16.8050    2.5030 O.2    51  ASN51      -0.2716
     19  ND2      -29.3120   16.2020    3.7350 N.am   51  ASN51      -0.0877
     20  N        -29.8490   21.3470    7.2160 N.3    55  GLY55      -0.1210
     21  CA       -30.2670   19.9530    7.3240 C.3    55  GLY55       0.1956
     22  C        -29.6220   19.2500    8.5140 C.2    55  GLY55       0.2612
     23  O        -28.6570   19.7730    9.1260 O.2    55  GLY55      -0.2717
     24  N        -30.2140   18.1390    8.9180 N.am   56  VAL56      -0.1965
     25  CA       -29.6660   17.3180   10.0040 C.3    56  VAL56       0.1727
     26  C        -29.2770   15.9200    9.5730 C.2    56  VAL56       0.2616
     27  O        -28.6880   15.1680   10.3670 O.2    56  VAL56      -0.2715
     28  CB       -30.6560   17.2350   11.2090 C.3    56  VAL56       0.0290
     29  CG1      -30.8100   18.6300   11.8790 C.3    56  VAL56       0.0023
     30  CG2      -31.9530   16.6010   10.7740 C.3    56  VAL56       0.0023
     31  N        -29.5290   15.5710    8.3070 N.am   57  LYS57      -0.1963
     32  CA       -29.2520   14.1860    7.8660 C.3    57  LYS57       0.1728
     33  C        -27.7870   14.0590    7.5380 C.2    57  LYS57       0.2617
     34  O        -27.1100   15.0330    7.1020 O.2    57  LYS57      -0.2715
     35  CB       -30.1300   13.8300    6.6600 C.3    57  LYS57       0.0311
     36  CG       -31.5890   13.6870    7.0760 C.3    57  LYS57       0.0038
     37  CD       -32.3870   13.1050    5.9270 C.3    57  LYS57       0.0206
     38  CE       -33.8210   12.8490    6.3800 C.3    57  LYS57       0.1093
     39  NZ       -34.6440   12.2990    5.2320 N.3    57  LYS57      -0.1314
     40  N        -27.2970   12.8610    7.7680 N.am   58  THR58      -0.1937
     41  CA       -25.8670   12.5910    7.7110 C.3    58  THR58       0.2028
     42  C        -25.6020   11.3080    6.9180 C.2    58  THR58       0.2642
     43  O        -26.4820   10.4280    6.7360 O.2    58  THR58      -0.2714
     44  CB       -25.3080   12.4340    9.1620 C.3    58  THR58       0.1808
     45  OG1      -26.0070   11.3660    9.8100 O.3    58  THR58      -0.2208
     46  CG2      -25.4430   13.7540    9.9860 C.3    58  THR58       0.0379
     47  N        -24.3430   11.1420    6.5130 N.am   59  ALA59      -0.1977
     48  CA       -23.9000    9.8920    5.8910 C.3    59  ALA59       0.1597
     49  C        -22.4960    9.5990    6.3360 C.2    59  ALA59       0.2287
     50  O        -21.7530   10.5360    6.6570 O.2    59  ALA59      -0.2864
     51  CB       -23.8890   10.0380    4.3480 C.3    59  ALA59       0.0319
     52  N        -27.5530   20.7460   -0.4290 N.3   104  TYR104     -0.1227
     53  CA       -27.5230   19.4050    0.1110 C.3   104  TYR104      0.1736
     54  C        -26.3550   18.6390   -0.4880 C.2   104  TYR104      0.2596
     55  O        -25.8510   18.9830   -1.5910 O.2   104  TYR104     -0.2718
     56  CB       -28.8830   18.7470   -0.2690 C.3   104  TYR104      0.0548
     57  CG       -30.0760   19.3390    0.4110 C.ar  104  TYR104     -0.0200
     58  CD1      -30.0900   19.4940    1.8100 C.ar  104  TYR104     -0.0009
     59  CD2      -31.2220   19.6760   -0.3260 C.ar  104  TYR104     -0.0009
     60  CE1      -31.1940   19.9800    2.4410 C.ar  104  TYR104      0.0417
     61  CE2      -32.3680   20.1700    0.3140 C.ar  104  TYR104      0.0417
     62  CZ       -32.3240   20.3510    1.6750 C.ar  104  TYR104      0.1957
     63  OH       -33.4010   20.8920    2.3410 O.3   104  TYR104     -0.2866
     64  N        -25.9630   17.5590    0.1750 N.am  105  CYS105     -0.1956
     65  CA       -24.7570   16.8160   -0.2340 C.3   105  CYS105      0.1843
     66  C        -25.0020   15.9990   -1.4790 C.2   105  CYS105      0.2626
     67  O        -24.0820   15.7450   -2.2730 O.2   105  CYS105     -0.2714
     68  CB       -24.2810   15.8580    0.8680 C.3   105  CYS105      0.0997
     69  SG       -23.8240   16.7180    2.4220 S.3   105  CYS105     -0.0797
     70  N        -26.2360   15.5270   -1.6610 N.am  106  GLY106     -0.1940
     71  CA       -26.5240   14.8370   -2.9080 C.3   106  GLY106      0.2014
     72  C        -25.9920   13.4200   -2.9610 C.2   106  GLY106      0.2639
     73  O        -25.9980   12.8060   -4.0500 O.2   106  GLY106     -0.2714
     74  N        -25.6100   12.8470   -1.8190 N.am  107  GLY107     -0.1954
     75  CA       -25.3360   11.4020   -1.7700 C.3   107  GLY107      0.1869
     76  C        -23.9390   10.9800   -2.1850 C.2   107  GLY107      0.2309
     77  O        -23.7020    9.7650   -2.4320 O.2   107  GLY107     -0.2863
@<TRIPOS>BOND
     1    73    72    2
     2    72    71    1
     3    72    74   am
     4    71    70    1
     5    77    76    2
     6    67    66    2
     7    76    75    1
     8    74    75    1
     9    70    66   am
    10    55    54    2
    11    66    65    1
    12    54    53    1
    13    54    64   am
    14    52    53    1
    15    59    61   ar
    16    59    57   ar
    17    56    53    1
    18    56    57    1
    19    65    64    1
    20    65    68    1
    21    61    62   ar
    22    57    58   ar
    23    68    69    1
    24    11     9    1
    25     9    10    1
    26     9     8    2
    27     8     7    1
    28    62    63    1
    29    62    60   ar
    30    58    60   ar
    31     7     6    1
    32    18    17    2
    33    17    19   am
    34    17    16    1
    35     6     5    1
    36     5     2    1
    37    51    48    1
    38    16    13    1
    39    13    14    1
    40    13    12    1
    41    14    15    2
    42    39    38    1
    43     2     3    1
    44     2     1    1
    45    48    49    1
    46    48    47    1
    47    37    38    1
    48    37    36    1
    49    49    50    2
    50     3     4    2
    51    47    42   am
    52    35    36    1
    53    35    32    1
    54    43    42    2
    55    42    41    1
    56    34    33    2
    57    20    21    1
    58    21    22    1
    59    33    40   am
    60    33    32    1
    61    41    40    1
    62    41    44    1
    63    32    31    1
    64    31    26   am
    65    22    24   am
    66    22    23    2
    67    24    25    1
    68    44    45    1
    69    44    46    1
    70    26    25    1
    71    26    27    2
    72    25    28    1
    73    30    28    1
    74    28    29    1
