@<TRIPOS>MOLECULE
tmp/2x6tG02.pdb
 112 106 0 0 0
SMALL
GASTEIGER

@<TRIPOS>ATOM
      1  N        114.4820  -10.8260   -1.6440 N.3    79  SER79      -0.1217
      2  CA       113.7930   -9.9200   -0.7390 C.3    79  SER79       0.1889
      3  C        113.4310   -8.5930   -1.3960 C.2    79  SER79       0.2288
      4  O        112.9470   -7.6920   -0.7250 O.2    79  SER79      -0.2866
      5  CB       114.6590   -9.6740    0.4990 C.3    79  SER79       0.2089
      6  OG       115.9360   -9.1880    0.1280 O.3    79  SER79      -0.2183
      7  N        111.2830   -6.0420   -3.3880 N.3    81  THR81      -0.1218
      8  CA       109.9020   -5.7830   -3.7600 C.3    81  THR81       0.1862
      9  C        109.7790   -5.2400   -5.1870 C.2    81  THR81       0.2287
     10  O        108.6820   -5.2160   -5.7470 O.2    81  THR81      -0.2866
     11  CB       109.2580   -4.7600   -2.8100 C.3    81  THR81       0.1770
     12  OG1      110.0330   -3.5480   -2.8010 O.3    81  THR81      -0.2211
     13  CG2      109.1650   -5.3250   -1.4060 C.3    81  THR81       0.0375
     14  N        105.7920  -12.1950    5.0960 N.3   116  SER116     -0.1217
     15  CA       105.9130  -10.7470    4.9740 C.3   116  SER116      0.1889
     16  C        104.5690  -10.0520    5.0810 C.2   116  SER116      0.2288
     17  O        103.5650  -10.5590    4.5880 O.2   116  SER116     -0.2866
     18  CB       106.5550  -10.3750    3.6410 C.3   116  SER116      0.2089
     19  OG       106.4630   -8.9650    3.4240 O.3   116  SER116     -0.2183
     20  N        103.8710   -7.5600    3.4690 N.3   118  ALA118     -0.1245
     21  CA       103.5380   -7.2200    2.0880 C.3   118  ALA118      0.1562
     22  C        102.3490   -8.0450    1.5880 C.2   118  ALA118      0.2260
     23  O        101.6690   -7.6340    0.6470 O.2   118  ALA118     -0.2867
     24  CB       104.7510   -7.4290    1.1800 C.3   118  ALA118      0.0290
     25  N        106.6150  -10.1930   -5.4430 N.3   140  PHE140     -0.1241
     26  CA       107.3150  -10.6010   -4.2250 C.3   140  PHE140      0.1605
     27  C        106.2950  -11.0170   -3.1740 C.2   140  PHE140      0.2264
     28  O        106.3810  -12.1020   -2.5910 O.2   140  PHE140     -0.2867
     29  CB       108.1750   -9.4780   -3.6450 C.3   140  PHE140      0.0534
     30  CG       108.5970   -9.7340   -2.2270 C.ar  140  PHE140     -0.0203
     31  CD1      109.6380  -10.6020   -1.9530 C.ar  140  PHE140     -0.0042
     32  CD2      107.9130   -9.1610   -1.1690 C.ar  140  PHE140     -0.0042
     33  CE1      110.0150  -10.8740   -0.6440 C.ar  140  PHE140     -0.0003
     34  CE2      108.2810   -9.4280    0.1440 C.ar  140  PHE140     -0.0003
     35  CZ       109.3360  -10.2800    0.4040 C.ar  140  PHE140     -0.0000
     36  N        106.9230  -10.6620    8.9580 N.3   167  TYR167     -0.1227
     37  CA       107.6860   -9.4950    9.3620 C.3   167  TYR167      0.1736
     38  C        107.0990   -8.2330    8.7450 C.2   167  TYR167      0.2595
     39  O        106.7250   -8.2230    7.5780 O.2   167  TYR167     -0.2718
     40  CB       109.1400   -9.6030    8.9250 C.3   167  TYR167      0.0548
     41  CG       109.8790  -10.8300    9.3950 C.ar  167  TYR167     -0.0200
     42  CD1      110.6190  -11.5930    8.5030 C.ar  167  TYR167     -0.0009
     43  CD2      109.8580  -11.2190   10.7270 C.ar  167  TYR167     -0.0009
     44  CE1      111.3120  -12.7220    8.9200 C.ar  167  TYR167      0.0417
     45  CE2      110.5460  -12.3440   11.1520 C.ar  167  TYR167      0.0417
     46  CZ       111.2710  -13.0900   10.2410 C.ar  167  TYR167      0.1957
     47  OH       111.9600  -14.1970   10.6610 O.3   167  TYR167     -0.2866
     48  N        107.0310   -7.1710    9.5390 N.am  168  PHE168     -0.1962
     49  CA       106.6100   -5.8690    9.0400 C.3   168  PHE168      0.1771
     50  C        107.8580   -5.0990    8.5860 C.2   168  PHE168      0.2620
     51  O        108.6380   -5.6390    7.8110 O.2   168  PHE168     -0.2715
     52  CB       105.7450   -5.1440   10.0810 C.3   168  PHE168      0.0574
     53  CG       104.3380   -5.6750   10.1470 C.ar  168  PHE168     -0.0200
     54  CD1      103.2630   -4.8900    9.7630 C.ar  168  PHE168     -0.0042
     55  CD2      104.1000   -6.9910   10.5260 C.ar  168  PHE168     -0.0042
     56  CE1      101.9730   -5.3910    9.7920 C.ar  168  PHE168     -0.0003
     57  CE2      102.8140   -7.5040   10.5570 C.ar  168  PHE168     -0.0003
     58  CZ       101.7460   -6.7030   10.1890 C.ar  168  PHE168     -0.0000
     59  N        108.0690   -3.8670    9.0340 N.am  169  ASN169     -0.1958
     60  CA       109.2440   -3.1080    8.5860 C.3   169  ASN169      0.1819
     61  C        110.4280   -3.2900    9.5170 C.2   169  ASN169      0.2621
     62  O        110.5920   -2.5690   10.5030 O.2   169  ASN169     -0.2715
     63  CB       108.9180   -1.6210    8.3910 C.3   169  ASN169      0.1195
     64  CG       108.4640   -1.3160    6.9830 C.2   169  ASN169      0.2630
     65  OD1      107.3270   -1.5930    6.6090 O.2   169  ASN169     -0.2716
     66  ND2      109.3620   -0.7590    6.1840 N.am  169  ASN169     -0.0877
     67  N        111.2550   -4.2760    9.2050 N.am  170  VAL170     -0.1977
     68  CA       112.3800   -4.6130   10.0640 C.3   170  VAL170      0.1596
     69  C        113.5550   -3.6890    9.7570 C.2   170  VAL170      0.2287
     70  O        113.8570   -3.4200    8.5990 O.2   170  VAL170     -0.2864
     71  CB       112.8150   -6.0790    9.9060 C.3   170  VAL170      0.0276
     72  CG1      113.8760   -6.4360   10.9510 C.3   170  VAL170      0.0022
     73  CG2      111.6140   -7.0180   10.0320 C.3   170  VAL170      0.0022
     74  N        121.8050   -4.3710    1.4990 N.3   178  LYS178     -0.1245
     75  CA       120.4970   -4.4500    0.8440 C.3   178  LYS178      0.1561
     76  C        120.2320   -3.3420   -0.1740 C.2   178  LYS178      0.2260
     77  O        119.2570   -3.4070   -0.9130 O.2   178  LYS178     -0.2867
     78  CB       119.3800   -4.5060    1.8900 C.3   178  LYS178      0.0271
     79  CG       119.3340   -5.8370    2.6310 C.3   178  LYS178      0.0035
     80  CD       118.1520   -5.9230    3.5700 C.3   178  LYS178      0.0206
     81  CE       116.8440   -6.1270    2.8260 C.3   178  LYS178      0.1093
     82  NZ       115.6870   -6.0770    3.7630 N.3   178  LYS178     -0.1314
     83  N        116.7830   -1.6370   -0.8760 N.3   181  MET181     -0.1230
     84  CA       115.8720   -2.3650   -0.0690 C.3   181  MET181      0.1702
     85  C        116.2240   -2.2830    1.4540 C.2   181  MET181      0.2592
     86  O        115.5280   -2.8450    2.3070 O.2   181  MET181     -0.2718
     87  CB       115.9560   -3.7390   -0.6670 C.3   181  MET181      0.0401
     88  CG       115.0730   -4.1070   -1.7840 C.3   181  MET181      0.0596
     89  SD       113.3320   -3.7000   -1.6140 S.3   181  MET181     -0.1393
     90  CE       113.1640   -2.5650   -3.0060 C.3   181  MET181      0.0692
     91  N        117.2910   -1.5510    1.7760 N.am  182  ALA182     -0.1966
     92  CA       117.6550   -1.2860    3.1670 C.3   182  ALA182      0.1728
     93  C        116.6230   -0.3570    3.8040 C.2   182  ALA182      0.2616
     94  O        115.9020    0.3460    3.1060 O.2   182  ALA182     -0.2715
     95  CB       119.0510   -0.6830    3.2620 C.3   182  ALA182      0.0334
     96  N        116.5540   -0.3720    5.1290 N.am  183  SER183     -0.1950
     97  CA       115.6150    0.4650    5.8610 C.3   183  SER183      0.1924
     98  C        115.8560    1.9520    5.6040 C.2   183  SER183      0.2314
     99  O        116.9720    2.3680    5.2910 O.2   183  SER183     -0.2863
    100  CB       115.7000    0.1870    7.3660 C.3   183  SER183      0.2116
    101  OG       116.8940    0.7160    7.9290 O.3   183  SER183     -0.2180
    102  N        104.3270    2.9550    8.9430 N.3   209  ARG209     -0.1245
    103  CA       104.6070    1.5320    8.9800 C.3   209  ARG209      0.1563
    104  C        104.8230    1.0730   10.4100 C.2   209  ARG209      0.2260
    105  O        105.1760    1.8660   11.2920 O.2   209  ARG209     -0.2867
    106  CB       105.8560    1.2020    8.1600 C.3   209  ARG209      0.0307
    107  CG       105.7820    1.6050    6.6960 C.3   209  ARG209      0.0489
    108  CD       104.8870    0.6850    5.8960 C.3   209  ARG209      0.2205
    109  NE       104.9320    1.0260    4.4770 N.pl3 209  ARG209     -0.0865
    110  CZ       105.8080    0.5420    3.6010 C.cat 209  ARG209      0.5346
    111  NH1      106.7290   -0.3310    3.9800 N.pl3 209  ARG209      0.1354
    112  NH2      105.7550    0.9240    2.3300 N.pl3 209  ARG209      0.1354
@<TRIPOS>BOND
     1    10     9    2
     2    25    26    1
     3     9     8    1
     4    26    29    1
     5    26    27    1
     6     8     7    1
     7     8    11    1
     8    29    30    1
     9    27    28    2
    10    90    89    1
    11    11    12    1
    12    11    13    1
    13    30    31   ar
    14    30    32   ar
    15    31    33   ar
    16    88    89    1
    17    88    87    1
    18     1     2    1
    19     3     2    1
    20     3     4    2
    21    32    34   ar
    22    77    76    2
    23    83    84    1
    24     2     5    1
    25    87    84    1
    26    33    35   ar
    27    76    75    1
    28    84    85    1
    29     6     5    1
    30    34    35   ar
    31    23    22    2
    32    75    74    1
    33    75    78    1
    34    24    21    1
    35    85    91   am
    36    85    86    2
    37    22    21    1
    38    91    92    1
    39    78    79    1
    40    21    20    1
    41   112   110    1
    42    79    80    1
    43    81    80    1
    44    81    82    1
    45    94    93    2
    46    92    95    1
    47    92    93    1
    48    19    18    1
    49   110   111    1
    50   110   109    2
    51    18    15    1
    52    93    96   am
    53   109   108    1
    54    17    16    2
    55    15    16    1
    56    15    14    1
    57    96    97    1
    58    99    98    2
    59    98    97    1
    60    97   100    1
    61   108   107    1
    62    66    64   am
    63    65    64    2
    64   107   106    1
    65    64    63    1
    66   100   101    1
    67    39    38    2
    68    51    50    2
    69   106   103    1
    70    63    60    1
    71    42    44   ar
    72    42    41   ar
    73    50    59   am
    74    50    49    1
    75    60    59    1
    76    60    61    1
    77    70    69    2
    78    38    37    1
    79    38    48   am
    80    44    46   ar
    81    40    37    1
    82    40    41    1
    83   102   103    1
    84    36    37    1
    85   103   104    1
    86    49    48    1
    87    49    52    1
    88    67    61   am
    89    67    68    1
    90    41    43   ar
    91    61    62    2
    92    69    68    1
    93    54    56   ar
    94    54    53   ar
    95    56    58   ar
    96    71    73    1
    97    71    68    1
    98    71    72    1
    99    52    53    1
   100    53    55   ar
   101    58    57   ar
   102    46    47    1
   103    46    45   ar
   104   104   105    2
   105    55    57   ar
   106    43    45   ar
