@<TRIPOS>MOLECULE
tmp/2x6tG01.pdb
 192 183 0 0 0
SMALL
GASTEIGER

@<TRIPOS>ATOM
      1  N        111.2830   -6.0420   -3.3880 N.3    81  THR81      -0.1203
      2  CA       109.9020   -5.7830   -3.7600 C.3    81  THR81       0.1994
      3  C        109.7790   -5.2400   -5.1870 C.2    81  THR81       0.2618
      4  O        108.6820   -5.2160   -5.7470 O.2    81  THR81      -0.2717
      5  CB       109.2580   -4.7600   -2.8100 C.3    81  THR81       0.1784
      6  OG1      110.0330   -3.5480   -2.8010 O.3    81  THR81      -0.2211
      7  CG2      109.1650   -5.3250   -1.4060 C.3    81  THR81       0.0376
      8  N        110.9020   -4.7980   -5.7590 N.am   82  THR82      -0.1952
      9  CA       110.9220   -4.2090   -7.0930 C.3    82  THR82       0.1897
     10  C        111.4700   -5.1770   -8.1440 C.2    82  THR82       0.2313
     11  O        111.6820   -4.7920   -9.2910 O.2    82  THR82      -0.2863
     12  CB       111.7620   -2.9150   -7.1010 C.3    82  THR82       0.1794
     13  OG1      113.0940   -3.2100   -6.6620 O.3    82  THR82      -0.2208
     14  CG2      111.1380   -1.8680   -6.1870 C.3    82  THR82       0.0378
     15  N        103.8710   -7.5600    3.4690 N.3   118  ALA118     -0.1245
     16  CA       103.5380   -7.2200    2.0880 C.3   118  ALA118      0.1562
     17  C        102.3490   -8.0450    1.5880 C.2   118  ALA118      0.2260
     18  O        101.6690   -7.6340    0.6470 O.2   118  ALA118     -0.2867
     19  CB       104.7510   -7.4290    1.1800 C.3   118  ALA118      0.0290
     20  N        102.4840   -6.7230   -5.1570 N.3   138  ASN138     -0.1240
     21  CA       103.5730   -7.0940   -6.0570 C.3   138  ASN138      0.1653
     22  C        103.8700   -8.5920   -6.0390 C.2   138  ASN138      0.2266
     23  O        103.3950   -9.3220   -5.1640 O.2   138  ASN138     -0.2867
     24  CB       104.8340   -6.2830   -5.7420 C.3   138  ASN138      0.1155
     25  CG       105.2200   -6.3430   -4.2780 C.2   138  ASN138      0.2627
     26  OD1      105.3430   -7.4210   -3.6980 O.2   138  ASN138     -0.2716
     27  ND2      105.4120   -5.1750   -3.6690 N.am  138  ASN138     -0.0877
     28  N        108.0690   -3.8670    9.0340 N.3   169  ASN169     -0.1240
     29  CA       109.2440   -3.1080    8.5860 C.3   169  ASN169      0.1653
     30  C        110.4280   -3.2900    9.5170 C.2   169  ASN169      0.2266
     31  O        110.5920   -2.5690   10.5030 O.2   169  ASN169     -0.2867
     32  CB       108.9180   -1.6210    8.3910 C.3   169  ASN169      0.1155
     33  CG       108.4640   -1.3160    6.9830 C.2   169  ASN169      0.2627
     34  OD1      107.3270   -1.5930    6.6090 O.2   169  ASN169     -0.2716
     35  ND2      109.3620   -0.7590    6.1840 N.am  169  ASN169     -0.0877
     36  N        118.8730   -0.4530   -2.1210 N.3   180  SER180     -0.1202
     37  CA       117.5900    0.2600   -2.1300 C.3   180  SER180      0.2020
     38  C        116.5520   -0.3880   -1.2270 C.2   180  SER180      0.2619
     39  O        115.5690    0.2340   -0.8480 O.2   180  SER180     -0.2717
     40  CB       117.0350    0.3460   -3.5520 C.3   180  SER180      0.2103
     41  OG       116.6460   -0.9380   -4.0260 O.3   180  SER180     -0.2182
     42  N        116.7830   -1.6370   -0.8760 N.am  181  MET181     -0.1965
     43  CA       115.8720   -2.3650   -0.0690 C.3   181  MET181      0.1736
     44  C        116.2240   -2.2830    1.4540 C.2   181  MET181      0.2616
     45  O        115.5280   -2.8450    2.3070 O.2   181  MET181     -0.2715
     46  CB       115.9560   -3.7390   -0.6670 C.3   181  MET181      0.0427
     47  CG       115.0730   -4.1070   -1.7840 C.3   181  MET181      0.0599
     48  SD       113.3320   -3.7000   -1.6140 S.3   181  MET181     -0.1393
     49  CE       113.1640   -2.5650   -3.0060 C.3   181  MET181      0.0692
     50  N        117.2910   -1.5510    1.7760 N.am  182  ALA182     -0.1963
     51  CA       117.6550   -1.2860    3.1670 C.3   182  ALA182      0.1728
     52  C        116.6230   -0.3570    3.8040 C.2   182  ALA182      0.2617
     53  O        115.9020    0.3460    3.1060 O.2   182  ALA182     -0.2715
     54  CB       119.0510   -0.6830    3.2620 C.3   182  ALA182      0.0334
     55  N        116.5540   -0.3720    5.1290 N.am  183  SER183     -0.1936
     56  CA       115.6150    0.4650    5.8610 C.3   183  SER183      0.2055
     57  C        115.8560    1.9520    5.6040 C.2   183  SER183      0.2642
     58  O        116.9720    2.3680    5.2910 O.2   183  SER183     -0.2714
     59  CB       115.7000    0.1870    7.3660 C.3   183  SER183      0.2130
     60  OG       116.8940    0.7160    7.9290 O.3   183  SER183     -0.2179
     61  N        114.7990    2.7470    5.7320 N.am  184  VAL184     -0.1977
     62  CA       114.9100    4.1990    5.5830 C.3   184  VAL184      0.1596
     63  C        115.9070    4.7410    6.6090 C.2   184  VAL184      0.2287
     64  O        116.6950    5.6310    6.3070 O.2   184  VAL184     -0.2864
     65  CB       113.5400    4.8950    5.7380 C.3   184  VAL184      0.0276
     66  CG1      113.6990    6.4120    5.8260 C.3   184  VAL184      0.0022
     67  CG2      112.6200    4.5180    4.5730 C.3   184  VAL184      0.0022
     68  N        119.2980    4.3860    5.2020 N.3   187  HIS187     -0.1241
     69  CA       119.4890    5.3440    4.1220 C.3   187  HIS187      0.1621
     70  C        119.7310    6.7540    4.6360 C.2   187  HIS187      0.2264
     71  O        120.5880    7.4630    4.1160 O.2   187  HIS187     -0.2867
     72  CB       118.2850    5.3410    3.1810 C.3   187  HIS187      0.0745
     73  CG       118.2160    4.1300    2.3050 C.ar  187  HIS187      0.0817
     74  ND1      117.0280    3.5370    1.9380 N.ar  187  HIS187     -0.2268
     75  CD2      119.1960    3.3880    1.7400 C.ar  187  HIS187      0.1154
     76  CE1      117.2820    2.4910    1.1740 C.ar  187  HIS187      0.1986
     77  NE2      118.5890    2.3790    1.0390 N.ar  187  HIS187     -0.2212
     78  N        116.5810   12.0980    3.0160 N.3   199  LYS199     -0.1231
     79  CA       115.4920   12.0970    2.0450 C.3   199  LYS199      0.1693
     80  C        114.3210   11.1800    2.3950 C.2   199  LYS199      0.2592
     81  O        114.5030   10.0260    2.7900 O.2   199  LYS199     -0.2718
     82  CB       116.0310   11.7300    0.6590 C.3   199  LYS199      0.0285
     83  CG       116.9320   12.8000    0.0480 C.3   199  LYS199      0.0035
     84  CD       117.7830   12.2380   -1.0830 C.3   199  LYS199      0.0206
     85  CE       118.7570   13.2740   -1.6320 C.3   199  LYS199      0.1093
     86  NZ       119.7110   13.7840   -0.6060 N.3   199  LYS199     -0.1314
     87  N        113.1170   11.7240    2.2350 N.am  200  LEU200     -0.1966
     88  CA       111.8790   10.9610    2.3510 C.3   200  LEU200      0.1728
     89  C        111.0450   11.1710    1.0990 C.2   200  LEU200      0.2616
     90  O        111.1300   12.2250    0.4570 O.2   200  LEU200     -0.2715
     91  CB       111.0750   11.4020    3.5770 C.3   200  LEU200      0.0311
     92  CG       111.6300   11.0320    4.9520 C.3   200  LEU200      0.0022
     93  CD1      110.6860   11.5330    6.0280 C.3   200  LEU200      0.0001
     94  CD2      111.8460    9.5280    5.0870 C.3   200  LEU200      0.0001
     95  N        110.2410   10.1680    0.7530 N.am  201  PHE201     -0.1974
     96  CA       109.3140   10.2880   -0.3690 C.3   201  PHE201      0.1639
     97  C        108.2970   11.3690   -0.0850 C.2   201  PHE201      0.2290
     98  O        107.8410   11.5270    1.0460 O.2   201  PHE201     -0.2864
     99  CB       108.5500    8.9820   -0.6340 C.3   201  PHE201      0.0560
    100  CG       109.4050    7.8410   -1.1100 C.ar  201  PHE201     -0.0200
    101  CD1      110.6820    8.0500   -1.6100 C.ar  201  PHE201     -0.0042
    102  CD2      108.9100    6.5450   -1.0830 C.ar  201  PHE201     -0.0042
    103  CE1      111.4550    6.9910   -2.0470 C.ar  201  PHE201     -0.0003
    104  CE2      109.6830    5.4780   -1.5210 C.ar  201  PHE201     -0.0003
    105  CZ       110.9560    5.7060   -2.0030 C.ar  201  PHE201     -0.0000
    106  N        105.1310   11.3560    2.5800 N.3   204  SER204     -0.1217
    107  CA       105.5290   10.5400    3.7310 C.3   204  SER204      0.1889
    108  C        104.8360   10.9650    5.0180 C.2   204  SER204      0.2288
    109  O        104.8020   10.1960    5.9770 O.2   204  SER204     -0.2866
    110  CB       107.0510   10.5730    3.9350 C.3   204  SER204      0.2089
    111  OG       107.7250    9.7910    2.9630 O.3   204  SER204     -0.2183
    112  N        102.2840    8.5460    5.3220 N.3   207  PHE207     -0.1241
    113  CA       102.7430    7.1560    5.2510 C.3   207  PHE207      0.1605
    114  C        103.2120    6.6980    6.6150 C.2   207  PHE207      0.2264
    115  O        103.9770    7.3960    7.2800 O.2   207  PHE207     -0.2867
    116  CB       103.8720    6.9630    4.2280 C.3   207  PHE207      0.0534
    117  CG       103.5090    7.3590    2.8180 C.ar  207  PHE207     -0.0203
    118  CD1      102.1970    7.2870    2.3620 C.ar  207  PHE207     -0.0042
    119  CD2      104.4940    7.7800    1.9330 C.ar  207  PHE207     -0.0042
    120  CE1      101.8740    7.6470    1.0550 C.ar  207  PHE207     -0.0003
    121  CE2      104.1750    8.1470    0.6270 C.ar  207  PHE207     -0.0003
    122  CZ       102.8620    8.0760    0.1900 C.ar  207  PHE207     -0.0000
    123  N        104.3270    2.9550    8.9430 N.3   209  ARG209     -0.1245
    124  CA       104.6070    1.5320    8.9800 C.3   209  ARG209      0.1563
    125  C        104.8230    1.0730   10.4100 C.2   209  ARG209      0.2260
    126  O        105.1760    1.8660   11.2920 O.2   209  ARG209     -0.2867
    127  CB       105.8560    1.2020    8.1600 C.3   209  ARG209      0.0307
    128  CG       105.7820    1.6050    6.6960 C.3   209  ARG209      0.0489
    129  CD       104.8870    0.6850    5.8960 C.3   209  ARG209      0.2205
    130  NE       104.9320    1.0260    4.4770 N.pl3 209  ARG209     -0.0865
    131  CZ       105.8080    0.5420    3.6010 C.cat 209  ARG209      0.5346
    132  NH1      106.7290   -0.3310    3.9800 N.pl3 209  ARG209      0.1354
    133  NH2      105.7550    0.9240    2.3300 N.pl3 209  ARG209      0.1354
    134  N        107.1210    7.6740    8.8020 N.3   243  PHE243     -0.1241
    135  CA       108.5090    7.7400    8.3620 C.3   243  PHE243      0.1605
    136  C        109.1890    8.9620    8.9790 C.2   243  PHE243      0.2264
    137  O        110.3950    8.9530    9.2300 O.2   243  PHE243     -0.2867
    138  CB       108.5990    7.7900    6.8350 C.3   243  PHE243      0.0534
    139  CG       108.3460    6.4710    6.1780 C.ar  243  PHE243     -0.0203
    140  CD1      107.0600    6.0770    5.8510 C.ar  243  PHE243     -0.0042
    141  CD2      109.3980    5.6170    5.8890 C.ar  243  PHE243     -0.0042
    142  CE1      106.8260    4.8500    5.2450 C.ar  243  PHE243     -0.0003
    143  CE2      109.1710    4.3930    5.2900 C.ar  243  PHE243     -0.0003
    144  CZ       107.8800    4.0090    4.9680 C.ar  243  PHE243     -0.0000
    145  N        111.5400   13.9590   -1.8600 N.3   262  ILE262     -0.1245
    146  CA       111.8370   13.6350   -3.2490 C.3   262  ILE262      0.1561
    147  C        110.6050   13.0380   -3.9340 C.2   262  ILE262      0.2260
    148  O        109.6890   12.5630   -3.2660 O.2   262  ILE262     -0.2867
    149  CB       113.0490   12.6660   -3.3750 C.3   262  ILE262      0.0252
    150  CG1      112.7210   11.2760   -2.8150 C.3   262  ILE262      0.0019
    151  CG2      114.2680   13.2560   -2.6840 C.3   262  ILE262      0.0019
    152  CD1      113.8390   10.2570   -2.9980 C.3   262  ILE262      0.0001
    153  N        107.0450    2.3190   -7.8990 N.3   268  LEU268     -0.1245
    154  CA       106.3360    1.9370   -6.6780 C.3   268  LEU268      0.1561
    155  C        104.8530    2.3080   -6.7210 C.2   268  LEU268      0.2260
    156  O        104.0770    1.8600   -5.8840 O.2   268  LEU268     -0.2867
    157  CB       106.9960    2.5810   -5.4540 C.3   268  LEU268      0.0270
    158  CG       108.3590    2.0100   -5.0440 C.3   268  LEU268      0.0019
    159  CD1      108.8250    2.6470   -3.7370 C.3   268  LEU268      0.0001
    160  CD2      108.3240    0.4840   -4.9140 C.3   268  LEU268      0.0001
    161  N        101.9090   -0.0260   -6.1580 N.3   271  ARG271     -0.1231
    162  CA       102.5820   -1.1900   -5.5850 C.3   271  ARG271      0.1694
    163  C        102.9510   -0.9650   -4.1240 C.2   271  ARG271      0.2592
    164  O        103.6660   -1.7800   -3.5320 O.2   271  ARG271     -0.2718
    165  CB       103.8670   -1.5030   -6.3600 C.3   271  ARG271      0.0321
    166  CG       103.7560   -1.4340   -7.8820 C.3   271  ARG271      0.0489
    167  CD       102.8530   -2.5090   -8.4310 C.3   271  ARG271      0.2205
    168  NE       102.9600   -2.6430   -9.8860 N.pl3 271  ARG271     -0.0865
    169  CZ       102.2260   -3.4810  -10.6190 C.cat 271  ARG271      0.5346
    170  NH1      101.3220   -4.2660  -10.0390 N.pl3 271  ARG271      0.1354
    171  NH2      102.3920   -3.5370  -11.9380 N.pl3 271  ARG271      0.1354
    172  N        102.4490    0.1250   -3.5440 N.am  272  TYR272     -0.1962
    173  CA       102.9650    0.6460   -2.2820 C.3   272  TYR272      0.1771
    174  C        101.9660    0.5580   -1.1320 C.2   272  TYR272      0.2619
    175  O        100.8000    0.9210   -1.2810 O.2   272  TYR272     -0.2715
    176  CB       103.3770    2.1040   -2.4820 C.3   272  TYR272      0.0574
    177  CG       104.1540    2.7120   -1.3370 C.ar  272  TYR272     -0.0198
    178  CD1      105.4830    2.3670   -1.1130 C.ar  272  TYR272     -0.0009
    179  CD2      103.5690    3.6550   -0.4940 C.ar  272  TYR272     -0.0009
    180  CE1      106.2070    2.9360   -0.0760 C.ar  272  TYR272      0.0417
    181  CE2      104.2870    4.2320    0.5430 C.ar  272  TYR272      0.0417
    182  CZ       105.6080    3.8700    0.7450 C.ar  272  TYR272      0.1957
    183  OH       106.3390    4.4180    1.7700 O.3   272  TYR272     -0.2866
    184  N        102.4410    0.0800    0.0140 N.am  273  GLN273     -0.1977
    185  CA       101.6580    0.0820    1.2420 C.3   273  GLN273      0.1601
    186  C        101.8450    1.4240    1.9500 C.2   273  GLN273      0.2287
    187  O        102.9440    1.7460    2.4010 O.2   273  GLN273     -0.2864
    188  CB       102.0810   -1.0680    2.1650 C.3   273  GLN273      0.0394
    189  CG       101.8480   -2.4530    1.5850 C.3   273  GLN273      0.0908
    190  CD       102.1940   -3.5630    2.5610 C.2   273  GLN273      0.2608
    191  OE1      103.3590   -3.7530    2.9170 O.2   273  GLN273     -0.2717
    192  NE2      101.1800   -4.3060    3.0020 N.am  273  GLN273     -0.0878
@<TRIPOS>BOND
     1   171   169    1
     2   169   170    1
     3   169   168    2
     4   168   167    1
     5    11    10    2
     6   167   166    1
     7    10     9    1
     8   153   154    1
     9   166   165    1
    10    12     9    1
    11    12    13    1
    12    12    14    1
    13     9     8    1
    14   155   154    1
    15   155   156    2
    16   154   157    1
    17   165   162    1
    18   161   162    1
    19    21    22    1
    20    21    24    1
    21    21    20    1
    22    22    23    2
    23     8     3   am
    24     4     3    2
    25    24    25    1
    26   162   163    1
    27   157   158    1
    28     3     2    1
    29   158   160    1
    30   158   159    1
    31    25    26    2
    32    25    27   am
    33   163   172   am
    34   163   164    2
    35    41    40    1
    36   147   148    2
    37   147   146    1
    38     2     1    1
    39     2     5    1
    40    40    37    1
    41   172   173    1
    42   149   146    1
    43   149   150    1
    44   149   151    1
    45   146   145    1
    46    49    48    1
    47   152   150    1
    48     5     6    1
    49     5     7    1
    50   176   173    1
    51   176   177    1
    52   173   174    1
    53    37    36    1
    54    37    38    1
    55   103   105   ar
    56   103   101   ar
    57   105   104   ar
    58    47    48    1
    59    47    46    1
    60    85    84    1
    61    85    86    1
    62   101   100   ar
    63   104   102   ar
    64   177   178   ar
    65   177   179   ar
    66   175   174    2
    67    38    42   am
    68    38    39    2
    69   174   184   am
    70   178   180   ar
    71   100   102   ar
    72   100    99    1
    73    84    83    1
    74    42    43    1
    75    46    43    1
    76    99    96    1
    77   179   181   ar
    78    96    97    1
    79    96    95    1
    80    97    98    2
    81   180   182   ar
    82    43    44    1
    83   184   185    1
    84    83    82    1
    85   122   121   ar
    86   122   120   ar
    87    90    89    2
    88   181   182   ar
    89   121   119   ar
    90    18    17    2
    91    82    79    1
    92   182   183    1
    93    95    89   am
    94    77    76   ar
    95    77    75   ar
    96   120   118   ar
    97    89    88    1
    98    76    74   ar
    99    19    16    1
   100   185   186    1
   101   185   188    1
   102    44    50   am
   103    44    45    2
   104   189   188    1
   105   189   190    1
   106    17    16    1
   107    75    73   ar
   108    50    51    1
   109   119   117   ar
   110    74    73   ar
   111   186   187    2
   112    79    80    1
   113    79    78    1
   114    16    15    1
   115    87    88    1
   116    87    80   am
   117    73    72    1
   118   133   131    1
   119    88    91    1
   120   118   117   ar
   121    80    81    2
   122   190   191    2
   123   190   192   am
   124   106   107    1
   125   117   116    1
   126   111   110    1
   127    53    52    2
   128    51    54    1
   129    51    52    1
   130    72    69    1
   131    91    92    1
   132   131   132    1
   133   131   130    2
   134   107   110    1
   135   107   108    1
   136    52    55   am
   137    71    70    2
   138    69    70    1
   139    69    68    1
   140   116   113    1
   141   130   129    1
   142    67    65    1
   143    92    94    1
   144    92    93    1
   145   144   142   ar
   146   144   143   ar
   147   108   109    2
   148    55    56    1
   149   142   140   ar
   150   113   112    1
   151   113   114    1
   152   143   141   ar
   153    58    57    2
   154    62    61    1
   155    62    65    1
   156    62    63    1
   157    57    61   am
   158    57    56    1
   159    65    66    1
   160   140   139   ar
   161    56    59    1
   162   141   139   ar
   163   129   128    1
   164   139   138    1
   165    35    33   am
   166    64    63    2
   167    34    33    2
   168   114   115    2
   169   128   127    1
   170   138   135    1
   171    33    32    1
   172    59    60    1
   173   127   124    1
   174   135   134    1
   175   135   136    1
   176    32    29    1
   177    29    28    1
   178    29    30    1
   179   123   124    1
   180   136   137    2
   181   124   125    1
   182    30    31    2
   183   125   126    2
