@<TRIPOS>MOLECULE
tmp/2x6vB00.pdb
 89 80 0 0 0
SMALL
GASTEIGER

@<TRIPOS>ATOM
      1  N         47.5410  -26.3470   11.1050 N.3    50  ILE50      -0.1245
      2  CA        48.1790  -27.6520   11.0600 C.3    50  ILE50       0.1561
      3  C         48.8590  -27.7790    9.7060 C.2    50  ILE50       0.2260
      4  O         48.2460  -27.4940    8.6720 O.2    50  ILE50      -0.2867
      5  CB        47.1310  -28.7690   11.2370 C.3    50  ILE50       0.0252
      6  CG1       46.4550  -28.6360   12.6010 C.3    50  ILE50       0.0019
      7  CG2       47.7520  -30.1700   11.0920 C.3    50  ILE50       0.0019
      8  CD1       45.2100  -29.5320   12.7600 C.3    50  ILE50       0.0001
      9  N         50.8090  -30.4520    7.1660 N.3    52  LEU52      -0.1245
     10  CA        51.0000  -31.8870    6.9970 C.3    52  LEU52       0.1561
     11  C         51.3790  -32.2440    5.5650 C.2    52  LEU52       0.2260
     12  O         51.2330  -31.4230    4.6450 O.2    52  LEU52      -0.2867
     13  CB        49.7680  -32.6510    7.4730 C.3    52  LEU52       0.0270
     14  CG        48.4470  -32.4660    6.7300 C.3    52  LEU52       0.0019
     15  CD1       48.4170  -33.4010    5.5590 C.3    52  LEU52       0.0001
     16  CD2       47.3160  -32.8000    7.6390 C.3    52  LEU52       0.0001
     17  N         51.2310  -35.4330    2.4440 N.3    54  ASP54      -0.1239
     18  CA        50.9720  -36.7900    1.9810 C.3    54  ASP54       0.1674
     19  C         51.7850  -37.0290    0.7250 C.2    54  ASP54       0.2266
     20  O         52.4770  -36.1310    0.2280 O.2    54  ASP54      -0.2867
     21  CB        49.4670  -37.1040    1.8000 C.3    54  ASP54       0.1410
     22  CG        48.8250  -36.3480    0.6300 C.2    54  ASP54       0.3668
     23  OD1       49.4880  -35.4980   -0.0180 O.co2  54  ASP54      -0.2456
     24  OD2       47.6300  -36.6060    0.3670 O.co2  54  ASP54      -0.2456
     25  N         51.2020  -38.9390   -2.9850 N.3    56  VAL56      -0.1245
     26  CA        50.1560  -39.5510   -3.7890 C.3    56  VAL56       0.1561
     27  C         50.7090  -40.0190   -5.1160 C.2    56  VAL56       0.2260
     28  O         51.7360  -39.5020   -5.5860 O.2    56  VAL56      -0.2867
     29  CB        49.0000  -38.5550   -4.0580 C.3    56  VAL56       0.0252
     30  CG1       48.4490  -38.0340   -2.7350 C.3    56  VAL56       0.0019
     31  CG2       49.4930  -37.3920   -4.9310 C.3    56  VAL56       0.0019
     32  N         46.4350  -43.0320    1.1560 N.3    82  GLY82      -0.1225
     33  CA        47.7510  -42.6910    1.6560 C.3    82  GLY82       0.1811
     34  C         47.6720  -42.1980    3.0840 C.2    82  GLY82       0.2280
     35  O         46.7200  -41.5160    3.4500 O.2    82  GLY82      -0.2866
     36  N         48.8840  -39.8570    6.2850 N.3    84  LEU84      -0.1245
     37  CA        49.3350  -38.4720    6.4020 C.3    84  LEU84       0.1561
     38  C         50.5480  -38.3590    7.3180 C.2    84  LEU84       0.2260
     39  O         50.6660  -39.0960    8.2970 O.2    84  LEU84      -0.2867
     40  CB        48.1980  -37.6100    6.9460 C.3    84  LEU84       0.0270
     41  CG        46.9210  -37.7070    6.1100 C.3    84  LEU84       0.0019
     42  CD1       45.7930  -36.8620    6.7020 C.3    84  LEU84       0.0001
     43  CD2       47.2070  -37.3090    4.6660 C.3    84  LEU84       0.0001
     44  N         51.7020  -35.6270    9.7280 N.3    86  VAL86      -0.1245
     45  CA        51.4040  -34.3530   10.3710 C.3    86  VAL86       0.1561
     46  C         52.6800  -33.7690   10.9770 C.2    86  VAL86       0.2260
     47  O         53.3700  -34.4330   11.7550 O.2    86  VAL86      -0.2867
     48  CB        50.3630  -34.5440   11.4710 C.3    86  VAL86       0.0252
     49  CG1       50.1160  -33.2380   12.1880 C.3    86  VAL86       0.0019
     50  CG2       49.0330  -35.1180   10.8650 C.3    86  VAL86       0.0019
     51  N         53.0520  -33.8260   -1.3320 N.3   131  ARG131     -0.1245
     52  CA        52.2530  -32.6090   -1.2350 C.3   131  ARG131      0.1563
     53  C         52.2770  -32.0760    0.1830 C.2   131  ARG131      0.2260
     54  O         52.2890  -32.8500    1.1490 O.2   131  ARG131     -0.2867
     55  CB        50.7960  -32.8770   -1.6110 C.3   131  ARG131      0.0307
     56  CG        50.6100  -33.7630   -2.8310 C.3   131  ARG131      0.0489
     57  CD        49.3210  -34.5580   -2.6790 C.3   131  ARG131      0.2205
     58  NE        48.1980  -33.9200   -3.3360 N.pl3 131  ARG131     -0.0865
     59  CZ        46.9230  -34.1620   -3.0480 C.cat 131  ARG131      0.5346
     60  NH1       46.5820  -35.0080   -2.0780 N.pl3 131  ARG131      0.1354
     61  NH2       45.9840  -33.5290   -3.7250 N.pl3 131  ARG131      0.1354
     62  N         50.1180  -29.7150    2.8590 N.3   133  HIS133     -0.1241
     63  CA        48.7920  -29.1940    3.0970 C.3   133  HIS133      0.1621
     64  C         48.7910  -28.2660    4.3000 C.2   133  HIS133      0.2264
     65  O         49.4110  -28.5630    5.3150 O.2   133  HIS133     -0.2867
     66  CB        47.8090  -30.3390    3.3470 C.3   133  HIS133      0.0745
     67  CG        47.8730  -31.4040    2.3090 C.ar  133  HIS133      0.0817
     68  ND1       47.1600  -31.3370    1.1330 N.ar  133  HIS133     -0.2268
     69  CD2       48.5820  -32.5560    2.2620 C.ar  133  HIS133      0.1154
     70  CE1       47.4250  -32.4080    0.4040 C.ar  133  HIS133      0.1986
     71  NE2       48.2900  -33.1590    1.0620 N.ar  133  HIS133     -0.2212
     72  N         46.2460  -26.4690    6.9510 N.3   135  VAL135     -0.1245
     73  CA        44.9010  -26.4930    7.4920 C.3   135  VAL135      0.1561
     74  C         44.7360  -25.5110    8.6610 C.2   135  VAL135      0.2260
     75  O         45.4790  -25.5780    9.6340 O.2   135  VAL135     -0.2867
     76  CB        44.5670  -27.8980    8.0240 C.3   135  VAL135      0.0252
     77  CG1       43.0760  -27.9950    8.3450 C.3   135  VAL135      0.0019
     78  CG2       44.9500  -28.9450    7.0300 C.3   135  VAL135      0.0019
     79  N         41.0830  -26.2580    3.3720 N.3   141  PHE141     -0.1241
     80  CA        42.5340  -26.2810    3.4510 C.3   141  PHE141      0.1605
     81  C         43.1370  -26.0490    2.0880 C.2   141  PHE141      0.2264
     82  O         42.4450  -26.1200    1.0770 O.2   141  PHE141     -0.2867
     83  CB        43.0560  -27.5950    4.0590 C.3   141  PHE141      0.0534
     84  CG        42.7750  -28.8360    3.2200 C.ar  141  PHE141     -0.0203
     85  CD1       41.5870  -29.5290    3.3590 C.ar  141  PHE141     -0.0042
     86  CD2       43.7130  -29.3120    2.3110 C.ar  141  PHE141     -0.0042
     87  CE1       41.3160  -30.6800    2.6020 C.ar  141  PHE141     -0.0003
     88  CE2       43.4590  -30.4790    1.5520 C.ar  141  PHE141     -0.0003
     89  CZ        42.2440  -31.1560    1.7030 C.ar  141  PHE141     -0.0000
@<TRIPOS>BOND
     1    28    27    2
     2    27    26    1
     3    31    29    1
     4    29    26    1
     5    29    30    1
     6    26    25    1
     7    61    59    1
     8    58    59    2
     9    58    57    1
    10    59    60    1
    11    56    57    1
    12    56    55    1
    13    55    52    1
    14    51    52    1
    15    52    53    1
    16    23    22   ar
    17    53    54    2
    18    20    19    2
    19    24    22   ar
    20    70    71   ar
    21    70    68   ar
    22    22    21    1
    23    19    18    1
    24    71    69   ar
    25    82    81    2
    26    68    67   ar
    27    32    33    1
    28    88    89   ar
    29    88    86   ar
    30    33    34    1
    31    89    87   ar
    32    21    18    1
    33    18    17    1
    34    81    80    1
    35    69    67   ar
    36    67    66    1
    37    86    84   ar
    38    87    85   ar
    39    62    63    1
    40    34    35    2
    41    63    66    1
    42    63    64    1
    43    84    85   ar
    44    84    83    1
    45    79    80    1
    46    80    83    1
    47    64    65    2
    48    12    11    2
    49    43    41    1
    50    15    14    1
    51    11    10    1
    52    41    42    1
    53    41    40    1
    54    36    37    1
    55    37    40    1
    56    37    38    1
    57    14    13    1
    58    14    16    1
    59    72    73    1
    60    10     9    1
    61    10    13    1
    62    78    76    1
    63    38    39    2
    64    73    76    1
    65    73    74    1
    66    76    77    1
    67    74    75    2
    68     4     3    2
    69     3     2    1
    70    44    45    1
    71    45    46    1
    72    45    48    1
    73    50    48    1
    74    46    47    2
    75     2     1    1
    76     2     5    1
    77     7     5    1
    78     5     6    1
    79    48    49    1
    80     6     8    1
