@<TRIPOS>MOLECULE
tmp/2x6wA00.pdb
 190 183 0 0 0
SMALL
GASTEIGER

@<TRIPOS>ATOM
      1  N          4.3060  -15.9870   18.2850 N.3    99  GLY99      -0.1210
      2  CA         3.7700  -15.9180   19.6380 C.3    99  GLY99       0.1956
      3  C          4.7800  -15.4480   20.6810 C.2    99  GLY99       0.2611
      4  O          4.3920  -15.0670   21.7950 O.2    99  GLY99      -0.2717
      5  N          6.0600  -15.4580   20.3120 N.am  100  HIS100     -0.1975
      6  CA         7.1690  -15.0130   21.1530 C.3   100  HIS100      0.1656
      7  C          7.7560  -13.6830   20.6720 C.2   100  HIS100      0.2291
      8  O          8.8550  -13.3180   21.0580 O.2   100  HIS100     -0.2864
      9  CB         8.2800  -16.0660   21.1290 C.3   100  HIS100      0.0771
     10  CG         7.8190  -17.4390   21.5000 C.ar  100  HIS100      0.0820
     11  ND1        7.7610  -17.8720   22.8050 N.ar  100  HIS100     -0.2267
     12  CD2        7.3720  -18.4690   20.7410 C.ar  100  HIS100      0.1154
     13  CE1        7.3120  -19.1150   22.8300 C.ar  100  HIS100      0.1986
     14  NE2        7.0400  -19.4890   21.5930 N.ar  100  HIS100     -0.2212
     15  N         11.9320  -10.8080   20.5310 N.3   130  GLN130     -0.1245
     16  CA        12.9470  -11.7760   20.9510 C.3   130  GLN130      0.1566
     17  C         13.7210  -12.0650   19.6850 C.2   130  GLN130      0.2260
     18  O         13.1640  -12.5740   18.7190 O.2   130  GLN130     -0.2867
     19  CB        12.2970  -13.0040   21.5740 C.3   130  GLN130      0.0367
     20  CG        11.4310  -12.6390   22.7950 C.3   130  GLN130      0.0905
     21  CD        11.1080  -13.8310   23.6530 C.2   130  GLN130      0.2608
     22  OE1       12.0030  -14.5720   24.1020 O.2   130  GLN130     -0.2717
     23  NE2        9.8320  -14.0030   23.9440 N.am  130  GLN130     -0.0878
     24  N         12.0450  -21.9650   20.1970 N.3   135  PHE135     -0.1241
     25  CA        10.7180  -22.5840   20.1880 C.3   135  PHE135      0.1605
     26  C         10.2190  -22.6790   18.7450 C.2   135  PHE135      0.2264
     27  O         10.5410  -21.8300   17.9160 O.2   135  PHE135     -0.2867
     28  CB         9.6850  -21.7880   20.9860 C.3   135  PHE135      0.0534
     29  CG         9.9870  -21.6440   22.4660 C.ar  135  PHE135     -0.0203
     30  CD1        9.7780  -22.6840   23.3320 C.ar  135  PHE135     -0.0042
     31  CD2       10.4200  -20.4310   22.9950 C.ar  135  PHE135     -0.0042
     32  CE1       10.0200  -22.5380   24.6930 C.ar  135  PHE135     -0.0003
     33  CE2       10.6370  -20.2820   24.3430 C.ar  135  PHE135     -0.0003
     34  CZ        10.4340  -21.3220   25.1940 C.ar  135  PHE135     -0.0000
     35  N          4.0270  -21.2510   19.2360 N.3   138  GLY138     -0.1225
     36  CA         3.6780  -20.1020   20.0900 C.3   138  GLY138      0.1811
     37  C          3.3660  -20.5070   21.5200 C.2   138  GLY138      0.2280
     38  O          3.4820  -19.7130   22.4350 O.2   138  GLY138     -0.2866
     39  N          4.7830  -22.7540   24.3600 N.3   140  PRO140     -0.2116
     40  CA         5.9640  -23.5590   24.6870 C.3   140  PRO140      0.1372
     41  C          5.6960  -25.0170   25.0580 C.2   140  PRO140      0.2244
     42  O          6.5080  -25.8820   24.7220 O.2   140  PRO140     -0.2868
     43  CB         6.6190  -22.7930   25.8480 C.3   140  PRO140      0.0268
     44  CG         5.6720  -21.7490   26.2610 C.3   140  PRO140      0.0207
     45  CD         4.7380  -21.4940   25.1190 C.3   140  PRO140      0.0892
     46  N          7.8240   -7.8000   26.6320 N.3   170  LEU170     -0.1245
     47  CA         9.0210   -8.5920   26.8840 C.3   170  LEU170      0.1561
     48  C          9.9880   -8.3990   25.7240 C.2   170  LEU170      0.2260
     49  O          9.5810   -8.2840   24.5530 O.2   170  LEU170     -0.2867
     50  CB         8.6830  -10.0830   27.0390 C.3   170  LEU170      0.0270
     51  CG         7.7400  -10.4720   28.1950 C.3   170  LEU170      0.0019
     52  CD1        7.2540  -11.9330   28.0750 C.3   170  LEU170      0.0001
     53  CD2        8.4170  -10.1850   29.5670 C.3   170  LEU170      0.0001
     54  N         14.0360   -9.9470   24.4950 N.3   172  ASN172     -0.1240
     55  CA        15.1030  -10.9320   24.6900 C.3   172  ASN172      0.1653
     56  C         16.0590  -10.9150   23.4940 C.2   172  ASN172      0.2266
     57  O         15.6610  -10.5700   22.3690 O.2   172  ASN172     -0.2867
     58  CB        14.4460  -12.3290   24.8220 C.3   172  ASN172      0.1155
     59  CG        15.3370  -13.4030   25.4590 C.2   172  ASN172      0.2627
     60  OD1       16.4660  -13.1640   25.9090 O.2   172  ASN172     -0.2716
     61  ND2       14.7950  -14.6160   25.5110 N.am  172  ASN172     -0.0877
     62  N         14.2860   -7.3110   28.6930 N.3   195  THR195     -0.1203
     63  CA        13.9720   -8.1320   29.8610 C.3   195  THR195      0.1994
     64  C         15.1150   -9.0920   30.1920 C.2   195  THR195      0.2617
     65  O         15.5500   -9.2110   31.3600 O.2   195  THR195     -0.2717
     66  CB        12.6750   -8.9300   29.6570 C.3   195  THR195      0.1784
     67  OG1       11.6670   -8.0880   29.0980 O.3   195  THR195     -0.2211
     68  CG2       12.2120   -9.5430   30.9680 C.3   195  THR195      0.0376
     69  N         15.5860   -9.7720   29.1560 N.am  196  TRP196     -0.1975
     70  CA        16.7130  -10.7130   29.2700 C.3   196  TRP196      0.1640
     71  C         17.5980  -10.5120   28.0410 C.2   196  TRP196      0.2290
     72  O         17.1050  -10.0520   27.0050 O.2   196  TRP196     -0.2864
     73  CB        16.2210  -12.1640   29.2510 C.3   196  TRP196      0.0576
     74  CG        15.0710  -12.4730   30.1450 C.ar  196  TRP196      0.0006
     75  CD1       15.0980  -12.6410   31.4940 C.ar  196  TRP196      0.0946
     76  CD2       13.7200  -12.7040   29.7380 C.ar  196  TRP196      0.0152
     77  NE1       13.8460  -12.9440   31.9640 N.ar  196  TRP196     -0.2442
     78  CE2       12.9830  -13.0040   30.8990 C.ar  196  TRP196      0.0810
     79  CE3       13.0610  -12.6930   28.5070 C.ar  196  TRP196      0.0012
     80  CZ2       11.6180  -13.2820   30.8600 C.ar  196  TRP196      0.0191
     81  CZ3       11.7040  -12.9470   28.4750 C.ar  196  TRP196      0.0001
     82  CH2       10.9980  -13.2300   29.6460 C.ar  196  TRP196      0.0015
     83  N         17.9680  -16.5760   27.4510 N.3   199  THR199     -0.1218
     84  CA        17.2390  -17.5100   28.2750 C.3   199  THR199      0.1862
     85  C         17.6010  -18.9160   27.7640 C.2   199  THR199      0.2287
     86  O         17.6780  -19.1670   26.5540 O.2   199  THR199     -0.2866
     87  CB        15.7120  -17.2610   28.3050 C.3   199  THR199      0.1770
     88  OG1       15.1710  -17.5190   27.0060 O.3   199  THR199     -0.2211
     89  CG2       15.3870  -15.8250   28.7700 C.3   199  THR199      0.0375
     90  N         16.5520  -23.0080   28.1890 N.3   201  GLY201     -0.1210
     91  CA        15.5470  -23.9160   28.6880 C.3   201  GLY201      0.1956
     92  C         14.1660  -23.3080   28.7740 C.2   201  GLY201      0.2612
     93  O         13.9680  -22.0950   28.5460 O.2   201  GLY201     -0.2717
     94  N         13.2150  -24.1550   29.1630 N.am  202  TRP202     -0.1962
     95  CA        11.8380  -23.7410   29.4080 C.3   202  TRP202      0.1771
     96  C         11.2490  -24.6420   30.4780 C.2   202  TRP202      0.2619
     97  O         11.0740  -25.8340   30.2530 O.2   202  TRP202     -0.2715
     98  CB        10.9490  -23.7940   28.1430 C.3   202  TRP202      0.0590
     99  CG         9.5490  -23.4160   28.4910 C.ar  202  TRP202      0.0006
    100  CD1        9.0960  -22.1690   28.8550 C.ar  202  TRP202      0.0946
    101  CD2        8.4360  -24.2990   28.6450 C.ar  202  TRP202      0.0152
    102  NE1        7.7710  -22.2380   29.1720 N.ar  202  TRP202     -0.2442
    103  CE2        7.3430  -23.5290   29.0610 C.ar  202  TRP202      0.0810
    104  CE3        8.2560  -25.6710   28.4560 C.ar  202  TRP202      0.0012
    105  CZ2        6.0840  -24.0800   29.2860 C.ar  202  TRP202      0.0191
    106  CZ3        7.0190  -26.2100   28.6780 C.ar  202  TRP202      0.0001
    107  CH2        5.9540  -25.4180   29.0940 C.ar  202  TRP202      0.0015
    108  N         11.0090  -24.0750   31.6590 N.am  203  ASN203     -0.1972
    109  CA        10.3530  -24.7810   32.7770 C.3   203  ASN203      0.1688
    110  C         10.9450  -26.1760   33.0220 C.2   203  ASN203      0.2292
    111  O         10.2380  -27.1550   33.2340 O.2   203  ASN203     -0.2864
    112  CB         8.8240  -24.7740   32.5910 C.3   203  ASN203      0.1181
    113  CG         8.2450  -23.4070   32.7060 C.2   203  ASN203      0.2629
    114  OD1        8.9640  -22.4350   32.9670 O.2   203  ASN203     -0.2716
    115  ND2        6.9410  -23.3070   32.5080 N.am  203  ASN203     -0.0877
    116  N         10.1370   -3.0160   33.2180 N.3   226  ALA226     -0.1231
    117  CA         9.5840   -3.5490   34.4740 C.3   226  ALA226      0.1694
    118  C         10.5970   -4.2920   35.3130 C.2   226  ALA226      0.2592
    119  O         10.4650   -4.3270   36.5270 O.2   226  ALA226     -0.2718
    120  CB         8.4570   -4.4940   34.1730 C.3   226  ALA226      0.0304
    121  N         11.5420   -4.9700   34.6600 N.am  227  ASP227     -0.1974
    122  CA        12.4030   -5.9630   35.3370 C.3   227  ASP227      0.1709
    123  C         13.4280   -6.4660   34.3420 C.2   227  ASP227      0.2293
    124  O         13.1200   -6.5510   33.1590 O.2   227  ASP227     -0.2864
    125  CB        11.5140   -7.1280   35.8340 C.3   227  ASP227      0.1436
    126  CG        12.1650   -7.9960   36.8640 C.2   227  ASP227      0.3671
    127  OD1       13.3120   -7.7330   37.2670 O.co2 227  ASP227     -0.2456
    128  OD2       11.4830   -8.9440   37.3190 O.co2 227  ASP227     -0.2456
    129  N         18.6880  -16.0440   32.0930 N.3   232  TYR232     -0.1241
    130  CA        17.7670  -16.8620   32.8730 C.3   232  TYR232      0.1605
    131  C         18.0300  -18.3330   32.5400 C.2   232  TYR232      0.2264
    132  O         17.8430  -18.7660   31.3950 O.2   232  TYR232     -0.2867
    133  CB        16.3320  -16.4620   32.5220 C.3   232  TYR232      0.0534
    134  CG        15.2210  -16.7580   33.5180 C.ar  232  TYR232     -0.0201
    135  CD1       14.8180  -18.0480   33.8170 C.ar  232  TYR232     -0.0009
    136  CD2       14.5250  -15.7250   34.1050 C.ar  232  TYR232     -0.0009
    137  CE1       13.7760  -18.2860   34.6830 C.ar  232  TYR232      0.0417
    138  CE2       13.4950  -15.9590   34.9660 C.ar  232  TYR232      0.0417
    139  CZ        13.1120  -17.2310   35.2620 C.ar  232  TYR232      0.1957
    140  OH        12.0070  -17.4450   36.0840 O.3   232  TYR232     -0.2866
    141  N         16.9240  -21.8910   32.9110 N.3   234  ASN234     -0.1240
    142  CA        15.6970  -22.6060   33.2330 C.3   234  ASN234      0.1653
    143  C         15.7440  -24.0390   32.7020 C.2   234  ASN234      0.2266
    144  O         14.7250  -24.6300   32.3950 O.2   234  ASN234     -0.2867
    145  CB        14.4550  -21.8760   32.6860 C.3   234  ASN234      0.1155
    146  CG        13.2150  -22.1110   33.5230 C.2   234  ASN234      0.2627
    147  OD1       13.2440  -22.7590   34.5550 O.2   234  ASN234     -0.2716
    148  ND2       12.0930  -21.5720   33.0520 N.am  234  ASN234     -0.0877
    149  N         17.6080  -21.4270   38.1010 N.3   262  HIS262     -0.1241
    150  CA        16.2710  -21.8710   38.4520 C.3   262  HIS262      0.1621
    151  C         16.0210  -23.3790   38.2780 C.2   262  HIS262      0.2264
    152  O         14.8780  -23.8250   38.4040 O.2   262  HIS262     -0.2867
    153  CB        15.2110  -21.0960   37.6460 C.3   262  HIS262      0.0745
    154  CG        14.9100  -19.7440   38.1900 C.ar  262  HIS262      0.0817
    155  ND1       13.6510  -19.1930   38.1130 N.ar  262  HIS262     -0.2268
    156  CD2       15.6930  -18.8130   38.7960 C.ar  262  HIS262      0.1154
    157  CE1       13.6700  -17.9950   38.6780 C.ar  262  HIS262      0.1986
    158  NE2       14.9070  -17.7270   39.0640 N.ar  262  HIS262     -0.2212
    159  N         11.0300  -22.1510   41.4820 N.3   285  HIS285     -0.1241
    160  CA         9.6200  -21.8000   41.3050 C.3   285  HIS285      0.1621
    161  C          8.8320  -23.0760   41.0270 C.2   285  HIS285      0.2264
    162  O          9.1020  -23.7960   40.0360 O.2   285  HIS285     -0.2867
    163  CB         9.4150  -20.8980   40.0940 C.3   285  HIS285      0.0745
    164  CG         9.7370  -19.4470   40.3100 C.ar  285  HIS285      0.0817
    165  ND1        9.3560  -18.7340   41.4230 N.ar  285  HIS285     -0.2268
    166  CD2       10.3170  -18.5460   39.4720 C.ar  285  HIS285      0.1154
    167  CE1        9.7110  -17.4660   41.2730 C.ar  285  HIS285      0.1986
    168  NE2       10.2740  -17.3140   40.0880 N.ar  285  HIS285     -0.2212
    169  N          6.0370  -23.1220   39.6990 N.3   287  ALA287     -0.1231
    170  CA         5.4420  -22.9470   38.3790 C.3   287  ALA287      0.1694
    171  C          6.3840  -23.3490   37.2290 C.2   287  ALA287      0.2591
    172  O          5.9510  -23.4730   36.0810 O.2   287  ALA287     -0.2718
    173  CB         4.9560  -21.5000   38.1900 C.3   287  ALA287      0.0304
    174  N          7.6580  -23.5950   37.5390 N.am  288  GLU288     -0.1979
    175  CA         8.6810  -23.9740   36.5490 C.3   288  GLU288      0.1602
    176  C          9.1940  -25.4100   36.6940 C.2   288  GLU288      0.2287
    177  O         10.1790  -25.7670   36.0750 O.2   288  GLU288     -0.2864
    178  CB         9.8690  -23.0100   36.6320 C.3   288  GLU288      0.0415
    179  CG         9.4980  -21.5650   36.2640 C.3   288  GLU288      0.1163
    180  CD        10.6410  -20.5600   36.3620 C.2   288  GLU288      0.3649
    181  OE1       11.5750  -20.7690   37.1760 O.co2 288  GLU288     -0.2457
    182  OE2       10.5340  -19.5330   35.6880 O.co2 288  GLU288     -0.2457
    183  N          6.7900  -13.9570   45.0800 N.3   359  ASN359     -0.1240
    184  CA         6.3870  -12.8130   44.2700 C.3   359  ASN359      0.1653
    185  C          5.1010  -12.1460   44.7710 C.2   359  ASN359      0.2266
    186  O          4.8170  -11.0300   44.3800 O.2   359  ASN359     -0.2867
    187  CB         6.2590  -13.2100   42.7840 C.3   359  ASN359      0.1155
    188  CG         7.5960  -13.2190   42.0580 C.2   359  ASN359      0.2627
    189  OD1        8.4440  -12.3580   42.3070 O.2   359  ASN359     -0.2716
    190  ND2        7.7890  -14.1830   41.1370 N.am  359  ASN359     -0.0877
@<TRIPOS>BOND
     1    27    26    2
     2     1     2    1
     3    18    17    2
     4    26    25    1
     5    35    36    1
     6     2     3    1
     7    17    16    1
     8    36    37    1
     9    25    24    1
    10    25    28    1
    11     5     3   am
    12     5     6    1
    13    15    16    1
    14     7     8    2
    15     7     6    1
    16     3     4    2
    17    12    10   ar
    18    12    14   ar
    19    16    19    1
    20    28    29    1
    21     9     6    1
    22     9    10    1
    23    10    11   ar
    24    37    38    2
    25    19    20    1
    26    14    13   ar
    27    57    56    2
    28    29    31   ar
    29    29    30   ar
    30    20    21    1
    31    11    13   ar
    32    31    33   ar
    33    30    32   ar
    34    56    55    1
    35    21    23   am
    36    21    22    2
    37    33    34   ar
    38    39    40    1
    39    39    45    1
    40    54    55    1
    41    49    48    2
    42    40    41    1
    43    40    43    1
    44    55    58    1
    45    32    34   ar
    46    42    41    2
    47    58    59    1
    48    45    44    1
    49    59    61   am
    50    59    60    2
    51    48    47    1
    52    43    44    1
    53    86    85    2
    54    46    47    1
    55    47    50    1
    56    72    71    2
    57    88    87    1
    58    50    51    1
    59    83    84    1
    60    85    84    1
    61    71    70    1
    62    52    51    1
    63    98    99    1
    64    98    95    1
    65    90    91    1
    66    51    53    1
    67    84    87    1
    68    87    89    1
    69   104   101   ar
    70   104   106   ar
    71    81    79   ar
    72    81    82   ar
    73    99   101   ar
    74    99   100   ar
    75    79    76   ar
    76    93    92    2
    77   101   103   ar
    78   106   107   ar
    79    91    92    1
    80    62    63    1
    81    92    94   am
    82   100   102   ar
    83   103   102   ar
    84   103   105   ar
    85   107   105   ar
    86    67    66    1
    87    69    70    1
    88    69    64   am
    89    94    95    1
    90    73    70    1
    91    73    74    1
    92    95    96    1
    93    82    80   ar
    94    66    63    1
    95    66    68    1
    96    76    74   ar
    97    76    78   ar
    98    63    64    1
    99    74    75   ar
   100    64    65    2
   101    97    96    2
   102    96   108   am
   103    80    78   ar
   104    78    77   ar
   105   132   131    2
   106    75    77   ar
   107   108   109    1
   108   129   130    1
   109   144   143    2
   110   115   113   am
   111   133   130    1
   112   133   134    1
   113   131   130    1
   114   112   113    1
   115   112   109    1
   116   145   142    1
   117   145   146    1
   118   143   142    1
   119   113   114    2
   120   109   110    1
   121   141   142    1
   122   110   111    2
   123   148   146   am
   124   124   123    2
   125   116   117    1
   126   134   135   ar
   127   134   136   ar
   128   146   147    2
   129   135   137   ar
   130   136   138   ar
   131   120   117    1
   132   123   122    1
   133   117   118    1
   134   121   118   am
   135   121   122    1
   136   137   139   ar
   137   138   139   ar
   138   139   140    1
   139   118   119    2
   140   122   125    1
   141   182   180   ar
   142   125   126    1
   143   177   176    2
   144   172   171    2
   145   179   180    1
   146   179   178    1
   147   180   181   ar
   148   175   178    1
   149   175   176    1
   150   175   174    1
   151   126   127   ar
   152   126   128   ar
   153   171   174   am
   154   171   170    1
   155   153   154    1
   156   153   150    1
   157   149   150    1
   158   155   154   ar
   159   155   157   ar
   160   154   156   ar
   161   173   170    1
   162   151   152    2
   163   151   150    1
   164   170   169    1
   165   157   158   ar
   166   156   158   ar
   167   166   168   ar
   168   166   164   ar
   169   162   161    2
   170   168   167   ar
   171   163   164    1
   172   163   160    1
   173   164   165   ar
   174   161   160    1
   175   190   188   am
   176   167   165   ar
   177   160   159    1
   178   188   189    2
   179   188   187    1
   180   187   184    1
   181   184   185    1
   182   184   183    1
   183   186   185    2
