@<TRIPOS>MOLECULE
tmp/2x71A00.pdb
 137 129 0 0 0
SMALL
GASTEIGER

@<TRIPOS>ATOM
      1  N         23.3420    3.6030   14.8870 N.3    38  ALA38      -0.1231
      2  CA        23.2560    2.3090   14.2050 C.3    38  ALA38       0.1694
      3  C         21.9940    1.5360   14.6640 C.2    38  ALA38       0.2592
      4  O         20.9480    2.1510   14.8990 O.2    38  ALA38      -0.2718
      5  CB        24.5710    1.5050   14.3680 C.3    38  ALA38       0.0304
      6  N         22.0630    0.2220   14.8180 N.am   39  SER39      -0.1952
      7  CA        20.8130   -0.5430   15.0550 C.3    39  SER39       0.1924
      8  C         20.1320   -0.3570   16.4170 C.2    39  SER39       0.2314
      9  O         19.0600   -0.9240   16.6390 O.2    39  SER39      -0.2863
     10  CB        21.0060   -2.0240   14.7740 C.3    39  SER39       0.2116
     11  OG        21.2950   -2.2410   13.4060 O.3    39  SER39      -0.2180
     12  N         16.5390    0.5590   16.4200 N.3    42  LYS42      -0.1245
     13  CA        15.4930   -0.4560   16.3130 C.3    42  LYS42       0.1561
     14  C         14.6150   -0.5300   17.5630 C.2    42  LYS42       0.2260
     15  O         13.4050   -0.7010   17.4450 O.2    42  LYS42      -0.2867
     16  CB        16.0820   -1.8170   15.9290 C.3    42  LYS42       0.0271
     17  CG        16.6430   -1.8430   14.4750 C.3    42  LYS42       0.0035
     18  CD        17.0000   -3.2580   14.0130 C.3    42  LYS42       0.0206
     19  CE        17.4470   -3.2850   12.5610 C.3    42  LYS42       0.1093
     20  NZ        18.9120   -3.3120   12.4610 N.3    42  LYS42      -0.1314
     21  N         20.7810   -5.1980    3.4430 N.3    71  ASN71      -0.1225
     22  CA        22.0830   -5.8410    3.6620 C.3    71  ASN71       0.1785
     23  C         22.1490   -6.8770    4.7850 C.2    71  ASN71       0.2597
     24  O         23.1070   -7.6470    4.8610 O.2    71  ASN71      -0.2718
     25  CB        23.1170   -4.7670    3.9860 C.3    71  ASN71       0.1169
     26  CG        22.8270   -4.0810    5.3020 C.2    71  ASN71       0.2627
     27  OD1       21.6860   -3.6970    5.5670 O.2    71  ASN71      -0.2716
     28  ND2       23.8490   -3.9410    6.1450 N.am   71  ASN71      -0.0877
     29  N         21.1800   -6.8650    5.6860 N.am   72  TYR72      -0.1976
     30  CA        21.2110   -7.7560    6.8460 C.3    72  TYR72       0.1639
     31  C         19.7940   -8.0940    7.2740 C.2    72  TYR72       0.2290
     32  O         19.1910   -7.4050    8.1000 O.2    72  TYR72      -0.2864
     33  CB        21.9980   -7.1210    8.0020 C.3    72  TYR72       0.0560
     34  CG        22.3250   -8.0930    9.1010 C.ar   72  TYR72      -0.0198
     35  CD1       23.3140   -9.0710    8.9220 C.ar   72  TYR72      -0.0009
     36  CD2       21.6350   -8.0590   10.3170 C.ar   72  TYR72      -0.0009
     37  CE1       23.6150   -9.9800    9.9380 C.ar   72  TYR72       0.0417
     38  CE2       21.9290   -8.9610   11.3410 C.ar   72  TYR72       0.0417
     39  CZ        22.9190   -9.9160   11.1450 C.ar   72  TYR72       0.1957
     40  OH        23.2100  -10.8080   12.1510 O.3    72  TYR72      -0.2866
     41  N         18.2940   -8.0330   14.8680 N.3    97  SER97      -0.1217
     42  CA        18.7100   -6.7920   14.2110 C.3    97  SER97       0.1889
     43  C         18.4470   -6.8590   12.7030 C.2    97  SER97       0.2288
     44  O         19.2460   -6.3960   11.8970 O.2    97  SER97      -0.2866
     45  CB        20.1750   -6.4790   14.5210 C.3    97  SER97       0.2089
     46  OG        20.4140   -5.0870   14.4700 O.3    97  SER97      -0.2183
     47  N         17.3730   -5.7060    9.4170 N.3    99  ASN99      -0.1240
     48  CA        17.3080   -4.3630    8.8270 C.3    99  ASN99       0.1653
     49  C         16.0570   -4.1220    7.9930 C.2    99  ASN99       0.2266
     50  O         15.4960   -3.0440    8.0240 O.2    99  ASN99      -0.2867
     51  CB        18.5440   -4.0980    7.9710 C.3    99  ASN99       0.1155
     52  CG        19.7390   -3.6610    8.7820 C.2    99  ASN99       0.2627
     53  OD1       19.6350   -3.3610    9.9770 O.2    99  ASN99      -0.2716
     54  ND2       20.8890   -3.6090    8.1340 N.am   99  ASN99      -0.0877
     55  N         17.6240    1.6870    6.9570 N.3   133  GLU133     -0.1231
     56  CA        18.7860    0.8070    6.9400 C.3   133  GLU133      0.1684
     57  C         19.0660    0.4090    5.4940 C.2   133  GLU133      0.2434
     58  O         18.1290    0.2640    4.7040 O.2   133  GLU133     -0.2733
     59  CB        18.5520   -0.4580    7.7960 C.3   133  GLU133      0.0402
     60  CG        18.0460   -0.2290    9.2310 C.3   133  GLU133      0.1161
     61  CD        19.1250   -0.1710   10.3170 C.2   133  GLU133      0.3649
     62  OE1       20.3240   -0.0390    9.9780 O.co2 133  GLU133     -0.2457
     63  OE2       18.7440   -0.2470   11.5370 O.co2 133  GLU133     -0.2457
     64  N         20.3530    0.2050    5.1400 N.am  134  PRO134     -0.2729
     65  CA        21.5380    0.3400    5.9890 C.3   134  PRO134      0.1401
     66  C         22.2270    1.7020    5.9180 C.2   134  PRO134      0.2269
     67  O         23.2790    1.8650    6.5110 O.2   134  PRO134     -0.2865
     68  CB        22.4860   -0.6870    5.3850 C.3   134  PRO134      0.0296
     69  CG        22.2120   -0.5710    3.9110 C.3   134  PRO134      0.0237
     70  CD        20.7200   -0.2750    3.7870 C.3   134  PRO134      0.0939
     71  N         23.7300    4.0240    8.6070 N.3   137  ASN137     -0.1240
     72  CA        25.0710    3.7390    9.1090 C.3   137  ASN137      0.1653
     73  C         26.1390    4.6410    8.4760 C.2   137  ASN137      0.2266
     74  O         27.2350    4.7650    9.0120 O.2   137  ASN137     -0.2867
     75  CB        25.4260    2.2540    8.9310 C.3   137  ASN137      0.1155
     76  CG        24.4860    1.3380    9.6820 C.2   137  ASN137      0.2627
     77  OD1       24.4510    1.3320   10.9080 O.2   137  ASN137     -0.2716
     78  ND2       23.7100    0.5510    8.9440 N.am  137  ASN137     -0.0877
     79  N         21.7530  -11.0530   19.6780 N.3   183  THR183     -0.1218
     80  CA        22.9570  -10.3530   19.1750 C.3   183  THR183      0.1862
     81  C         23.8920   -9.7540   20.2350 C.2   183  THR183      0.2287
     82  O         24.9770   -9.2850   19.9050 O.2   183  THR183     -0.2866
     83  CB        22.5950   -9.2170   18.1500 C.3   183  THR183      0.1770
     84  OG1       22.0060   -8.1030   18.8340 O.3   183  THR183     -0.2211
     85  CG2       21.6160   -9.7150   17.0950 C.3   183  THR183      0.0375
     86  N         19.6680   -3.8050   23.0460 N.3   201  LYS201     -0.1231
     87  CA        19.6970   -3.7310   21.5930 C.3   201  LYS201      0.1693
     88  C         21.0690   -3.2110   21.1740 C.2   201  LYS201      0.2593
     89  O         21.5440   -2.2020   21.6800 O.2   201  LYS201     -0.2718
     90  CB        18.5790   -2.8400   21.0290 C.3   201  LYS201      0.0285
     91  CG        18.6130   -2.7260   19.5070 C.3   201  LYS201      0.0035
     92  CD        18.0830   -3.9900   18.8270 C.3   201  LYS201      0.0206
     93  CE        18.4850   -4.0620   17.3490 C.3   201  LYS201      0.1093
     94  NZ        19.9100   -4.4030   17.2240 N.3   201  LYS201     -0.1314
     95  N         21.7000   -3.9570   20.2760 N.am  202  THR202     -0.1939
     96  CA        23.0450   -3.6880   19.8080 C.3   202  THR202      0.2028
     97  C         23.0030   -2.8000   18.5650 C.2   202  THR202      0.2643
     98  O         21.9760   -2.6860   17.8990 O.2   202  THR202     -0.2714
     99  CB        23.7300   -5.0150   19.4120 C.3   202  THR202      0.1808
    100  OG1       22.8420   -5.7440   18.5620 O.3   202  THR202     -0.2208
    101  CG2       24.0280   -5.8810   20.6510 C.3   202  THR202      0.0379
    102  N         24.1330   -2.1750   18.2670 N.am  203  GLY203     -0.1939
    103  CA        24.3240   -1.4880   17.0100 C.3   203  GLY203      0.2014
    104  C         25.7500   -1.7280   16.5490 C.2   203  GLY203      0.2639
    105  O         26.6510   -1.9420   17.3610 O.2   203  GLY203     -0.2714
    106  N         25.9350   -1.7100   15.2340 N.am  204  ALA204     -0.1963
    107  CA        27.2540   -1.7630   14.6180 C.3   204  ALA204      0.1728
    108  C         27.2120   -0.8240   13.4160 C.2   204  ALA204      0.2616
    109  O         26.2780   -0.8760   12.6370 O.2   204  ALA204     -0.2715
    110  CB        27.6130   -3.2100   14.1940 C.3   204  ALA204      0.0334
    111  N         28.1970    0.0550   13.2930 N.am  205  GLY205     -0.1955
    112  CA        28.1620    1.1040   12.2560 C.3   205  GLY205      0.1869
    113  C         29.5260    1.3230   11.6190 C.2   205  GLY205      0.2309
    114  O         30.4630    0.5710   11.8980 O.2   205  GLY205     -0.2863
    115  N         30.2640    0.6030   17.6620 N.3   210  ARG210     -0.1245
    116  CA        29.7620   -0.5770   18.3190 C.3   210  ARG210      0.1563
    117  C         29.0490   -0.1530   19.5850 C.2   210  ARG210      0.2260
    118  O         29.6750    0.3000   20.5350 O.2   210  ARG210     -0.2867
    119  CB        30.8900   -1.5520   18.6440 C.3   210  ARG210      0.0307
    120  CG        30.4080   -2.8960   19.1730 C.3   210  ARG210      0.0489
    121  CD        29.4040   -3.5400   18.2220 C.3   210  ARG210      0.2205
    122  NE        29.2600   -4.9780   18.4440 N.pl3 210  ARG210     -0.0865
    123  CZ        28.2160   -5.6980   18.0400 C.cat 210  ARG210      0.5346
    124  NH1       27.2030   -5.1070   17.4350 N.pl3 210  ARG210      0.1354
    125  NH2       28.1720   -7.0140   18.2650 N.pl3 210  ARG210      0.1354
    126  N         35.4400   -3.2910   15.1020 N.3   239  TYR239     -0.1241
    127  CA        35.2080   -3.1470   16.5260 C.3   239  TYR239      0.1605
    128  C         35.6230   -4.3900   17.2930 C.2   239  TYR239      0.2264
    129  O         35.7930   -5.4830   16.7360 O.2   239  TYR239     -0.2867
    130  CB        33.7460   -2.7790   16.8310 C.3   239  TYR239      0.0534
    131  CG        32.7330   -3.7470   16.2770 C.ar  239  TYR239     -0.0201
    132  CD1       32.4850   -4.9710   16.9090 C.ar  239  TYR239     -0.0009
    133  CD2       32.0310   -3.4540   15.1060 C.ar  239  TYR239     -0.0009
    134  CE1       31.5510   -5.8750   16.3880 C.ar  239  TYR239      0.0417
    135  CE2       31.0950   -4.3500   14.5770 C.ar  239  TYR239      0.0417
    136  CZ        30.8500   -5.5450   15.2290 C.ar  239  TYR239      0.1957
    137  OH        29.9230   -6.4230   14.7140 O.3   239  TYR239     -0.2866
@<TRIPOS>BOND
     1    21    22    1
     2    22    25    1
     3    22    23    1
     4    70    69    1
     5    70    64    1
     6    69    68    1
     7    25    26    1
     8    58    57    2
     9    23    24    2
    10    23    29   am
    11    64    57   am
    12    64    65    1
    13    26    27    2
    14    26    28   am
    15    68    65    1
    16    57    56    1
    17    29    30    1
    18    66    65    1
    19    66    67    2
    20    30    31    1
    21    30    33    1
    22    56    55    1
    23    56    59    1
    24    31    32    2
    25    59    60    1
    26    51    52    1
    27    51    48    1
    28    49    50    2
    29    49    48    1
    30    33    34    1
    31    54    52   am
    32    73    74    2
    33    73    72    1
    34    71    72    1
    35    52    53    2
    36    48    47    1
    37    35    34   ar
    38    35    37   ar
    39    75    72    1
    40    75    76    1
    41    78    76   am
    42    34    36   ar
    43    60    61    1
    44    76    77    2
    45    37    39   ar
    46    62    61   ar
    47    36    38   ar
    48    61    63   ar
    49    39    38   ar
    50    39    40    1
    51   113   114    2
    52   113   112    1
    53    44    43    2
    54   112   111    1
    55    20    19    1
    56    19    18    1
    57   109   108    2
    58    43    42    1
    59   111   108   am
    60    11    10    1
    61   108   107    1
    62    18    17    1
    63   110   107    1
    64     2     5    1
    65     2     3    1
    66     2     1    1
    67    42    45    1
    68    42    41    1
    69    46    45    1
    70    17    16    1
    71   135   133   ar
    72   135   136   ar
    73   107   106    1
    74     3     6   am
    75     3     4    2
    76   137   136    1
    77    10     7    1
    78     6     7    1
    79     7     8    1
    80   126   127    1
    81   133   131   ar
    82   136   134   ar
    83   106   104   am
    84    16    13    1
    85   131   130    1
    86   131   132   ar
    87    13    12    1
    88    13    14    1
    89   134   132   ar
    90     8     9    2
    91   127   130    1
    92   127   128    1
    93   104   103    1
    94   104   105    2
    95   129   128    2
    96   103   102    1
    97    85    83    1
    98    94    93    1
    99    93    92    1
   100   124   123    1
   101    15    14    2
   102   115   116    1
   103    98    97    2
   104   123   125    1
   105   123   122    2
   106    83    84    1
   107    83    80    1
   108   121   122    1
   109   121   120    1
   110   102    97   am
   111   116   119    1
   112   116   117    1
   113   100    99    1
   114    97    96    1
   115   119   120    1
   116    92    91    1
   117    80    79    1
   118    80    81    1
   119    99    96    1
   120    99   101    1
   121    91    90    1
   122   117   118    2
   123    96    95    1
   124    82    81    2
   125    95    88   am
   126    90    87    1
   127    88    87    1
   128    88    89    2
   129    87    86    1
