@<TRIPOS>MOLECULE
tmp/2x77A00.pdb
 116 110 0 0 0
SMALL
GASTEIGER

@<TRIPOS>ATOM
      1  N         27.5610   -0.3620   42.1690 N.3    26  ASP26      -0.1225
      2  CA        29.0160   -0.2630   42.1270 C.3    26  ASP26       0.1805
      3  C         29.5070   -1.4080   41.3240 C.2    26  ASP26       0.2598
      4  O         28.8890   -2.4800   41.3020 O.2    26  ASP26      -0.2718
      5  CB        29.6630   -0.2670   43.5360 C.3    26  ASP26       0.1424
      6  CG        29.3540   -1.5290   44.3260 C.2    26  ASP26       0.3668
      7  OD1       29.9240   -2.6150   44.0770 O.co2  26  ASP26      -0.2456
      8  OD2       28.5080   -1.4500   45.2210 O.co2  26  ASP26      -0.2456
      9  N         30.6500   -1.1820   40.6840 N.am   27  ASN27      -0.1960
     10  CA        31.3960   -2.2150   39.9770 C.3    27  ASN27       0.1819
     11  C         30.6800   -2.6160   38.7170 C.2    27  ASN27       0.2621
     12  O         31.0150   -3.6640   38.1660 O.2    27  ASN27      -0.2715
     13  CB        31.6690   -3.4450   40.8790 C.3    27  ASN27       0.1195
     14  CG        32.7320   -4.4240   40.2900 C.2    27  ASN27       0.2630
     15  OD1       33.7830   -4.0130   39.8000 O.2    27  ASN27      -0.2716
     16  ND2       32.4370   -5.7170   40.3440 N.am   27  ASN27      -0.0877
     17  N         29.7420   -1.7970   38.2080 N.am   28  ALA28      -0.1963
     18  CA        29.1030   -2.1610   36.9050 C.3    28  ALA28       0.1728
     19  C         29.9320   -1.7180   35.6850 C.2    28  ALA28       0.2617
     20  O         29.8080   -2.2980   34.5880 O.2    28  ALA28      -0.2715
     21  CB        27.6490   -1.6430   36.8010 C.3    28  ALA28       0.0334
     22  N         30.7580   -0.6780   35.9080 N.am   29  GLY29      -0.1940
     23  CA        31.7270   -0.1800   34.9370 C.3    29  GLY29       0.2014
     24  C         31.3580    1.2500   34.5670 C.2    29  GLY29       0.2639
     25  O         31.6960    1.7480   33.4830 O.2    29  GLY29      -0.2714
     26  N         30.6490    1.9220   35.4630 N.am   30  LYS30      -0.1963
     27  CA        30.0920    3.2380   35.0930 C.3    30  LYS30       0.1728
     28  C         31.1790    4.2640   34.8170 C.2    30  LYS30       0.2617
     29  O         31.2860    4.7970   33.7080 O.2    30  LYS30      -0.2715
     30  CB        29.0280    3.7160   36.0960 C.3    30  LYS30       0.0311
     31  CG        27.8000    2.7470   36.1200 C.3    30  LYS30       0.0038
     32  CD        26.7730    3.1280   37.1960 C.3    30  LYS30       0.0206
     33  CE        27.4320    3.4970   38.5330 C.3    30  LYS30       0.1093
     34  NZ        27.9510    2.3180   39.2900 N.3    30  LYS30      -0.1314
     35  N         32.0210    4.4790   35.8110 N.am   31  THR31      -0.1937
     36  CA        33.1930    5.3190   35.6860 C.3    31  THR31       0.2028
     37  C         34.0200    4.9870   34.4520 C.2    31  THR31       0.2642
     38  O         34.4680    5.8840   33.7330 O.2    31  THR31      -0.2714
     39  CB        34.0550    5.1400   36.9480 C.3    31  THR31       0.1808
     40  OG1       33.3190    5.6240   38.0820 O.3    31  THR31      -0.2208
     41  CG2       35.4650    5.8510   36.8450 C.3    31  THR31       0.0379
     42  N         34.2750    3.7120   34.2280 N.am   32  SER32      -0.1949
     43  CA        35.0680    3.3150   33.0750 C.3    32  SER32       0.1924
     44  C         34.4420    3.6710   31.7460 C.2    32  SER32       0.2314
     45  O         35.1630    3.9580   30.7880 O.2    32  SER32      -0.2863
     46  CB        35.3220    1.8110   33.0920 C.3    32  SER32       0.2116
     47  OG        36.0760    1.5390   34.2480 O.3    32  SER32      -0.2180
     48  N         26.9580   10.2700   36.9810 N.3    65  VAL65      -0.1245
     49  CA        27.1960    8.9180   37.4920 C.3    65  VAL65       0.1561
     50  C         27.2960    8.8760   39.0100 C.2    65  VAL65       0.2260
     51  O         28.1460    9.5390   39.6040 O.2    65  VAL65      -0.2867
     52  CB        28.5200    8.2620   36.9660 C.3    65  VAL65       0.0252
     53  CG1       28.7290    6.9300   37.5890 C.3    65  VAL65       0.0019
     54  CG2       28.5300    8.0990   35.4590 C.3    65  VAL65       0.0019
     55  N         26.5990    5.6190   42.2980 N.3    67  ASP67      -0.1239
     56  CA        26.3860    4.2230   42.5320 C.3    67  ASP67       0.1674
     57  C         25.1150    3.9800   43.3230 C.2    67  ASP67       0.2266
     58  O         24.8050    4.7250   44.2000 O.2    67  ASP67      -0.2867
     59  CB        27.5960    3.6550   43.2710 C.3    67  ASP67       0.1410
     60  CG        28.8750    3.7840   42.4510 C.2    67  ASP67       0.3668
     61  OD1       28.8030    3.8710   41.1820 O.co2  67  ASP67      -0.2456
     62  OD2       29.9620    3.8010   43.0730 O.co2  67  ASP67      -0.2456
     63  N         26.9330   -4.8240   30.4630 N.3   126  ASN126     -0.1225
     64  CA        28.3120   -4.3680   30.3760 C.3   126  ASN126      0.1785
     65  C         29.3150   -5.4520   30.6460 C.2   126  ASN126      0.2597
     66  O         28.9240   -6.5330   31.0670 O.2   126  ASN126     -0.2718
     67  CB        28.5540   -3.1420   31.2620 C.3   126  ASN126      0.1169
     68  CG        29.8670   -2.4610   30.9840 C.2   126  ASN126      0.2627
     69  OD1       30.4220   -2.5040   29.8580 O.2   126  ASN126     -0.2716
     70  ND2       30.3840   -1.8010   32.0000 N.am  126  ASN126     -0.0877
     71  N         30.5960   -5.1550   30.3870 N.am  127  LYS127     -0.1980
     72  CA        31.7240   -6.1110   30.5140 C.3   127  LYS127      0.1596
     73  C         31.5920   -7.3610   29.6540 C.2   127  LYS127      0.2287
     74  O         31.9000   -8.4640   30.1400 O.2   127  LYS127     -0.2864
     75  CB        31.9130   -6.5690   31.9830 C.3   127  LYS127      0.0298
     76  CG        32.0140   -5.4450   32.9820 C.3   127  LYS127      0.0038
     77  CD        32.5720   -5.9820   34.3220 C.3   127  LYS127      0.0206
     78  CE        32.8710   -4.8610   35.2840 C.3   127  LYS127      0.1093
     79  NZ        32.7450   -5.4250   36.7010 N.3   127  LYS127     -0.1314
     80  N         33.3040   -8.2850   27.1990 N.3   129  ASP129     -0.1225
     81  CA        34.6400   -8.7880   26.8500 C.3   129  ASP129      0.1805
     82  C         35.0190  -10.0490   27.6370 C.2   129  ASP129      0.2597
     83  O         35.8680  -10.8290   27.1840 O.2   129  ASP129     -0.2718
     84  CB        35.7090   -7.6920   27.0120 C.3   129  ASP129      0.1424
     85  CG        35.6810   -7.0270   28.3960 C.2   129  ASP129      0.3668
     86  OD1       36.5820   -7.3880   29.2020 O.co2 129  ASP129     -0.2456
     87  OD2       34.7820   -6.1550   28.6790 O.co2 129  ASP129     -0.2456
     88  N         34.3690  -10.2580   28.7870 N.am  130  LEU130     -0.1979
     89  CA        34.7080  -11.3190   29.7270 C.3   130  LEU130      0.1596
     90  C         33.9020  -12.5750   29.4220 C.2   130  LEU130      0.2287
     91  O         32.6760  -12.5250   29.3710 O.2   130  LEU130     -0.2864
     92  CB        34.4190  -10.8750   31.1720 C.3   130  LEU130      0.0297
     93  CG        35.1790   -9.7130   31.8170 C.3   130  LEU130      0.0022
     94  CD1       34.6490   -9.4860   33.2410 C.3   130  LEU130      0.0001
     95  CD2       36.7200   -9.9830   31.8190 C.3   130  LEU130      0.0001
     96  N         31.1650   -3.0320   26.4180 N.3   159  SER159     -0.1202
     97  CA        32.4130   -3.2380   27.1490 C.3   159  SER159      0.2020
     98  C         33.2690   -1.9810   27.1230 C.2   159  SER159      0.2619
     99  O         33.4360   -1.3580   26.0650 O.2   159  SER159     -0.2717
    100  CB        33.2550   -4.3680   26.5360 C.3   159  SER159      0.2103
    101  OG        34.5700   -4.3290   27.0950 O.3   159  SER159     -0.2182
    102  N         33.8310   -1.6410   28.2780 N.am  160  SER160     -0.1937
    103  CA        34.8370   -0.6020   28.3330 C.3   160  SER160      0.2055
    104  C         36.2200   -1.0680   27.9910 C.2   160  SER160      0.2642
    105  O         37.0430   -0.2720   27.5710 O.2   160  SER160     -0.2714
    106  CB        34.8510    0.0510   29.6720 C.3   160  SER160      0.2130
    107  OG        33.6960    0.8130   29.7630 O.3   160  SER160     -0.2179
    108  N         36.4830   -2.3580   28.1390 N.am  161  LYS161     -0.1977
    109  CA        37.8060   -2.8270   27.8310 C.3   161  LYS161      0.1596
    110  C         37.9980   -2.6660   26.3400 C.2   161  LYS161      0.2287
    111  O         38.9640   -2.0280   25.9210 O.2   161  LYS161     -0.2864
    112  CB        38.0450   -4.2520   28.2910 C.3   161  LYS161      0.0298
    113  CG        39.5220   -4.5220   28.4860 C.3   161  LYS161      0.0038
    114  CD        39.8210   -5.9990   28.3450 C.3   161  LYS161      0.0206
    115  CE        41.2970   -6.2370   28.0400 C.3   161  LYS161      0.1093
    116  NZ        41.5180   -7.6990   27.8110 N.3   161  LYS161     -0.1314
@<TRIPOS>BOND
     1   111   110    2
     2    99    98    2
     3   110   109    1
     4    96    97    1
     5   100   101    1
     6   100    97    1
     7    81    84    1
     8    81    80    1
     9    81    82    1
    10    84    85    1
    11    98    97    1
    12    98   102   am
    13    83    82    2
    14   105   104    2
    15    82    88   am
    16   116   115    1
    17   109   108    1
    18   109   112    1
    19   104   108   am
    20   104   103    1
    21   115   114    1
    22   102   103    1
    23   112   113    1
    24   103   106    1
    25   114   113    1
    26    85    87   ar
    27    85    86   ar
    28    88    89    1
    29    91    90    2
    30    90    89    1
    31    73    74    2
    32    73    72    1
    33   106   107    1
    34    89    92    1
    35    69    68    2
    36    64    63    1
    37    64    65    1
    38    64    67    1
    39    71    72    1
    40    71    65   am
    41    72    75    1
    42    65    66    2
    43    45    44    2
    44    68    67    1
    45    68    70   am
    46    92    93    1
    47    44    43    1
    48    93    95    1
    49    93    94    1
    50    75    76    1
    51    76    77    1
    52    43    46    1
    53    43    42    1
    54    46    47    1
    55    25    24    2
    56    29    28    2
    57    38    37    2
    58    42    37   am
    59    77    78    1
    60    37    36    1
    61    24    23    1
    62    24    26   am
    63    20    19    2
    64    28    27    1
    65    28    35   am
    66    23    22    1
    67    27    26    1
    68    27    30    1
    69    78    79    1
    70    54    52    1
    71    19    22   am
    72    19    18    1
    73    36    35    1
    74    36    39    1
    75    30    31    1
    76    31    32    1
    77    21    18    1
    78    41    39    1
    79    18    17    1
    80    39    40    1
    81    52    49    1
    82    52    53    1
    83    48    49    1
    84    32    33    1
    85    49    50    1
    86    12    11    2
    87    17    11   am
    88    33    34    1
    89    11    10    1
    90    50    51    2
    91    15    14    2
    92    10     9    1
    93    10    13    1
    94    14    16   am
    95    14    13    1
    96     9     3   am
    97    61    60   ar
    98     4     3    2
    99     3     2    1
   100     2     1    1
   101     2     5    1
   102    55    56    1
   103    60    62   ar
   104    60    59    1
   105    56    59    1
   106    56    57    1
   107    57    58    2
   108     5     6    1
   109     7     6   ar
   110     6     8   ar
