@<TRIPOS>MOLECULE
tmp/2x7cA01.pdb
 131 126 0 0 0
SMALL
GASTEIGER

@<TRIPOS>ATOM
      1  N         -4.4220    9.3090   26.8320 N.3    99  GLU99      -0.1231
      2  CA        -4.6680   10.5580   27.5780 C.3    99  GLU99       0.1699
      3  C         -5.6520   10.3750   28.7310 C.2    99  GLU99       0.2593
      4  O         -5.4280   10.8670   29.8480 O.2    99  GLU99      -0.2718
      5  CB        -5.1920   11.6630   26.6630 C.3    99  GLU99       0.0402
      6  CG        -4.1590   12.1240   25.6340 C.3    99  GLU99       0.1161
      7  CD        -4.6280   13.3100   24.8290 C.2    99  GLU99       0.3649
      8  OE1       -5.6600   13.9520   25.1750 O.co2  99  GLU99      -0.2457
      9  OE2       -3.8940   13.6440   23.8670 O.co2  99  GLU99      -0.2457
     10  N         -6.7480    9.6950   28.4280 N.am  100  GLY100     -0.1942
     11  CA        -7.8630    9.5980   29.3440 C.3   100  GLY100      0.2014
     12  C         -8.7200   10.8430   29.2670 C.2   100  GLY100      0.2639
     13  O         -8.4850   11.7500   28.4540 O.2   100  GLY100     -0.2714
     14  N         -9.6720   10.9140   30.1870 N.am  101  GLU101     -0.1963
     15  CA       -10.6630   11.9760   30.1990 C.3   101  GLU101      0.1733
     16  C        -10.9150   12.3160   31.6550 C.2   101  GLU101      0.2616
     17  O        -10.3930   11.6560   32.5670 O.2   101  GLU101     -0.2715
     18  CB       -11.9750   11.4740   29.5840 C.3   101  GLU101      0.0429
     19  CG       -11.8110   10.9910   28.1590 C.3   101  GLU101      0.1163
     20  CD       -13.0820   10.3740   27.5830 C.2   101  GLU101      0.3649
     21  OE1      -14.0950   10.2640   28.3100 O.co2 101  GLU101     -0.2457
     22  OE2      -13.0600    9.9840   26.4070 O.co2 101  GLU101     -0.2457
     23  N        -11.7660   13.3070   31.8750 N.am  102  ARG102     -0.1977
     24  CA       -12.1620   13.6520   33.2350 C.3   102  ARG102      0.1597
     25  C        -13.4820   12.9700   33.5990 C.2   102  ARG102      0.2287
     26  O        -14.4390   12.9260   32.7980 O.2   102  ARG102     -0.2864
     27  CB       -12.2430   15.1730   33.4260 C.3   102  ARG102      0.0334
     28  CG       -10.9600   15.9530   33.0420 C.3   102  ARG102      0.0492
     29  CD        -9.7070   15.4330   33.7820 C.3   102  ARG102      0.2205
     30  NE        -9.9920   15.1660   35.1960 N.pl3 102  ARG102     -0.0865
     31  CZ        -9.8890   16.0700   36.1510 C.cat 102  ARG102      0.5346
     32  NH1       -9.4920   17.2910   35.8440 N.pl3 102  ARG102      0.1354
     33  NH2      -10.2160   15.7620   37.4030 N.pl3 102  ARG102      0.1354
     34  N         -7.2900   15.9130   39.3250 N.3   110  TRP110     -0.1241
     35  CA        -6.7060   15.2270   38.1960 C.3   110  TRP110      0.1605
     36  C         -5.8780   14.0270   38.6710 C.2   110  TRP110      0.2264
     37  O         -5.9400   12.9580   38.0660 O.2   110  TRP110     -0.2867
     38  CB        -5.8760   16.1970   37.3530 C.3   110  TRP110      0.0550
     39  CG        -4.5500   16.5500   37.9230 C.ar  110  TRP110      0.0003
     40  CD1       -4.2550   17.6360   38.7120 C.ar  110  TRP110      0.0946
     41  CD2       -3.3200   15.8330   37.7320 C.ar  110  TRP110      0.0152
     42  NE1       -2.9000   17.6460   39.0100 N.ar  110  TRP110     -0.2442
     43  CE2       -2.3050   16.5620   38.4080 C.ar  110  TRP110      0.0810
     44  CE3       -2.9590   14.6910   36.9790 C.ar  110  TRP110      0.0012
     45  CZ2       -0.9740   16.1310   38.4450 C.ar  110  TRP110      0.0191
     46  CZ3       -1.6270   14.2550   37.0220 C.ar  110  TRP110      0.0001
     47  CH2       -0.6480   14.9970   37.7330 C.ar  110  TRP110      0.0015
     48  N         -8.2430   10.9750   39.4440 N.3   113  ASP113     -0.1239
     49  CA        -9.3370   10.6090   38.5540 C.3   113  ASP113      0.1674
     50  C         -9.1110    9.2280   37.9520 C.2   113  ASP113      0.2266
     51  O         -8.1230    9.0320   37.2530 O.2   113  ASP113     -0.2867
     52  CB        -9.4250   11.6420   37.4200 C.3   113  ASP113      0.1410
     53  CG       -10.7730   11.6590   36.7620 C.2   113  ASP113      0.3668
     54  OD1      -11.3190   10.5800   36.5180 O.co2 113  ASP113     -0.2456
     55  OD2      -11.2800   12.7620   36.4570 O.co2 113  ASP113     -0.2456
     56  N         -8.2060    8.9830   34.1880 N.3   116  ALA116     -0.1245
     57  CA        -6.9100    9.4620   33.6940 C.3   116  ALA116      0.1562
     58  C         -6.2420    8.3390   32.9250 C.2   116  ALA116      0.2260
     59  O         -6.3800    7.1670   33.3020 O.2   116  ALA116     -0.2867
     60  CB        -6.0060    9.9110   34.8420 C.3   116  ALA116      0.0290
     61  N         -0.6020    9.2060   29.9740 N.3   119  ILE119     -0.1231
     62  CA         0.2150   10.4270   30.0930 C.3   119  ILE119      0.1678
     63  C          0.1840   11.0560   31.4940 C.2   119  ILE119      0.2434
     64  O          1.2400   11.2730   32.0870 O.2   119  ILE119     -0.2733
     65  CB        -0.1450   11.4730   28.9910 C.3   119  ILE119      0.0265
     66  CG1        0.4090   10.9770   27.6380 C.3   119  ILE119      0.0019
     67  CG2        0.5560   12.7950   29.2910 C.3   119  ILE119      0.0020
     68  CD1       -0.2500   11.6860   26.3800 C.3   119  ILE119      0.0001
     69  N         -1.0040   11.3920   32.0200 N.am  120  PRO120     -0.2729
     70  CA        -1.0070   12.0700   33.3250 C.3   120  PRO120      0.1401
     71  C         -0.4970   11.1420   34.4550 C.2   120  PRO120      0.2269
     72  O          0.1730   11.6050   35.3690 O.2   120  PRO120     -0.2865
     73  CB        -2.5040   12.3820   33.5470 C.3   120  PRO120      0.0296
     74  CG        -3.2730   11.5330   32.5800 C.3   120  PRO120      0.0237
     75  CD        -2.3490   11.3780   31.4070 C.3   120  PRO120      0.0939
     76  N         -0.8120   19.5830   35.3530 N.3   194  TYR194     -0.1241
     77  CA        -2.1490   19.6710   34.7760 C.3   194  TYR194      0.1605
     78  C         -2.2900   20.8410   33.8200 C.2   194  TYR194      0.2264
     79  O         -2.8610   20.6860   32.7330 O.2   194  TYR194     -0.2867
     80  CB        -3.2400   19.6740   35.8580 C.3   194  TYR194      0.0534
     81  CG        -4.6140   19.3660   35.2960 C.ar  194  TYR194     -0.0201
     82  CD1       -5.6400   20.3110   35.3350 C.ar  194  TYR194     -0.0009
     83  CD2       -4.8550   18.1700   34.6150 C.ar  194  TYR194     -0.0009
     84  CE1       -6.8970   20.0540   34.7350 C.ar  194  TYR194      0.0417
     85  CE2       -6.1020   17.9030   34.0280 C.ar  194  TYR194      0.0417
     86  CZ        -7.1010   18.8680   34.0610 C.ar  194  TYR194      0.1957
     87  OH        -8.3450   18.5730   33.5410 O.3   194  TYR194     -0.2866
     88  N         -0.7690   20.2260   30.5050 N.3   197  LEU197     -0.1231
     89  CA        -1.6490   19.4030   29.6690 C.3   197  LEU197      0.1693
     90  C         -2.8000   20.2480   29.1360 C.2   197  LEU197      0.2591
     91  O         -3.2060   20.1240   27.9680 O.2   197  LEU197     -0.2718
     92  CB        -2.1740   18.1680   30.4310 C.3   197  LEU197      0.0284
     93  CG        -1.1070   17.2400   31.0340 C.3   197  LEU197      0.0019
     94  CD1       -1.7560   16.1300   31.8460 C.3   197  LEU197      0.0001
     95  CD2       -0.1330   16.6670   29.9840 C.3   197  LEU197      0.0001
     96  N         -3.3820   21.0700   30.0100 N.am  198  GLU198     -0.1979
     97  CA        -4.4900   21.9520   29.6100 C.3   198  GLU198      0.1602
     98  C         -4.1340   22.8760   28.4410 C.2   198  GLU198      0.2287
     99  O         -4.9380   23.0700   27.5530 O.2   198  GLU198     -0.2864
    100  CB        -4.9430   22.8090   30.8010 C.3   198  GLU198      0.0415
    101  CG        -5.7720   22.0650   31.8140 C.3   198  GLU198      0.1163
    102  CD        -6.2970   22.9920   32.9040 C.2   198  GLU198      0.3649
    103  OE1       -7.5480   23.1230   33.0690 O.co2 198  GLU198     -0.2457
    104  OE2       -5.4330   23.6170   33.5590 O.co2 198  GLU198     -0.2457
    105  N         -4.2070   20.8950   25.3000 N.3   201  ALA201     -0.1245
    106  CA        -5.5890   20.6580   24.8470 C.3   201  ALA201      0.1562
    107  C         -6.2050   21.9040   24.1790 C.2   201  ALA201      0.2260
    108  O         -6.9030   21.8000   23.1420 O.2   201  ALA201     -0.2867
    109  CB        -6.4650   20.1760   26.0020 C.3   201  ALA201      0.0290
    110  N         -4.7540   22.2240   20.7420 N.3   204  ARG204     -0.1245
    111  CA        -5.4400   21.1980   19.9420 C.3   204  ARG204      0.1563
    112  C         -6.8270   21.5850   19.4130 C.2   204  ARG204      0.2260
    113  O         -7.2020   21.2290   18.2820 O.2   204  ARG204     -0.2867
    114  CB        -5.4780   19.8530   20.6750 C.3   204  ARG204      0.0307
    115  CG        -4.1090   19.1550   20.6420 C.3   204  ARG204      0.0489
    116  CD        -4.1530   17.6850   20.2870 C.3   204  ARG204      0.2205
    117  NE        -4.3980   16.9790   21.5200 N.pl3 204  ARG204     -0.0865
    118  CZ        -3.6050   16.0750   22.0710 C.cat 204  ARG204      0.5346
    119  NH1       -2.5180   15.6220   21.4610 N.pl3 204  ARG204      0.1354
    120  NH2       -3.9570   15.5910   23.2430 N.pl3 204  ARG204      0.1354
    121  N          3.9020   12.5690   22.4600 N.3   222  PHE222     -0.1241
    122  CA         4.1460   13.2280   23.7320 C.3   222  PHE222      0.1605
    123  C          5.4420   12.6330   24.3270 C.2   222  PHE222      0.2264
    124  O          5.4630   11.4500   24.6600 O.2   222  PHE222     -0.2867
    125  CB         2.9520   12.9690   24.6660 C.3   222  PHE222      0.0534
    126  CG         2.9840   13.8000   25.8990 C.ar  222  PHE222     -0.0203
    127  CD1        3.9000   13.5190   26.9060 C.ar  222  PHE222     -0.0042
    128  CD2        2.1290   14.8970   26.0360 C.ar  222  PHE222     -0.0042
    129  CE1        3.9780   14.3530   28.0600 C.ar  222  PHE222     -0.0003
    130  CE2        2.1860   15.7090   27.1890 C.ar  222  PHE222     -0.0003
    131  CZ         3.1090   15.4110   28.2040 C.ar  222  PHE222     -0.0000
@<TRIPOS>BOND
     1   113   112    2
     2   112   111    1
     3   111   114    1
     4   111   110    1
     5   116   115    1
     6   116   117    1
     7   115   114    1
     8   119   118    1
     9   117   118    2
    10   118   120    1
    11   121   122    1
    12   108   107    2
    13   122   123    1
    14   122   125    1
    15     9     7   ar
    16   107   106    1
    17   123   124    2
    18   125   126    1
    19     7     8   ar
    20     7     6    1
    21   106   105    1
    22   106   109    1
    23     6     5    1
    24   126   128   ar
    25   126   127   ar
    26   128   130   ar
    27    68    66    1
    28    22    20   ar
    29     5     2    1
    30     1     2    1
    31   127   129   ar
    32   130   131   ar
    33    99    98    2
    34     2     3    1
    35    20    19    1
    36    20    21   ar
    37    66    65    1
    38    91    90    2
    39   129   131   ar
    40    19    18    1
    41    10     3   am
    42    10    11    1
    43    98    97    1
    44    13    12    2
    45     3     4    2
    46    65    67    1
    47    65    62    1
    48    90    89    1
    49    90    96   am
    50    12    11    1
    51    12    14   am
    52    18    15    1
    53    97    96    1
    54    97   100    1
    55    89    92    1
    56    89    88    1
    57    61    62    1
    58    95    93    1
    59    62    63    1
    60    14    15    1
    61    15    16    1
    62    92    93    1
    63   100   101    1
    64    93    94    1
    65    75    69    1
    66    75    74    1
    67    63    69   am
    68    63    64    2
    69    16    23   am
    70    16    17    2
    71   101   102    1
    72    23    24    1
    73    69    70    1
    74    74    73    1
    75    79    78    2
    76    26    25    2
    77   102   103   ar
    78   102   104   ar
    79    58    59    2
    80    58    57    1
    81    28    27    1
    82    28    29    1
    83    24    27    1
    84    24    25    1
    85    70    73    1
    86    70    71    1
    87    87    86    1
    88    57    56    1
    89    57    60    1
    90    29    30    1
    91    78    77    1
    92    85    86   ar
    93    85    83   ar
    94    86    84   ar
    95    71    72    2
    96    83    81   ar
    97    84    82   ar
    98    77    76    1
    99    77    80    1
   100    30    31    2
   101    81    82   ar
   102    81    80    1
   103    32    31    1
   104    31    33    1
   105    55    53   ar
   106    54    53   ar
   107    53    52    1
   108    44    46   ar
   109    44    41   ar
   110    46    47   ar
   111    51    50    2
   112    38    39    1
   113    38    35    1
   114    52    49    1
   115    41    39   ar
   116    41    43   ar
   117    47    45   ar
   118    39    40   ar
   119    50    49    1
   120    37    36    2
   121    35    36    1
   122    35    34    1
   123    43    45   ar
   124    43    42   ar
   125    49    48    1
   126    40    42   ar
