@<TRIPOS>MOLECULE
tmp/2x7eA01.pdb
 151 144 0 0 0
SMALL
GASTEIGER

@<TRIPOS>ATOM
      1  N        -39.1830   -9.3760  -27.0110 N.3   100  GLU100     -0.1231
      2  CA       -39.4670  -10.5770  -27.7640 C.3   100  GLU100      0.1699
      3  C        -40.5090  -10.3890  -28.8430 C.2   100  GLU100      0.2593
      4  O        -40.3170  -10.7970  -29.9820 O.2   100  GLU100     -0.2718
      5  CB       -40.0010  -11.6320  -26.8070 C.3   100  GLU100      0.0402
      6  CG       -38.9320  -12.6130  -26.4140 C.3   100  GLU100      0.1161
      7  CD       -39.1530  -13.0970  -25.0230 C.2   100  GLU100      0.3649
      8  OE1      -40.3180  -13.3730  -24.6300 O.co2 100  GLU100     -0.2457
      9  OE2      -38.1390  -13.1530  -24.3050 O.co2 100  GLU100     -0.2457
     10  N        -41.6410   -9.8310  -28.4300 N.am  101  GLY101     -0.1942
     11  CA       -42.7820   -9.6280  -29.3020 C.3   101  GLY101      0.2014
     12  C        -43.6680  -10.8440  -29.3540 C.2   101  GLY101      0.2639
     13  O        -43.4690  -11.8240  -28.6120 O.2   101  GLY101     -0.2714
     14  N        -44.6010  -10.8000  -30.3030 N.am  102  GLU102     -0.1963
     15  CA       -45.6560  -11.8030  -30.4150 C.3   102  GLU102      0.1733
     16  C        -45.7740  -12.2950  -31.8780 C.2   102  GLU102      0.2616
     17  O        -45.0950  -11.7720  -32.7800 O.2   102  GLU102     -0.2715
     18  CB       -46.9600  -11.1930  -29.8780 C.3   102  GLU102      0.0429
     19  CG       -46.9840  -11.1720  -28.3610 C.3   102  GLU102      0.1163
     20  CD       -48.1230  -10.3600  -27.6990 C.2   102  GLU102      0.3649
     21  OE1      -49.2850  -10.3570  -28.1820 O.co2 102  GLU102     -0.2457
     22  OE2      -47.8760   -9.7930  -26.6110 O.co2 102  GLU102     -0.2457
     23  N        -46.5640  -13.3410  -32.0880 N.am  103  ARG103     -0.1977
     24  CA       -46.9340  -13.7780  -33.4250 C.3   103  ARG103      0.1597
     25  C        -48.2480  -13.1230  -33.8410 C.2   103  ARG103      0.2287
     26  O        -49.2070  -13.0470  -33.0470 O.2   103  ARG103     -0.2864
     27  CB       -47.0760  -15.2970  -33.4930 C.3   103  ARG103      0.0334
     28  CG       -45.8240  -16.0520  -33.0570 C.3   103  ARG103      0.0492
     29  CD       -44.5670  -15.5740  -33.7520 C.3   103  ARG103      0.2205
     30  NE       -44.7350  -15.1800  -35.1450 N.pl3 103  ARG103     -0.0865
     31  CZ       -44.6520  -16.0160  -36.1760 C.cat 103  ARG103      0.5346
     32  NH1      -44.3880  -17.3110  -35.9760 N.pl3 103  ARG103      0.1354
     33  NH2      -44.8160  -15.5540  -37.4130 N.pl3 103  ARG103      0.1354
     34  N        -42.0200  -15.8190  -39.4270 N.3   111  TRP111     -0.1241
     35  CA       -41.5060  -15.1460  -38.2720 C.3   111  TRP111      0.1605
     36  C        -40.6710  -13.9750  -38.7050 C.2   111  TRP111      0.2264
     37  O        -40.6970  -12.9390  -38.0280 O.2   111  TRP111     -0.2867
     38  CB       -40.6940  -16.0900  -37.3970 C.3   111  TRP111      0.0550
     39  CG       -39.4610  -16.5540  -38.0270 C.ar  111  TRP111      0.0003
     40  CD1      -39.3110  -17.6410  -38.8500 C.ar  111  TRP111      0.0946
     41  CD2      -38.1790  -15.9670  -37.8910 C.ar  111  TRP111      0.0152
     42  NE1      -37.9890  -17.7780  -39.2200 N.ar  111  TRP111     -0.2442
     43  CE2      -37.2740  -16.7580  -38.6500 C.ar  111  TRP111      0.0810
     44  CE3      -37.6960  -14.8480  -37.1950 C.ar  111  TRP111      0.0012
     45  CZ2      -35.9090  -16.4820  -38.7130 C.ar  111  TRP111      0.0191
     46  CZ3      -36.3550  -14.5450  -37.2710 C.ar  111  TRP111      0.0001
     47  CH2      -35.4660  -15.3600  -38.0320 C.ar  111  TRP111      0.0015
     48  N        -43.0360  -11.0910  -39.4630 N.3   114  ASP114     -0.1239
     49  CA       -44.1140  -10.6950  -38.5390 C.3   114  ASP114      0.1674
     50  C        -43.9260   -9.2770  -37.9760 C.2   114  ASP114      0.2266
     51  O        -42.8980   -8.9650  -37.4040 O.2   114  ASP114     -0.2867
     52  CB       -44.1850  -11.6840  -37.3840 C.3   114  ASP114      0.1410
     53  CG       -45.5570  -11.7720  -36.7830 C.2   114  ASP114      0.3668
     54  OD1      -46.1420  -10.7370  -36.4780 O.co2 114  ASP114     -0.2456
     55  OD2      -46.0560  -12.8980  -36.6220 O.co2 114  ASP114     -0.2456
     56  N        -43.0480   -9.0100  -34.1920 N.3   117  ALA117     -0.1245
     57  CA       -41.7240   -9.4240  -33.7390 C.3   117  ALA117      0.1562
     58  C        -41.0230   -8.2990  -32.9910 C.2   117  ALA117      0.2260
     59  O        -41.1800   -7.1160  -33.3300 O.2   117  ALA117     -0.2867
     60  CB       -40.8590   -9.9020  -34.8920 C.3   117  ALA117      0.0290
     61  N        -35.4440   -9.3660  -30.0330 N.3   120  ILE120     -0.1231
     62  CA       -34.6530  -10.5680  -30.1250 C.3   120  ILE120      0.1678
     63  C        -34.7130  -11.1770  -31.5380 C.2   120  ILE120      0.2434
     64  O        -33.6940  -11.2660  -32.1830 O.2   120  ILE120     -0.2733
     65  CB       -34.9840  -11.5880  -28.9920 C.3   120  ILE120      0.0265
     66  CG1      -34.2470  -11.1990  -27.7030 C.3   120  ILE120      0.0019
     67  CG2      -34.4730  -12.9430  -29.3450 C.3   120  ILE120      0.0020
     68  CD1      -34.8890  -11.7220  -26.3960 C.3   120  ILE120      0.0001
     69  N        -35.9030  -11.5560  -32.0350 N.am  121  PRO121     -0.2729
     70  CA       -35.9120  -12.1400  -33.3810 C.3   121  PRO121      0.1401
     71  C        -35.3610  -11.1740  -34.4380 C.2   121  PRO121      0.2269
     72  O        -34.6060  -11.6040  -35.3060 O.2   121  PRO121     -0.2865
     73  CB       -37.4060  -12.4480  -33.6350 C.3   121  PRO121      0.0296
     74  CG       -38.1660  -11.6410  -32.6410 C.3   121  PRO121      0.0237
     75  CD       -37.2510  -11.4870  -31.4470 C.3   121  PRO121      0.0939
     76  N        -29.4080  -18.1030  -23.0510 N.3   144  LEU144     -0.1245
     77  CA       -30.5260  -17.5230  -22.3370 C.3   144  LEU144      0.1561
     78  C        -30.4360  -17.9570  -20.8760 C.2   144  LEU144      0.2260
     79  O        -30.6940  -19.1120  -20.5060 O.2   144  LEU144     -0.2867
     80  CB       -31.8760  -17.9270  -22.9170 C.3   144  LEU144      0.0270
     81  CG       -33.1150  -17.2790  -22.2660 C.3   144  LEU144      0.0019
     82  CD1      -32.9930  -15.7770  -22.1280 C.3   144  LEU144      0.0001
     83  CD2      -34.4090  -17.6190  -23.0430 C.3   144  LEU144      0.0001
     84  N        -32.1100  -22.5340  -22.6110 N.3   156  LEU156     -0.1245
     85  CA       -31.8860  -23.0510  -23.9680 C.3   156  LEU156      0.1561
     86  C        -31.3100  -24.4720  -24.0400 C.2   156  LEU156      0.2260
     87  O        -31.4000  -25.1080  -25.0760 O.2   156  LEU156     -0.2867
     88  CB       -31.1070  -22.0630  -24.8610 C.3   156  LEU156      0.0270
     89  CG       -31.7660  -20.7540  -25.3270 C.3   156  LEU156      0.0019
     90  CD1      -30.8530  -20.0060  -26.2830 C.3   156  LEU156      0.0001
     91  CD2      -33.1140  -20.9620  -26.0140 C.3   156  LEU156      0.0001
     92  N        -35.5040  -19.5450  -35.6080 N.3   195  TYR195     -0.1241
     93  CA       -36.8210  -19.6440  -35.0000 C.3   195  TYR195      0.1605
     94  C        -36.9690  -20.8350  -34.0510 C.2   195  TYR195      0.2264
     95  O        -37.5810  -20.7180  -32.9860 O.2   195  TYR195     -0.2867
     96  CB       -37.9370  -19.6600  -36.0510 C.3   195  TYR195      0.0534
     97  CG       -39.2970  -19.4160  -35.4670 C.ar  195  TYR195     -0.0201
     98  CD1      -40.2910  -20.3800  -35.5480 C.ar  195  TYR195     -0.0009
     99  CD2      -39.5870  -18.2330  -34.8070 C.ar  195  TYR195     -0.0009
    100  CE1      -41.5590  -20.1840  -34.9790 C.ar  195  TYR195      0.0417
    101  CE2      -40.8510  -18.0120  -34.2300 C.ar  195  TYR195      0.0417
    102  CZ       -41.8350  -18.9990  -34.3090 C.ar  195  TYR195      0.1957
    103  OH       -43.1070  -18.7880  -33.7800 O.3   195  TYR195     -0.2866
    104  N        -35.4720  -20.2220  -30.7050 N.3   198  LEU198     -0.1231
    105  CA       -36.3530  -19.4050  -29.8900 C.3   198  LEU198      0.1693
    106  C        -37.5040  -20.2290  -29.3160 C.2   198  LEU198      0.2591
    107  O        -37.7650  -20.1510  -28.1210 O.2   198  LEU198     -0.2718
    108  CB       -36.8350  -18.1760  -30.6520 C.3   198  LEU198      0.0284
    109  CG       -35.6910  -17.3990  -31.2840 C.3   198  LEU198      0.0019
    110  CD1      -36.2230  -16.1580  -31.9640 C.3   198  LEU198      0.0001
    111  CD2      -34.5600  -17.1200  -30.2690 C.3   198  LEU198      0.0001
    112  N        -38.0990  -21.1060  -30.1360 N.am  199  GLU199     -0.1979
    113  CA       -39.1850  -21.9850  -29.6940 C.3   199  GLU199      0.1602
    114  C        -38.8510  -22.8640  -28.4800 C.2   199  GLU199      0.2287
    115  O        -39.7050  -23.0890  -27.6070 O.2   199  GLU199     -0.2864
    116  CB       -39.7360  -22.8480  -30.8490 C.3   199  GLU199      0.0415
    117  CG       -40.4740  -22.0920  -31.9350 C.3   199  GLU199      0.1163
    118  CD       -41.1200  -23.0360  -32.9740 C.2   199  GLU199      0.3649
    119  OE1      -42.3870  -23.1430  -33.0040 O.co2 199  GLU199     -0.2457
    120  OE2      -40.3640  -23.6760  -33.7490 O.co2 199  GLU199     -0.2457
    121  N        -36.6850  -22.1030  -26.1770 N.3   201  GLY201     -0.1210
    122  CA       -36.7690  -21.1620  -25.0610 C.3   201  GLY201      0.1956
    123  C        -38.1810  -21.0830  -24.5130 C.2   201  GLY201      0.2611
    124  O        -38.4000  -21.3100  -23.3120 O.2   201  GLY201     -0.2717
    125  N        -39.1240  -20.8200  -25.4150 N.am  202  ALA202     -0.1979
    126  CA       -40.5160  -20.6140  -25.0450 C.3   202  ALA202      0.1597
    127  C        -41.0620  -21.8430  -24.3290 C.2   202  ALA202      0.2287
    128  O        -41.7320  -21.7190  -23.2940 O.2   202  ALA202     -0.2864
    129  CB       -41.3600  -20.2650  -26.2620 C.3   202  ALA202      0.0319
    130  N        -39.7260  -22.0490  -20.9900 N.3   205  ARG205     -0.1245
    131  CA       -40.3470  -21.0350  -20.1600 C.3   205  ARG205      0.1563
    132  C        -41.7110  -21.4770  -19.6200 C.2   205  ARG205      0.2260
    133  O        -42.0830  -21.1100  -18.5090 O.2   205  ARG205     -0.2867
    134  CB       -40.4620  -19.7060  -20.8940 C.3   205  ARG205      0.0307
    135  CG       -39.0930  -19.1250  -21.1090 C.3   205  ARG205      0.0489
    136  CD       -38.9960  -17.7080  -20.6640 C.3   205  ARG205      0.2205
    137  NE       -39.3380  -16.8410  -21.7660 N.pl3 205  ARG205     -0.0865
    138  CZ       -38.5950  -15.8270  -22.1960 C.cat 205  ARG205      0.5346
    139  NH1      -37.4530  -15.5150  -21.6020 N.pl3 205  ARG205      0.1354
    140  NH2      -39.0310  -15.1350  -23.2420 N.pl3 205  ARG205      0.1354
    141  N        -30.8580  -12.6040  -22.4280 N.3   223  PHE223     -0.1241
    142  CA       -30.6700  -13.3000  -23.7120 C.3   223  PHE223      0.1605
    143  C        -29.3940  -12.7140  -24.3020 C.2   223  PHE223      0.2264
    144  O        -29.3530  -11.5120  -24.5270 O.2   223  PHE223     -0.2867
    145  CB       -31.8380  -13.0240  -24.6790 C.3   223  PHE223      0.0534
    146  CG       -31.7720  -13.8420  -25.9310 C.ar  223  PHE223     -0.0203
    147  CD1      -30.8870  -13.4960  -26.9530 C.ar  223  PHE223     -0.0042
    148  CD2      -32.5210  -15.0120  -26.0580 C.ar  223  PHE223     -0.0042
    149  CE1      -30.7460  -14.3210  -28.0930 C.ar  223  PHE223     -0.0003
    150  CE2      -32.4090  -15.8370  -27.2080 C.ar  223  PHE223     -0.0003
    151  CZ       -31.5010  -15.5040  -28.2340 C.ar  223  PHE223     -0.0000
@<TRIPOS>BOND
     1    48    49    1
     2    34    35    1
     3    42    40   ar
     4    42    43   ar
     5    40    39   ar
     6    45    43   ar
     7    45    47   ar
     8    36    35    1
     9    36    37    2
    10    43    41   ar
    11    49    50    1
    12    49    52    1
    13    35    38    1
    14    47    46   ar
    15    39    41   ar
    16    39    38    1
    17    50    51    2
    18    41    44   ar
    19    33    31    1
    20    52    53    1
    21    46    44   ar
    22    53    55   ar
    23    53    54   ar
    24    31    32    1
    25    31    30    2
    26    96    97    1
    27    96    93    1
    28    92    93    1
    29    98    97   ar
    30    98   100   ar
    31    97    99   ar
    32    72    71    2
    33    30    29    1
    34    93    94    1
    35   100   102   ar
    36    60    57    1
    37    99   101   ar
    38    71    70    1
    39   102   101   ar
    40   102   103    1
    41    56    57    1
    42    94    95    2
    43    25    24    1
    44    25    26    2
    45    29    28    1
    46   120   118   ar
    47    57    58    1
    48    73    70    1
    49    73    74    1
    50    27    24    1
    51    27    28    1
    52    24    23    1
    53    70    69    1
    54    59    58    2
    55   119   118   ar
    56   118   117    1
    57    17    16    2
    58    74    75    1
    59    64    63    2
    60    23    16   am
    61    69    63   am
    62    69    75    1
    63   110   109    1
    64   117   116    1
    65    16    15    1
    66    63    62    1
    67   109   108    1
    68   109   111    1
    69   116   113    1
    70   104   105    1
    71   108   105    1
    72    15    14    1
    73    15    18    1
    74    14    12   am
    75   112   113    1
    76   112   106   am
    77    62    61    1
    78    62    65    1
    79     4     3    2
    80   105   106    1
    81    18    19    1
    82   113   114    1
    83    12    11    1
    84    12    13    2
    85    67    65    1
    86   106   107    2
    87    11    10    1
    88    65    66    1
    89     3    10   am
    90     3     2    1
    91   114   115    2
    92    19    20    1
    93   151   149   ar
    94   151   150   ar
    95    21    20   ar
    96   149   147   ar
    97     2     1    1
    98     2     5    1
    99    66    68    1
   100    20    22   ar
   101   150   148   ar
   102   147   146   ar
   103     5     6    1
   104     6     7    1
   105    90    89    1
   106   129   126    1
   107   121   122    1
   108   148   146   ar
   109    91    89    1
   110   146   145    1
   111   125   126    1
   112   125   123   am
   113    89    88    1
   114    87    86    2
   115   122   123    1
   116   126   127    1
   117     7     8   ar
   118     7     9   ar
   119    88    85    1
   120   145   142    1
   121   144   143    2
   122   123   124    2
   123   127   128    2
   124   143   142    1
   125    86    85    1
   126    85    84    1
   127   142   141    1
   128   140   138    1
   129    76    77    1
   130    83    81    1
   131    80    77    1
   132    80    81    1
   133    77    78    1
   134    81    82    1
   135   138   137    2
   136   138   139    1
   137   137   136    1
   138   135   134    1
   139   135   136    1
   140   130   131    1
   141   134   131    1
   142    78    79    2
   143   131   132    1
   144   132   133    2
