@<TRIPOS>MOLECULE
tmp/2x7fB00.pdb
 153 141 0 0 0
SMALL
GASTEIGER

@<TRIPOS>ATOM
      1  N          2.6310  -21.6130   97.9870 N.3    19  VAL19      -0.1231
      2  CA         2.2940  -20.3110   97.3840 C.3    19  VAL19       0.1692
      3  C          3.3250  -19.8200   96.3860 C.2    19  VAL19       0.2592
      4  O          2.9570  -19.1650   95.4090 O.2    19  VAL19      -0.2718
      5  CB         1.9060  -19.1880   98.3860 C.3    19  VAL19       0.0266
      6  CG1        0.7010  -19.5600   99.2210 C.3    19  VAL19       0.0020
      7  CG2        3.0780  -18.7670   99.2760 C.3    19  VAL19       0.0020
      8  N          4.5960  -20.1000   96.6660 N.am   20  GLY20      -0.1957
      9  CA         5.7270  -19.6770   95.8540 C.3    20  GLY20       0.1869
     10  C          6.5580  -20.7970   95.2730 C.2    20  GLY20       0.2309
     11  O          6.7150  -21.8550   95.8820 O.2    20  GLY20      -0.2863
     12  N         13.6050  -18.0070   94.5830 N.3    24  TYR24      -0.1241
     13  CA        13.6650  -18.1670   96.0330 C.3    24  TYR24       0.1605
     14  C         13.3890  -19.6150   96.5430 C.2    24  TYR24       0.2264
     15  O         13.6520  -19.8980   97.7110 O.2    24  TYR24      -0.2867
     16  CB        12.7430  -17.1480   96.7290 C.3    24  TYR24       0.0534
     17  CG        11.3870  -16.8850   96.0870 C.ar   24  TYR24      -0.0201
     18  CD1       10.4110  -17.8860   96.0240 C.ar   24  TYR24      -0.0009
     19  CD2       11.0380  -15.6060   95.6520 C.ar   24  TYR24      -0.0009
     20  CE1        9.1480  -17.6320   95.4820 C.ar   24  TYR24       0.0417
     21  CE2        9.7750  -15.3380   95.1270 C.ar   24  TYR24       0.0417
     22  CZ         8.8310  -16.3520   95.0440 C.ar   24  TYR24       0.1957
     23  OH         7.5900  -16.0710   94.5060 O.3    24  TYR24      -0.2866
     24  N          8.0590  -22.0620   98.6040 N.3    27  VAL27      -0.1245
     25  CA         7.4840  -21.2620   99.6850 C.3    27  VAL27       0.1561
     26  C          6.0480  -21.6920   99.9520 C.2    27  VAL27       0.2260
     27  O          5.2580  -21.8730   99.0290 O.2    27  VAL27      -0.2867
     28  CB         7.6230  -19.7410   99.4000 C.3    27  VAL27       0.0252
     29  CG1        7.0350  -18.8810  100.5250 C.3    27  VAL27       0.0019
     30  CG2        9.0900  -19.3700   99.1810 C.3    27  VAL27       0.0019
     31  N          4.8620  -17.0240  106.0240 N.3    40  ALA40      -0.1245
     32  CA         5.3510  -17.6320  104.8120 C.3    40  ALA40       0.1562
     33  C          6.5630  -18.4700  105.2400 C.2    40  ALA40       0.2260
     34  O          7.4930  -17.9690  105.8920 O.2    40  ALA40      -0.2867
     35  CB         5.7420  -16.5830  103.7940 C.3    40  ALA40       0.0290
     36  N          9.5870  -20.8610  103.8750 N.3    42  LYS42      -0.1245
     37  CA        10.4420  -21.3350  102.7850 C.3    42  LYS42       0.1561
     38  C         11.0690  -22.6580  103.2510 C.2    42  LYS42       0.2260
     39  O         11.7220  -22.7070  104.2930 O.2    42  LYS42      -0.2867
     40  CB        11.5160  -20.2980  102.4420 C.3    42  LYS42       0.0271
     41  CG        12.3990  -20.7750  101.2710 C.3    42  LYS42       0.0035
     42  CD        13.6400  -19.9170  101.2000 C.3    42  LYS42       0.0206
     43  CE        14.7140  -20.5400  100.3260 C.3    42  LYS42       0.1093
     44  NZ        15.8340  -19.5480  100.2530 N.3    42  LYS42      -0.1314
     45  N         21.9290  -16.0540  104.3310 N.3    57  GLU57      -0.1245
     46  CA        20.5700  -15.5540  104.0790 C.3    57  GLU57       0.1567
     47  C         19.8240  -15.2650  105.4000 C.2    57  GLU57       0.2260
     48  O         19.1770  -14.2220  105.5280 O.2    57  GLU57      -0.2867
     49  CB        19.7660  -16.5140  103.1910 C.3    57  GLU57       0.0388
     50  CG        18.4640  -15.8910  102.6890 C.3    57  GLU57       0.1160
     51  CD        17.5830  -16.6880  101.7460 C.2    57  GLU57       0.3649
     52  OE1       16.6830  -16.0770  101.1210 O.co2  57  GLU57      -0.2457
     53  OE2       17.7780  -17.9210  101.6400 O.co2  57  GLU57      -0.2457
     54  N         18.5240  -11.5660  106.8530 N.3    61  LEU61      -0.1245
     55  CA        17.1290  -11.4290  107.2760 C.3    61  LEU61       0.1561
     56  C         17.0120  -11.0110  108.7370 C.2    61  LEU61       0.2260
     57  O         16.2710  -10.0870  109.0310 O.2    61  LEU61      -0.2867
     58  CB        16.3290  -12.7320  106.9790 C.3    61  LEU61       0.0270
     59  CG        16.1560  -13.0950  105.4900 C.3    61  LEU61       0.0019
     60  CD1       15.7570  -14.5120  105.3060 C.3    61  LEU61       0.0001
     61  CD2       15.2050  -12.2070  104.8110 C.3    61  LEU61       0.0001
     62  N          9.6090   -7.9640  104.1370 N.3    71  ALA71      -0.1245
     63  CA         8.9150   -9.0400  104.8570 C.3    71  ALA71       0.1562
     64  C          9.8180   -9.4470  106.0150 C.2    71  ALA71       0.2260
     65  O         11.0120   -9.7010  105.8070 O.2    71  ALA71      -0.2867
     66  CB         8.5970  -10.2070  103.9360 C.3    71  ALA71       0.0290
     67  N         12.3390  -21.6300  106.7600 N.3    91  LEU91      -0.1245
     68  CA        12.5890  -20.1880  106.9300 C.3    91  LEU91       0.1561
     69  C         11.2360  -19.4860  107.0900 C.2    91  LEU91       0.2260
     70  O         10.4970  -19.3590  106.1130 O.2    91  LEU91      -0.2867
     71  CB        13.3260  -19.6590  105.7120 C.3    91  LEU91       0.0270
     72  CG        14.1650  -18.4390  105.9140 C.3    91  LEU91       0.0019
     73  CD1       15.3330  -18.7570  106.8350 C.3    91  LEU91       0.0001
     74  CD2       14.6860  -17.9680  104.5800 C.3    91  LEU91       0.0001
     75  N          8.8530  -16.4360  107.6800 N.3    93  MET93      -0.1230
     76  CA         8.7470  -15.0070  107.3660 C.3    93  MET93       0.1702
     77  C          7.3170  -14.4530  107.4480 C.2    93  MET93       0.2592
     78  O          6.3360  -15.2040  107.4590 O.2    93  MET93      -0.2718
     79  CB         9.1950  -14.7980  105.9100 C.3    93  MET93       0.0401
     80  CG        10.5250  -15.4270  105.5660 C.3    93  MET93       0.0596
     81  SD        11.8390  -14.5070  106.3700 S.3    93  MET93      -0.1393
     82  CE        11.7640  -12.9700  105.4510 C.3    93  MET93       0.0692
     83  N          7.2050  -13.1440  107.3750 N.am   94  GLU94      -0.1966
     84  CA         5.9250  -12.4200  107.3430 C.3    94  GLU94       0.1733
     85  C          5.1110  -12.8420  106.1030 C.2    94  GLU94       0.2616
     86  O          5.6470  -12.9480  104.9890 O.2    94  GLU94      -0.2715
     87  CB         6.2350  -10.9190  107.2930 C.3    94  GLU94       0.0429
     88  CG         5.0500  -10.0480  106.9760 C.3    94  GLU94       0.1163
     89  CD         5.2250   -8.5640  107.1950 C.2    94  GLU94       0.3649
     90  OE1        6.3770   -8.0760  107.1320 O.co2  94  GLU94      -0.2457
     91  OE2        4.1930   -7.8750  107.3620 O.co2  94  GLU94      -0.2457
     92  N          3.8390  -13.1280  106.2910 N.am   95  PHE95      -0.1960
     93  CA         3.0260  -13.5400  105.1440 C.3    95  PHE95       0.1771
     94  C          2.4240  -12.3550  104.4500 C.2    95  PHE95       0.2620
     95  O          1.9250  -11.4310  105.1120 O.2    95  PHE95      -0.2715
     96  CB         1.9510  -14.5100  105.5740 C.3    95  PHE95       0.0574
     97  CG         1.1910  -15.1180  104.4290 C.ar   95  PHE95      -0.0200
     98  CD1        1.8320  -15.9270  103.4960 C.ar   95  PHE95      -0.0042
     99  CD2       -0.1790  -14.9460  104.3170 C.ar   95  PHE95      -0.0042
    100  CE1        1.1230  -16.5210  102.4650 C.ar   95  PHE95      -0.0003
    101  CE2       -0.8840  -15.5480  103.2840 C.ar   95  PHE95      -0.0003
    102  CZ        -0.2270  -16.3370  102.3720 C.ar   95  PHE95      -0.0000
    103  N          2.5220  -12.3600  103.1030 N.am   96  CYS96      -0.1954
    104  CA         2.0240  -11.3390  102.1780 C.3    96  CYS96       0.1843
    105  C          1.0150  -12.0530  101.3410 C.2    96  CYS96       0.2626
    106  O          1.3730  -12.7250  100.3700 O.2    96  CYS96      -0.2714
    107  CB         3.1640  -10.7780  101.3430 C.3    96  CYS96       0.0997
    108  SG         4.5060  -10.0710  102.3270 S.3    96  CYS96      -0.0797
    109  N         -0.2280  -12.0160  101.8310 N.am   97  GLY97      -0.1954
    110  CA        -1.3630  -12.7400  101.2900 C.3    97  GLY97       0.1869
    111  C         -1.7690  -12.3780   99.8960 C.2    97  GLY97       0.2309
    112  O         -2.2760  -13.2260   99.1730 O.2    97  GLY97      -0.2863
    113  N         -0.0290  -11.8360   97.3190 N.3    99  GLY99      -0.1210
    114  CA         0.9230  -12.2530   96.2940 C.3    99  GLY99       0.1956
    115  C          1.7990  -11.1410   95.7280 C.2    99  GLY99       0.2612
    116  O          1.8260  -10.0180   96.2460 O.2    99  GLY99      -0.2717
    117  N          2.4930  -11.4330   94.6220 N.am  100  SER100     -0.1952
    118  CA         3.4450  -10.5260   93.9700 C.3   100  SER100      0.1924
    119  C          2.8330   -9.4610   93.0570 C.2   100  SER100      0.2314
    120  O          1.6840   -9.5980   92.6380 O.2   100  SER100     -0.2863
    121  CB         4.4650  -11.3460   93.1960 C.3   100  SER100      0.2116
    122  OG         3.8590  -11.8170   92.0100 O.3   100  SER100     -0.2180
    123  N          1.8120  -11.0740   89.8220 N.3   103  ASP103     -0.1239
    124  CA         0.4620  -11.6380   89.9190 C.3   103  ASP103      0.1674
    125  C         -0.5720  -10.5290   89.7770 C.2   103  ASP103      0.2266
    126  O         -1.5580  -10.7190   89.0770 O.2   103  ASP103     -0.2867
    127  CB         0.2530  -12.3710   91.2560 C.3   103  ASP103      0.1410
    128  CG         1.0700  -13.6380   91.4630 C.2   103  ASP103      0.3668
    129  OD1        1.4890  -13.8970   92.6370 O.co2 103  ASP103     -0.2456
    130  OD2        1.2440  -14.4080   90.4750 O.co2 103  ASP103     -0.2456
    131  N          6.0760   -8.0130   96.9870 N.3   148  LEU148     -0.1245
    132  CA         4.8010   -8.5840   97.4050 C.3   148  LEU148      0.1561
    133  C          3.8880   -7.6060   98.0720 C.2   148  LEU148      0.2260
    134  O          4.3400   -6.5800   98.5710 O.2   148  LEU148     -0.2867
    135  CB         5.0300   -9.7610   98.3680 C.3   148  LEU148      0.0270
    136  CG         6.0010  -10.8450   97.9960 C.3   148  LEU148      0.0019
    137  CD1        5.8570  -11.8930   98.9350 C.3   148  LEU148      0.0001
    138  CD2        5.7340  -11.4220   96.6400 C.3   148  LEU148      0.0001
    139  N         11.0340   -9.1090   99.1080 N.3   158  VAL158     -0.1231
    140  CA        11.4360  -10.4770   99.4730 C.3   158  VAL158      0.1692
    141  C         12.6740  -10.9130   98.7040 C.2   158  VAL158      0.2592
    142  O         13.1460  -10.1780   97.8450 O.2   158  VAL158     -0.2718
    143  CB        10.2710  -11.5190   99.3770 C.3   158  VAL158      0.0266
    144  CG1        9.1260  -11.1590  100.3160 C.3   158  VAL158      0.0020
    145  CG2        9.7640  -11.6990   97.9540 C.3   158  VAL158      0.0020
    146  N         13.1870  -12.1160   99.0140 N.am  159  ASP159     -0.1974
    147  CA        14.3520  -12.7770   98.4120 C.3   159  ASP159      0.1709
    148  C         15.7010  -12.0800   98.5310 C.2   159  ASP159      0.2293
    149  O         16.0260  -11.1950   97.7500 O.2   159  ASP159     -0.2864
    150  CB        14.0820  -13.3290   96.9970 C.3   159  ASP159      0.1436
    151  CG        15.1760  -14.2460   96.4920 C.2   159  ASP159      0.3671
    152  OD1       15.5960  -15.1470   97.2560 O.co2 159  ASP159     -0.2456
    153  OD2       15.6370  -14.0470   95.3400 O.co2 159  ASP159     -0.2456
@<TRIPOS>BOND
     1   126   125    2
     2   125   124    1
     3   123   124    1
     4   124   127    1
     5   130   128   ar
     6   127   128    1
     7   128   129   ar
     8   122   121    1
     9   120   119    2
    10   119   118    1
    11   121   118    1
    12   118   117    1
    13    23    22    1
    14    12    13    1
    15   117   115   am
    16    22    21   ar
    17    22    20   ar
    18    21    19   ar
    19    10     9    1
    20    10    11    2
    21   153   151   ar
    22     4     3    2
    23    20    18   ar
    24    19    17   ar
    25   115   116    2
    26   115   114    1
    27     9     8    1
    28    18    17   ar
    29    13    14    1
    30    13    16    1
    31    17    16    1
    32   114   113    1
    33     3     8   am
    34     3     2    1
    35   151   150    1
    36   151   152   ar
    37    14    15    2
    38   138   136    1
    39   131   132    1
    40   150   147    1
    41     2     1    1
    42     2     5    1
    43   132   133    1
    44   132   135    1
    45   149   148    2
    46   142   141    2
    47   145   143    1
    48   136   135    1
    49   136   137    1
    50   133   134    2
    51     5     6    1
    52     5     7    1
    53   147   148    1
    54   147   146    1
    55    24    25    1
    56   141   146   am
    57   141   140    1
    58    27    26    2
    59   139   140    1
    60   112   111    2
    61    30    28    1
    62   143   140    1
    63   143   144    1
    64    28    25    1
    65    28    29    1
    66    25    26    1
    67   111   110    1
    68    44    43    1
    69    43    42    1
    70   106   105    2
    71    52    51   ar
    72    42    41    1
    73    41    40    1
    74   110   109    1
    75   105   109   am
    76   105   104    1
    77   107   104    1
    78   107   108    1
    79    53    51   ar
    80    51    50    1
    81   104   103    1
    82   102   100   ar
    83   102   101   ar
    84    40    37    1
    85   100    98   ar
    86    50    49    1
    87    37    38    1
    88    37    36    1
    89   103    94   am
    90    49    46    1
    91    38    39    2
    92   101    99   ar
    93    98    97   ar
    94    35    32    1
    95    66    63    1
    96    46    45    1
    97    46    47    1
    98    62    63    1
    99    99    97   ar
   100    97    96    1
   101    94    95    2
   102    94    93    1
   103    74    72    1
   104    61    59    1
   105    32    33    1
   106    32    31    1
   107    63    64    1
   108    86    85    2
   109    93    96    1
   110    93    92    1
   111    33    34    2
   112    60    59    1
   113    47    48    2
   114    82    81    1
   115    59    58    1
   116    80    79    1
   117    80    81    1
   118    71    72    1
   119    71    68    1
   120    65    64    2
   121    79    76    1
   122    72    73    1
   123    85    92   am
   124    85    84    1
   125    70    69    2
   126    67    68    1
   127    54    55    1
   128    68    69    1
   129    88    89    1
   130    88    87    1
   131    58    55    1
   132    90    89   ar
   133    89    91   ar
   134    55    56    1
   135    87    84    1
   136    84    83    1
   137    76    77    1
   138    76    75    1
   139    83    77   am
   140    77    78    2
   141    56    57    2
