@<TRIPOS>MOLECULE
tmp/2x7fA00.pdb
 164 153 0 0 0
SMALL
GASTEIGER

@<TRIPOS>ATOM
      1  N         31.8210  -11.9960   55.3840 N.3    17  VAL17      -0.1231
      2  CA        30.5140  -11.8780   54.7260 C.3    17  VAL17       0.1692
      3  C         30.4500  -10.7630   53.6760 C.2    17  VAL17       0.2592
      4  O         29.7560  -10.9070   52.6660 O.2    17  VAL17      -0.2718
      5  CB        29.2870  -11.8410   55.6940 C.3    17  VAL17       0.0266
      6  CG1       29.1850  -13.1120   56.5310 C.3    17  VAL17       0.0020
      7  CG2       29.2760  -10.5970   56.5780 C.3    17  VAL17       0.0020
      8  N         31.1430   -9.6620   53.9500 N.am   18  GLY18      -0.1957
      9  CA        31.1520   -8.4810   53.1000 C.3    18  GLY18       0.1869
     10  C         32.5140   -8.0800   52.5810 C.2    18  GLY18       0.2309
     11  O         33.5380   -8.2890   53.2400 O.2    18  GLY18      -0.2863
     12  N         32.2870   -0.5160   51.8240 N.3    22  TYR22      -0.1241
     13  CA        32.4080   -0.4970   53.2820 C.3    22  TYR22       0.1605
     14  C         33.6540   -1.2490   53.8300 C.2    22  TYR22       0.2264
     15  O         33.9750   -1.1020   55.0110 O.2    22  TYR22      -0.2867
     16  CB        31.1150   -1.0090   53.9450 C.3    22  TYR22       0.0534
     17  CG        30.4310   -2.2020   53.2940 C.ar   22  TYR22      -0.0201
     18  CD1       31.0480   -3.4550   53.2520 C.ar   22  TYR22      -0.0009
     19  CD2       29.1250   -2.1070   52.8230 C.ar   22  TYR22      -0.0009
     20  CE1       30.4020   -4.5630   52.6980 C.ar   22  TYR22       0.0417
     21  CE2       28.4660   -3.2120   52.2830 C.ar   22  TYR22       0.0417
     22  CZ        29.1090   -4.4370   52.2200 C.ar   22  TYR22       0.1957
     23  OH        28.4570   -5.5180   51.6750 O.3    22  TYR22      -0.2866
     24  N         34.1460   -7.0390   55.9660 N.3    25  VAL25      -0.1245
     25  CA        33.1610   -7.2980   57.0150 C.3    25  VAL25       0.1561
     26  C         33.0780   -8.7850   57.2940 C.2    25  VAL25       0.2260
     27  O         33.0050   -9.5920   56.3690 O.2    25  VAL25      -0.2867
     28  CB        31.7840   -6.6680   56.6700 C.3    25  VAL25       0.0252
     29  CG1       30.7410   -6.9300   57.7600 C.3    25  VAL25       0.0019
     30  CG2       31.9300   -5.1700   56.4360 C.3    25  VAL25       0.0019
     31  N         28.0730   -8.1770   63.2380 N.3    38  ALA38      -0.1245
     32  CA        28.8520   -7.8980   62.0410 C.3    38  ALA38       0.1562
     33  C         30.0680   -7.0880   62.4790 C.2    38  ALA38       0.2260
     34  O         29.9300   -6.0350   63.1120 O.2    38  ALA38      -0.2867
     35  CB        28.0370   -7.1250   61.0220 C.3    38  ALA38       0.0290
     36  N         33.3610   -5.1170   61.1820 N.3    40  LYS40      -0.1245
     37  CA        34.1140   -4.4870   60.1010 C.3    40  LYS40       0.1561
     38  C         35.5400   -4.3070   60.6150 C.2    40  LYS40       0.2260
     39  O         35.7560   -3.6410   61.6350 O.2    40  LYS40      -0.2867
     40  CB        33.5000   -3.1330   59.7220 C.3    40  LYS40       0.0271
     41  CG        34.3700   -2.3770   58.7280 C.3    40  LYS40       0.0035
     42  CD        33.8140   -1.0040   58.4030 C.3    40  LYS40       0.0206
     43  CE        34.9180   -0.1080   57.8630 C.3    40  LYS40       0.1093
     44  NZ        34.5520    1.3390   57.9170 N.3    40  LYS40      -0.1314
     45  N         32.9190    8.2050   61.6730 N.3    55  GLU55      -0.1245
     46  CA        32.0000    7.0900   61.3750 C.3    55  GLU55       0.1567
     47  C         31.4150    6.4930   62.6690 C.2    55  GLU55       0.2260
     48  O         30.2060    6.2470   62.7360 O.2    55  GLU55      -0.2867
     49  CB        32.6730    5.9990   60.5210 C.3    55  GLU55       0.0388
     50  CG        31.6740    4.9670   59.9950 C.3    55  GLU55       0.1160
     51  CD        32.1610    3.8750   59.0570 C.2    55  GLU55       0.3649
     52  OE1       31.3010    3.2100   58.4310 O.co2  55  GLU55      -0.2457
     53  OE2       33.3950    3.6770   58.9550 O.co2  55  GLU55      -0.2457
     54  N         27.4510    6.4350   63.9860 N.3    59  LEU59      -0.1245
     55  CA        26.8330    5.1790   64.3660 C.3    59  LEU59       0.1561
     56  C         26.3520    5.1850   65.8100 C.2    59  LEU59       0.2260
     57  O         25.2230    4.7690   66.0720 O.2    59  LEU59      -0.2867
     58  CB        27.7990    4.0090   64.1000 C.3    59  LEU59       0.0270
     59  CG        28.1430    3.7190   62.6270 C.3    59  LEU59       0.0019
     60  CD1       29.3890    2.8720   62.4980 C.3    59  LEU59       0.0001
     61  CD2       26.9920    3.0780   61.9060 C.3    59  LEU59       0.0001
     62  N         21.0780   -0.7730   61.0770 N.3    69  ALA69      -0.1245
     63  CA        21.8500   -1.7710   61.8290 C.3    69  ALA69       0.1562
     64  C         22.5150   -1.0450   62.9970 C.2    69  ALA69       0.2260
     65  O         23.1440    0.0020   62.7980 O.2    69  ALA69      -0.2867
     66  CB        22.8990   -2.4280   60.9480 C.3    69  ALA69       0.0290
     67  N         34.8570   -2.7530   64.1220 N.3    87  LEU87      -0.1245
     68  CA        33.5940   -2.0330   64.2360 C.3    87  LEU87       0.1561
     69  C         32.4740   -3.0460   64.3980 C.2    87  LEU87       0.2260
     70  O         32.1130   -3.7280   63.4350 O.2    87  LEU87      -0.2867
     71  CB        33.3960   -1.1660   62.9960 C.3    87  LEU87       0.0270
     72  CG        32.5180    0.0530   63.1550 C.3    87  LEU87       0.0019
     73  CD1       33.1130    1.0450   64.1590 C.3    87  LEU87       0.0001
     74  CD2       32.3240    0.7070   61.8080 C.3    87  LEU87       0.0001
     75  N         28.7420   -4.2720   64.8390 N.3    89  MET89      -0.1230
     76  CA        27.3930   -3.8920   64.4090 C.3    89  MET89       0.1702
     77  C         26.3740   -5.0470   64.5390 C.2    89  MET89       0.2592
     78  O         26.7490   -6.2140   64.7130 O.2    89  MET89      -0.2718
     79  CB        27.4150   -3.4370   62.9310 C.3    89  MET89       0.0401
     80  CG        28.3730   -2.2930   62.6090 C.3    89  MET89       0.0596
     81  SD        28.0490   -0.7400   63.4690 S.3    89  MET89      -0.1393
     82  CE        26.4780   -0.3540   62.8470 C.3    89  MET89       0.0692
     83  N         25.0850   -4.7100   64.4190 N.am   90  GLU90      -0.1966
     84  CA        23.9820   -5.6570   64.4130 C.3    90  GLU90       0.1733
     85  C         24.1420   -6.5280   63.1740 C.2    90  GLU90       0.2616
     86  O         24.4150   -6.0150   62.0840 O.2    90  GLU90      -0.2715
     87  CB        22.6490   -4.8900   64.3830 C.3    90  GLU90       0.0429
     88  CG        21.4290   -5.7630   64.1920 C.3    90  GLU90       0.1163
     89  CD        20.0770   -5.0860   64.1720 C.2    90  GLU90       0.3649
     90  OE1       20.0010   -3.8450   63.9940 O.co2  90  GLU90      -0.2457
     91  OE2       19.0790   -5.8310   64.3090 O.co2  90  GLU90      -0.2457
     92  N         24.0100   -7.8380   63.3400 N.am   91  PHE91      -0.1960
     93  CA        24.1480   -8.7540   62.2230 C.3    91  PHE91       0.1771
     94  C         22.8430   -8.9340   61.4470 C.2    91  PHE91       0.2620
     95  O         21.7670   -9.0540   62.0440 O.2    91  PHE91      -0.2715
     96  CB        24.7020  -10.0870   62.7080 C.3    91  PHE91       0.0574
     97  CG        25.0420  -11.0480   61.6040 C.ar   91  PHE91      -0.0200
     98  CD1       26.0420  -10.7500   60.6900 C.ar   91  PHE91      -0.0042
     99  CD2       24.3870  -12.2690   61.4990 C.ar   91  PHE91      -0.0042
    100  CE1       26.3610  -11.6410   59.6770 C.ar   91  PHE91      -0.0003
    101  CE2       24.7220  -13.1720   60.4980 C.ar   91  PHE91      -0.0003
    102  CZ        25.7030  -12.8510   59.5900 C.ar   91  PHE91      -0.0000
    103  N         22.9540   -8.9360   60.1090 N.am   92  CYS92      -0.1954
    104  CA        21.8380   -9.1040   59.1780 C.3    92  CYS92       0.1843
    105  C         22.1270  -10.3490   58.3440 C.2    92  CYS92       0.2626
    106  O         22.8020  -10.2810   57.3130 O.2    92  CYS92      -0.2714
    107  CB        21.6680   -7.8580   58.3150 C.3    92  CYS92       0.0997
    108  SG        21.5690   -6.3120   59.2590 S.3    92  CYS92      -0.0797
    109  N         21.6880  -11.4870   58.8800 N.am   93  GLY93      -0.1954
    110  CA        21.9140  -12.8270   58.3510 C.3    93  GLY93       0.1869
    111  C         21.5450  -13.1320   56.9130 C.2    93  GLY93       0.2309
    112  O         22.2570  -13.8970   56.2560 O.2    93  GLY93      -0.2863
    113  N         21.6620  -11.2560   54.2990 N.3    95  GLY95      -0.1210
    114  CA        22.4900  -10.5240   53.3490 C.3    95  GLY95       0.1956
    115  C         21.8160   -9.2770   52.8030 C.2    95  GLY95       0.2612
    116  O         20.8580   -8.7660   53.3990 O.2    95  GLY95      -0.2717
    117  N         22.3240   -8.7940   51.6460 N.am   96  SER96      -0.1952
    118  CA        21.8640   -7.5940   50.9610 C.3    96  SER96       0.1924
    119  C         20.7260   -7.8360   49.9860 C.2    96  SER96       0.2314
    120  O         20.4820   -8.9720   49.5670 O.2    96  SER96      -0.2863
    121  CB        23.0240   -6.9230   50.2320 C.3    96  SER96       0.2116
    122  OG        23.3930   -7.6580   49.0760 O.3    96  SER96      -0.2180
    123  N         22.0730   -9.3360   46.8180 N.3    99  ASP99      -0.1239
    124  CA        22.1380  -10.7990   46.9230 C.3    99  ASP99       0.1674
    125  C         20.7500  -11.4060   46.6870 C.2    99  ASP99       0.2266
    126  O         20.6330  -12.3910   45.9620 O.2    99  ASP99      -0.2867
    127  CB        22.6760  -11.2330   48.3000 C.3    99  ASP99       0.1410
    128  CG        24.1360  -10.9070   48.5680 C.2    99  ASP99       0.3668
    129  OD1       24.4610  -10.5390   49.7310 O.co2  99  ASP99      -0.2456
    130  OD2       24.9680  -11.0530   47.6280 O.co2  99  ASP99      -0.2456
    131  N         20.2290   -4.1970   53.8600 N.3   144  LEU144     -0.1245
    132  CA        20.3360   -5.5820   54.2980 C.3   144  LEU144      0.1561
    133  C         19.0780   -6.1090   54.9170 C.2   144  LEU144      0.2260
    134  O         18.2510   -5.3350   55.3910 O.2   144  LEU144     -0.2867
    135  CB        21.4820   -5.7540   55.3030 C.3   144  LEU144      0.0270
    136  CG        22.8480   -5.1890   54.9750 C.3   144  LEU144      0.0019
    137  CD1       23.7840   -5.6290   55.9600 C.3   144  LEU144      0.0001
    138  CD2       23.3660   -5.6650   53.6670 C.3   144  LEU144      0.0001
    139  N         22.8750    0.1110   56.0690 N.3   154  VAL154     -0.1231
    140  CA        24.2850    0.0440   56.4850 C.3   154  VAL154      0.1692
    141  C         25.1460    1.0650   55.7520 C.2   154  VAL154      0.2592
    142  O         24.6470    1.7600   54.8770 O.2   154  VAL154     -0.2718
    143  CB        24.8950   -1.3880   56.4390 C.3   154  VAL154      0.0266
    144  CG1       24.1490   -2.3310   57.3720 C.3   154  VAL154      0.0020
    145  CG2       24.9500   -1.9510   55.0230 C.3   154  VAL154      0.0020
    146  N         26.4380    1.1430   56.1140 N.am  155  ASP155     -0.1960
    147  CA        27.4710    2.0230   55.5510 C.3   155  ASP155      0.1840
    148  C         27.2620    3.5340   55.6570 C.2   155  ASP155      0.2622
    149  O         26.5510    4.1320   54.8530 O.2   155  ASP155     -0.2715
    150  CB        27.9620    1.5760   54.1580 C.3   155  ASP155      0.1450
    151  CG        29.2170    2.2990   53.6960 C.2   155  ASP155      0.3671
    152  OD1       30.1940    2.3750   54.4920 O.co2 155  ASP155     -0.2456
    153  OD2       29.2270    2.7910   52.5430 O.co2 155  ASP155     -0.2456
    154  N         27.9470    4.1410   56.6410 N.am  156  PHE156     -0.1974
    155  CA        27.9460    5.5750   56.9150 C.3   156  PHE156      0.1639
    156  C         29.3370    6.1910   56.6680 C.2   156  PHE156      0.2290
    157  O         29.6480    7.2740   57.1820 O.2   156  PHE156     -0.2864
    158  CB        27.4230    5.8560   58.3330 C.3   156  PHE156      0.0560
    159  CG        25.9300    5.6110   58.4530 C.ar  156  PHE156     -0.0200
    160  CD1       25.0230    6.6510   58.2990 C.ar  156  PHE156     -0.0042
    161  CD2       25.4330    4.3320   58.6930 C.ar  156  PHE156     -0.0042
    162  CE1       23.6520    6.4170   58.4010 C.ar  156  PHE156     -0.0003
    163  CE2       24.0590    4.0990   58.7850 C.ar  156  PHE156     -0.0003
    164  CZ        23.1790    5.1420   58.6460 C.ar  156  PHE156     -0.0000
@<TRIPOS>BOND
     1   126   125    2
     2   125   124    1
     3   123   124    1
     4   124   127    1
     5   130   128   ar
     6   127   128    1
     7   128   129   ar
     8   122   121    1
     9   120   119    2
    10   119   118    1
    11   121   118    1
    12   118   117    1
    13   117   115   am
    14    23    22    1
    15    12    13    1
    16    22    21   ar
    17    22    20   ar
    18    21    19   ar
    19   153   151   ar
    20    10     9    1
    21    10    11    2
    22     4     3    2
    23    20    18   ar
    24   115   114    1
    25   115   116    2
    26    19    17   ar
    27     9     8    1
    28    18    17   ar
    29    13    14    1
    30    13    16    1
    31    17    16    1
    32   114   113    1
    33   138   136    1
    34     3     8   am
    35     3     2    1
    36   151   150    1
    37   151   152   ar
    38    14    15    2
    39   131   132    1
    40   150   147    1
    41   132   133    1
    42   132   135    1
    43     2     1    1
    44     2     5    1
    45   149   148    2
    46   142   141    2
    47   133   134    2
    48   136   135    1
    49   136   137    1
    50   145   143    1
    51   147   148    1
    52   147   146    1
    53   148   154   am
    54     5     6    1
    55     5     7    1
    56   141   146   am
    57   141   140    1
    58    24    25    1
    59   139   140    1
    60   112   111    2
    61    27    26    2
    62    30    28    1
    63   143   140    1
    64   143   144    1
    65   154   155    1
    66   156   155    1
    67   156   157    2
    68    28    25    1
    69    28    29    1
    70   111   110    1
    71   155   158    1
    72    25    26    1
    73   106   105    2
    74    43    44    1
    75    43    42    1
    76   160   162   ar
    77   160   159   ar
    78   107   104    1
    79   107   108    1
    80   158   159    1
    81   105   109   am
    82   105   104    1
    83   110   109    1
    84   162   164   ar
    85    42    41    1
    86    52    51   ar
    87   159   161   ar
    88   164   163   ar
    89   161   163   ar
    90    41    40    1
    91    53    51   ar
    92    51    50    1
    93   104   103    1
    94   102   100   ar
    95   102   101   ar
    96   100    98   ar
    97    40    37    1
    98    50    49    1
    99    37    38    1
   100    37    36    1
   101   103    94   am
   102   101    99   ar
   103    49    46    1
   104    38    39    2
   105    98    97   ar
   106    66    63    1
   107    35    32    1
   108    62    63    1
   109    46    45    1
   110    46    47    1
   111    94    95    2
   112    94    93    1
   113    99    97   ar
   114    97    96    1
   115    74    72    1
   116    63    64    1
   117    61    59    1
   118    32    33    1
   119    32    31    1
   120    86    85    2
   121    93    96    1
   122    93    92    1
   123    33    34    2
   124    60    59    1
   125    80    79    1
   126    80    81    1
   127    59    58    1
   128    47    48    2
   129    65    64    2
   130    82    81    1
   131    79    76    1
   132    71    72    1
   133    71    68    1
   134    72    73    1
   135    85    92   am
   136    85    84    1
   137    70    69    2
   138    54    55    1
   139    90    89   ar
   140    58    55    1
   141    67    68    1
   142    89    88    1
   143    89    91   ar
   144    88    87    1
   145    68    69    1
   146    55    56    1
   147    87    84    1
   148    76    77    1
   149    76    75    1
   150    84    83    1
   151    83    77   am
   152    77    78    2
   153    56    57    2
