@<TRIPOS>MOLECULE
tmp/2x7hA03.pdb
 145 141 0 0 0
SMALL
GASTEIGER

@<TRIPOS>ATOM
      1  N        -17.1430   -2.1260   -3.3400 N.3    47  ASN47      -0.1225
      2  CA       -17.7410   -2.4070   -2.0400 C.3    47  ASN47       0.1785
      3  C        -19.2320   -2.6000   -2.2060 C.2    47  ASN47       0.2597
      4  O        -19.8620   -1.9220   -3.0370 O.2    47  ASN47      -0.2718
      5  CB       -17.4750   -1.2310   -1.1170 C.3    47  ASN47       0.1169
      6  CG       -16.0300   -1.1770   -0.6710 C.2    47  ASN47       0.2627
      7  OD1      -15.6210   -1.9670    0.1660 O.2    47  ASN47      -0.2716
      8  ND2      -15.2380   -0.2450   -1.2490 N.am   47  ASN47      -0.0877
      9  N        -19.8150   -3.4960   -1.4160 N.am   48  ALA48      -0.1966
     10  CA       -21.2580   -3.7160   -1.5130 C.3    48  ALA48       0.1728
     11  C        -22.0310   -2.4140   -1.4320 C.2    48  ALA48       0.2616
     12  O        -22.9660   -2.1630   -2.2170 O.2    48  ALA48      -0.2715
     13  CB       -21.7000   -4.6860   -0.4190 C.3    48  ALA48       0.0334
     14  N        -21.6370   -1.5600   -0.4970 N.am   49  SER49      -0.1950
     15  CA       -22.3500   -0.3080   -0.2610 C.3    49  SER49       0.1924
     16  C        -22.1150    0.7660   -1.3060 C.2    49  SER49       0.2314
     17  O        -22.6840    1.8450   -1.2010 O.2    49  SER49      -0.2863
     18  CB       -22.0300    0.2440    1.1250 C.3    49  SER49       0.2116
     19  OG       -23.0390   -0.1050    2.0120 O.3    49  SER49      -0.2180
     20  N        -25.5490    1.4910   -2.1630 N.3    52  ASN52      -0.1240
     21  CA       -26.2160    2.3060   -1.1560 C.3    52  ASN52       0.1653
     22  C        -25.8160    3.7720   -1.3380 C.2    52  ASN52       0.2266
     23  O        -26.6320    4.6680   -1.1480 O.2    52  ASN52      -0.2867
     24  CB       -25.8890    1.8340    0.2590 C.3    52  ASN52       0.1155
     25  CG       -26.5360    0.5080    0.5930 C.2    52  ASN52       0.2627
     26  OD1      -27.6890    0.2530    0.2280 O.2    52  ASN52      -0.2716
     27  ND2      -25.7890   -0.3500    1.2930 N.am   52  ASN52      -0.0877
     28  N        -26.6380    7.5310    2.2230 N.3    58  TYR58      -0.1241
     29  CA       -25.7710    8.0820    3.2650 C.3    58  TYR58       0.1605
     30  C        -26.1680    9.5090    3.6380 C.2    58  TYR58       0.2264
     31  O        -25.9280    9.9480    4.7580 O.2    58  TYR58      -0.2867
     32  CB       -24.3260    8.0620    2.8230 C.3    58  TYR58       0.0534
     33  CG       -23.6750    6.7000    2.8030 C.ar   58  TYR58      -0.0201
     34  CD1      -22.6370    6.4000    3.6760 C.ar   58  TYR58      -0.0009
     35  CD2      -24.0610    5.7330    1.9000 C.ar   58  TYR58      -0.0009
     36  CE1      -22.0200    5.1630    3.6550 C.ar   58  TYR58       0.0417
     37  CE2      -23.4450    4.4880    1.8640 C.ar   58  TYR58       0.0417
     38  CZ       -22.4290    4.2150    2.7520 C.ar   58  TYR58       0.1957
     39  OH       -21.7960    3.0000    2.7360 O.3    58  TYR58      -0.2866
     40  N        -15.0250    4.3750   -2.5240 N.3    70  PHE70      -0.1241
     41  CA       -14.6520    4.6050   -1.1240 C.3    70  PHE70       0.1605
     42  C        -13.1590    4.4800   -0.8200 C.2    70  PHE70       0.2264
     43  O        -12.7400    4.8080    0.2970 O.2    70  PHE70      -0.2867
     44  CB       -15.3750    3.5970   -0.2150 C.3    70  PHE70       0.0534
     45  CG       -16.8610    3.7710   -0.1320 C.ar   70  PHE70      -0.0203
     46  CD1      -17.4290    4.9810    0.2380 C.ar   70  PHE70      -0.0042
     47  CD2      -17.7020    2.6740   -0.3400 C.ar   70  PHE70      -0.0042
     48  CE1      -18.8170    5.1020    0.3450 C.ar   70  PHE70      -0.0003
     49  CE2      -19.0660    2.8050   -0.2190 C.ar   70  PHE70      -0.0003
     50  CZ       -19.6110    4.0110    0.1140 C.ar   70  PHE70      -0.0000
     51  N         -8.9420    5.5840    2.4240 N.3    96  MET96      -0.1245
     52  CA       -10.3820    5.4110    2.4590 C.3    96  MET96       0.1570
     53  C        -10.9500    6.8210    2.4730 C.2    96  MET96       0.2261
     54  O        -10.8910    7.5150    3.4760 O.2    96  MET96      -0.2867
     55  CB       -10.8050    4.6410    3.7010 C.3    96  MET96       0.0387
     56  CG       -12.3190    4.4500    3.8190 C.3    96  MET96       0.0595
     57  SD       -12.7730    3.5420    5.3260 S.3    96  MET96      -0.1393
     58  CE       -12.5940    4.8060    6.5800 C.3    96  MET96       0.0692
     59  N        -10.7750   -1.0710    4.0020 N.3   127  VAL127     -0.1245
     60  CA       -12.1920   -1.1050    4.4090 C.3   127  VAL127      0.1561
     61  C        -12.5580   -2.4940    4.9110 C.2   127  VAL127      0.2260
     62  O        -13.0940   -2.6500    6.0030 O.2   127  VAL127     -0.2867
     63  CB       -13.1360   -0.6450    3.2400 C.3   127  VAL127      0.0252
     64  CG1      -14.6230   -0.9470    3.5680 C.3   127  VAL127      0.0019
     65  CG2      -12.9360    0.8270    2.9210 C.3   127  VAL127      0.0019
     66  N        -12.7500   -3.1850    8.9470 N.3   131  THR131     -0.1218
     67  CA       -14.1110   -3.4810    9.4260 C.3   131  THR131      0.1862
     68  C        -14.1260   -4.7460   10.2590 C.2   131  THR131      0.2287
     69  O        -14.6650   -4.7540   11.3540 O.2   131  THR131     -0.2866
     70  CB       -15.1190   -3.5800    8.2520 C.3   131  THR131      0.1770
     71  OG1      -15.2580   -2.2910    7.6510 O.3   131  THR131     -0.2211
     72  CG2      -16.5030   -4.0630    8.7280 C.3   131  THR131      0.0375
     73  N        -23.0060   -6.3710   10.5590 N.3   241  ILE241     -0.1231
     74  CA       -22.0270   -5.7540    9.6940 C.3   241  ILE241      0.1692
     75  C        -22.7000   -5.1930    8.4420 C.2   241  ILE241      0.2593
     76  O        -22.3410   -4.1230    7.9450 O.2   241  ILE241     -0.2718
     77  CB       -20.9440   -6.7950    9.3260 C.3   241  ILE241      0.0266
     78  CG1      -20.2000   -7.2440   10.5820 C.3   241  ILE241      0.0019
     79  CG2      -19.9500   -6.2450    8.2780 C.3   241  ILE241      0.0020
     80  CD1      -19.2910   -6.1600   11.2180 C.3   241  ILE241      0.0001
     81  N        -23.7330   -5.8800    7.9670 N.am  242  GLY242     -0.1942
     82  CA       -24.4880   -5.4060    6.8130 C.3   242  GLY242      0.2014
     83  C        -25.6010   -6.3680    6.4820 C.2   242  GLY242      0.2638
     84  O        -25.8280   -7.3320    7.2100 O.2   242  GLY242     -0.2714
     85  N        -26.2890   -6.1090    5.3820 N.am  243  PHE243     -0.1973
     86  CA       -27.3540   -6.9820    4.9310 C.3   243  PHE243      0.1639
     87  C        -27.4930   -6.9030    3.3970 C.2   243  PHE243      0.2290
     88  O        -28.4800   -6.4010    2.8500 O.2   243  PHE243     -0.2864
     89  CB       -28.6780   -6.6940    5.6560 C.3   243  PHE243      0.0560
     90  CG       -28.9410   -5.2390    5.9310 C.ar  243  PHE243     -0.0200
     91  CD1      -29.5860   -4.4370    5.0180 C.ar  243  PHE243     -0.0042
     92  CD2      -28.5390   -4.6760    7.1370 C.ar  243  PHE243     -0.0042
     93  CE1      -29.8230   -3.0950    5.2800 C.ar  243  PHE243     -0.0003
     94  CE2      -28.7730   -3.3290    7.4020 C.ar  243  PHE243     -0.0003
     95  CZ       -29.4120   -2.5380    6.4690 C.ar  243  PHE243     -0.0000
     96  N        -29.7640   -4.7540   -0.4150 N.3   247  TYR247     -0.1241
     97  CA       -29.3430   -3.4270   -0.9100 C.3   247  TYR247      0.1605
     98  C        -29.9270   -3.0330   -2.2620 C.2   247  TYR247      0.2264
     99  O        -30.1020   -1.8520   -2.5490 O.2   247  TYR247     -0.2867
    100  CB       -27.8280   -3.2890   -0.9540 C.3   247  TYR247      0.0534
    101  CG       -27.1070   -3.4290    0.3770 C.ar  247  TYR247     -0.0201
    102  CD1      -27.7810   -3.2850    1.6170 C.ar  247  TYR247     -0.0009
    103  CD2      -25.7340   -3.6650    0.4050 C.ar  247  TYR247     -0.0009
    104  CE1      -27.0800   -3.4010    2.8150 C.ar  247  TYR247      0.0417
    105  CE2      -25.0490   -3.7990    1.5970 C.ar  247  TYR247      0.0417
    106  CZ       -25.7280   -3.6710    2.8010 C.ar  247  TYR247      0.1957
    107  OH       -25.0280   -3.8050    4.0000 O.3   247  TYR247     -0.2866
    108  N        -22.6820   -2.2890   13.6660 N.3   275  PHE275     -0.1227
    109  CA       -21.3290   -1.7190   13.5610 C.3   275  PHE275      0.1736
    110  C        -21.2190   -0.9110   12.2930 C.2   275  PHE275      0.2595
    111  O        -21.5090   -1.4300   11.2290 O.2   275  PHE275     -0.2718
    112  CB       -20.2840   -2.8350   13.4880 C.3   275  PHE275      0.0547
    113  CG       -18.8760   -2.3120   13.3120 C.ar  275  PHE275     -0.0202
    114  CD1      -18.1440   -1.8840   14.4000 C.ar  275  PHE275     -0.0042
    115  CD2      -18.3150   -2.2230   12.0480 C.ar  275  PHE275     -0.0042
    116  CE1      -16.8680   -1.4030   14.2430 C.ar  275  PHE275     -0.0003
    117  CE2      -17.0320   -1.7300   11.8810 C.ar  275  PHE275     -0.0003
    118  CZ       -16.3180   -1.3190   12.9810 C.ar  275  PHE275     -0.0000
    119  N        -20.8430    0.3610   12.4240 N.am  276  PHE276     -0.1962
    120  CA       -20.5730    1.2200   11.2700 C.3   276  PHE276      0.1771
    121  C        -19.1260    1.7000   11.4240 C.2   276  PHE276      0.2619
    122  O        -18.7680    2.3290   12.4190 O.2   276  PHE276     -0.2715
    123  CB       -21.5550    2.3950   11.2930 C.3   276  PHE276      0.0574
    124  CG       -21.4760    3.3080   10.0770 C.ar  276  PHE276     -0.0200
    125  CD1      -21.5800    2.8100    8.7880 C.ar  276  PHE276     -0.0042
    126  CD2      -21.3520    4.6690   10.2400 C.ar  276  PHE276     -0.0042
    127  CE1      -21.5280    3.6760    7.6840 C.ar  276  PHE276     -0.0003
    128  CE2      -21.2970    5.5310    9.1380 C.ar  276  PHE276     -0.0003
    129  CZ       -21.3820    5.0280    7.8710 C.ar  276  PHE276     -0.0000
    130  N        -18.2860    1.3510   10.4520 N.am  277  LEU277     -0.1963
    131  CA       -16.8500    1.6270   10.5530 C.3   277  LEU277      0.1728
    132  C        -16.5820    3.0880   10.8740 C.2   277  LEU277      0.2616
    133  O        -15.7140    3.4020   11.6830 O.2   277  LEU277     -0.2715
    134  CB       -16.1460    1.2290    9.2480 C.3   277  LEU277      0.0311
    135  CG       -14.6360    1.4640    9.1610 C.3   277  LEU277      0.0022
    136  CD1      -13.8500    0.6880   10.2480 C.3   277  LEU277      0.0001
    137  CD2      -14.1530    1.1000    7.7620 C.3   277  LEU277      0.0001
    138  N        -17.3470    3.9910   10.2730 N.am  278  ASN278     -0.1972
    139  CA       -17.0750    5.4230   10.4500 C.3   278  ASN278      0.1688
    140  C        -17.4020    5.9880   11.8510 C.2   278  ASN278      0.2292
    141  O        -17.0960    7.1550   12.1340 O.2   278  ASN278     -0.2864
    142  CB       -17.7230    6.2530    9.3290 C.3   278  ASN278      0.1181
    143  CG       -16.7700    6.5070    8.1420 C.2   278  ASN278      0.2629
    144  OD1      -17.1490    7.1600    7.1730 O.2   278  ASN278     -0.2716
    145  ND2      -15.5510    5.9930    8.2160 N.am  278  ASN278     -0.0877
@<TRIPOS>BOND
     1     1     2    1
     2     4     3    2
     3    99    98    2
     4    40    41    1
     5    98    97    1
     6    12    11    2
     7     3     2    1
     8     3     9   am
     9    20    21    1
    10     2     5    1
    11    10    11    1
    12    10     9    1
    13    10    13    1
    14    11    14   am
    15    22    21    1
    16    22    23    2
    17    16    17    2
    18    16    15    1
    19     8     6   am
    20    21    24    1
    21    41    42    1
    22    41    44    1
    23     5     6    1
    24   100    97    1
    25   100   101    1
    26    97    96    1
    27    42    43    2
    28     6     7    2
    29    14    15    1
    30    47    49   ar
    31    47    45   ar
    32    15    18    1
    33    49    50   ar
    34    44    45    1
    35    45    46   ar
    36    50    48   ar
    37    26    25    2
    38    46    48   ar
    39    24    25    1
    40   101   103   ar
    41   101   102   ar
    42   103   105   ar
    43    25    27   am
    44    18    19    1
    45   105   106   ar
    46   102   104   ar
    47    37    35   ar
    48    37    38   ar
    49    35    33   ar
    50    28    29    1
    51    51    52    1
    52    52    53    1
    53    52    55    1
    54    53    54    2
    55    39    38    1
    56    38    36   ar
    57   106   104   ar
    58   106   107    1
    59    33    32    1
    60    33    34   ar
    61    32    29    1
    62    88    87    2
    63    65    63    1
    64    63    64    1
    65    63    60    1
    66    29    30    1
    67    87    86    1
    68    30    31    2
    69    36    34   ar
    70    55    56    1
    71    56    57    1
    72    59    60    1
    73    60    61    1
    74    61    62    2
    75    86    85    1
    76    86    89    1
    77    91    93   ar
    78    91    90   ar
    79    93    95   ar
    80    57    58    1
    81    85    83   am
    82    89    90    1
    83    90    92   ar
    84    95    94   ar
    85    83    82    1
    86    83    84    2
    87    82    81    1
    88    92    94   ar
    89   144   143    2
    90    71    70    1
    91   127   129   ar
    92   127   125   ar
    93   137   135    1
    94   129   128   ar
    95    76    75    2
    96    81    75   am
    97   143   145   am
    98   143   142    1
    99    70    72    1
   100    70    67    1
   101    79    77    1
   102    75    74    1
   103   125   124   ar
   104    66    67    1
   105   128   126   ar
   106   135   134    1
   107   135   136    1
   108   134   131    1
   109    77    74    1
   110    77    78    1
   111   142   139    1
   112    67    68    1
   113    74    73    1
   114   124   126   ar
   115   124   123    1
   116    68    69    2
   117   138   139    1
   118   138   132   am
   119   139   140    1
   120   130   131    1
   121   130   121   am
   122   131   132    1
   123    78    80    1
   124   132   133    2
   125   111   110    2
   126   120   123    1
   127   120   121    1
   128   120   119    1
   129   121   122    2
   130   140   141    2
   131   117   115   ar
   132   117   118   ar
   133   115   113   ar
   134   110   119   am
   135   110   109    1
   136   118   116   ar
   137   113   112    1
   138   113   114   ar
   139   112   109    1
   140   109   108    1
   141   116   114   ar
