@<TRIPOS>MOLECULE
tmp/2x7iA00.pdb
 128 124 0 0 0
SMALL
GASTEIGER

@<TRIPOS>ATOM
      1  N        -33.6880   19.0350   20.5870 N.3    11  LYS11      -0.1245
      2  CA       -35.0830   19.2040   20.1660 C.3    11  LYS11       0.1561
      3  C        -35.1760   19.9660   18.8440 C.2    11  LYS11       0.2260
      4  O        -34.2610   20.7010   18.4790 O.2    11  LYS11      -0.2867
      5  CB       -35.8920   19.8890   21.2700 C.3    11  LYS11       0.0271
      6  CG       -36.2740   21.3270   21.0360 C.3    11  LYS11       0.0035
      7  CD       -35.0960   22.2910   20.9960 C.3    11  LYS11       0.0206
      8  CE       -35.4660   23.5050   20.1510 C.3    11  LYS11       0.1093
      9  NZ       -34.4820   24.6050   20.1980 N.3    11  LYS11      -0.1314
     10  N        -37.9990   30.7200   16.1040 N.3    18  HIS18      -0.1226
     11  CA       -36.8240   30.4490   16.9080 C.3    18  HIS18       0.1752
     12  C        -37.0010   30.9730   18.3370 C.2    18  HIS18       0.2595
     13  O        -37.5680   32.0340   18.5480 O.2    18  HIS18      -0.2718
     14  CB       -35.6120   31.1190   16.2340 C.3    18  HIS18       0.0759
     15  CG       -34.3630   31.0820   17.0520 C.ar   18  HIS18       0.0818
     16  ND1      -33.9070   32.1740   17.7600 N.ar   18  HIS18      -0.2268
     17  CD2      -33.4590   30.0960   17.2610 C.ar   18  HIS18       0.1154
     18  CE1      -32.7830   31.8600   18.3810 C.ar   18  HIS18       0.1986
     19  NE2      -32.4870   30.6060   18.0930 N.ar   18  HIS18      -0.2212
     20  N        -36.5010   30.2180   19.3130 N.am   19  ALA19      -0.1980
     21  CA       -36.5190   30.6300   20.7240 C.3    19  ALA19       0.1597
     22  C        -37.9240   31.0490   21.1570 C.2    19  ALA19       0.2287
     23  O        -38.1210   32.0620   21.8320 O.2    19  ALA19      -0.2864
     24  CB       -35.5150   31.7610   20.9650 C.3    19  ALA19       0.0319
     25  N        -19.7270   25.4080   21.1670 N.3    62  ASP62      -0.1239
     26  CA       -20.7920   26.3420   21.4960 C.3    62  ASP62       0.1674
     27  C        -20.2640   27.3620   22.4980 C.2    62  ASP62       0.2266
     28  O        -20.4940   27.2410   23.6970 O.2    62  ASP62      -0.2867
     29  CB       -22.0010   25.5910   22.0710 C.3    62  ASP62       0.1410
     30  CG       -23.2070   26.4780   22.2380 C.2    62  ASP62       0.3668
     31  OD1      -23.1790   27.6130   21.7300 O.co2  62  ASP62      -0.2456
     32  OD2      -24.1840   26.0510   22.8880 O.co2  62  ASP62      -0.2456
     33  N        -22.2640   28.9830   25.4200 N.3    65  ASP65      -0.1239
     34  CA       -22.7790   28.1060   26.4800 C.3    65  ASP65       0.1674
     35  C        -21.6670   27.8190   27.4930 C.2    65  ASP65       0.2266
     36  O        -20.7880   27.0020   27.2470 O.2    65  ASP65      -0.2867
     37  CB       -23.3230   26.8060   25.8790 C.3    65  ASP65       0.1410
     38  CG       -24.3280   26.1140   26.7850 C.2    65  ASP65       0.3668
     39  OD1      -24.8610   26.7460   27.7130 O.co2  65  ASP65      -0.2456
     40  OD2      -24.6080   24.9270   26.5580 O.co2  65  ASP65      -0.2456
     41  N        -24.5450   21.0470   16.6190 N.3    93  PRO93      -0.2103
     42  CA       -23.8950   22.3090   16.3060 C.3    93  PRO93       0.1489
     43  C        -24.5070   23.4250   17.1400 C.2    93  PRO93       0.2418
     44  O        -25.6600   23.3160   17.5730 O.2    93  PRO93      -0.2734
     45  CB       -24.2270   22.5050   14.8270 C.3    93  PRO93       0.0282
     46  CG       -25.5390   21.8890   14.6720 C.3    93  PRO93       0.0208
     47  CD       -25.5510   20.6970   15.6010 C.3    93  PRO93       0.0893
     48  N        -23.7400   24.4900   17.3790 N.am   94  PRO94      -0.2718
     49  CA       -24.2940   25.6000   18.1150 C.3    94  PRO94       0.1535
     50  C        -25.2040   26.4880   17.2410 C.2    94  PRO94       0.2599
     51  O        -24.9580   26.6400   16.0290 O.2    94  PRO94      -0.2715
     52  CB       -23.0490   26.3610   18.5510 C.3    94  PRO94       0.0310
     53  CG       -22.0550   26.0880   17.4460 C.3    94  PRO94       0.0237
     54  CD       -22.3550   24.7330   16.9440 C.3    94  PRO94       0.0939
     55  N        -26.2480   27.0300   17.8740 N.am   95  SER95      -0.1936
     56  CA       -27.0550   28.1340   17.3510 C.3    95  SER95       0.2055
     57  C        -27.8930   27.7910   16.1160 C.2    95  SER95       0.2643
     58  O        -28.2220   28.6820   15.3320 O.2    95  SER95      -0.2714
     59  CB       -26.1670   29.3580   17.0680 C.3    95  SER95       0.2130
     60  OG       -25.4660   29.7420   18.2400 O.3    95  SER95      -0.2179
     61  N        -28.2430   26.5180   15.9640 N.am   96  ARG96      -0.1963
     62  CA       -29.0860   26.0530   14.8670 C.3    96  ARG96       0.1729
     63  C        -30.4980   25.6830   15.3410 C.2    96  ARG96       0.2617
     64  O        -31.2690   25.0980   14.5860 O.2    96  ARG96      -0.2715
     65  CB       -28.4610   24.8190   14.2030 C.3    96  ARG96       0.0348
     66  CG       -27.0120   24.9730   13.7550 C.3    96  ARG96       0.0492
     67  CD       -26.7730   26.1520   12.8310 C.3    96  ARG96       0.2205
     68  NE       -27.5840   26.0850   11.6090 N.pl3  96  ARG96      -0.0865
     69  CZ       -27.2620   26.6360   10.4380 C.cat  96  ARG96       0.5346
     70  NH1      -26.1250   27.2950   10.2760 N.pl3  96  ARG96       0.1354
     71  NH2      -28.0890   26.5090    9.4100 N.pl3  96  ARG96       0.1354
     72  N        -30.8230   25.9980   16.5910 N.am   97  GLY97      -0.1940
     73  CA       -32.1400   25.6910   17.1450 C.3    97  GLY97       0.2014
     74  C        -32.3150   24.2390   17.5570 C.2    97  GLY97       0.2639
     75  O        -33.4330   23.7900   17.7580 O.2    97  GLY97      -0.2714
     76  N        -31.2160   23.4970   17.6980 N.am   98  LEU98      -0.1963
     77  CA       -31.3030   22.0540   17.9760 C.3    98  LEU98       0.1728
     78  C        -31.3460   21.7570   19.4850 C.2    98  LEU98       0.2617
     79  O        -31.2780   20.6020   19.9020 O.2    98  LEU98      -0.2715
     80  CB       -30.1880   21.2910   17.2540 C.3    98  LEU98       0.0311
     81  CG       -30.2170   21.4460   15.7150 C.3    98  LEU98       0.0022
     82  CD1      -28.9160   21.0200   15.0640 C.3    98  LEU98       0.0001
     83  CD2      -31.3680   20.7030   15.0710 C.3    98  LEU98       0.0001
     84  N        -31.4860   22.8080   20.2930 N.am   99  GLY99      -0.1940
     85  CA       -31.6920   22.6680   21.7250 C.3    99  GLY99       0.2014
     86  C        -30.4090   22.3790   22.4770 C.2    99  GLY99       0.2640
     87  O        -30.4210   21.6990   23.5050 O.2    99  GLY99      -0.2714
     88  N        -29.3060   22.9200   21.9760 N.am  100  SER100     -0.1935
     89  CA       -27.9920   22.6330   22.5060 C.3   100  SER100      0.2055
     90  C        -27.8110   23.0760   23.9620 C.2   100  SER100      0.2644
     91  O        -27.3340   22.3140   24.7990 O.2   100  SER100     -0.2714
     92  CB       -26.9550   23.3200   21.6300 C.3   100  SER100      0.2130
     93  OG       -25.7120   22.7100   21.7780 O.3   100  SER100     -0.2179
     94  N        -28.1730   24.3200   24.2630 N.am  101  SER101     -0.1935
     95  CA       -28.0770   24.8160   25.6310 C.3   101  SER101      0.2055
     96  C        -28.9140   23.9780   26.6080 C.2   101  SER101      0.2642
     97  O        -28.4610   23.6450   27.6950 O.2   101  SER101     -0.2714
     98  CB       -28.5100   26.2730   25.6980 C.3   101  SER101      0.2130
     99  OG       -28.4740   26.7280   27.0420 O.3   101  SER101     -0.2179
    100  N        -30.1320   23.6430   26.2160 N.am  102  ALA102     -0.1977
    101  CA       -31.0060   22.8460   27.0660 C.3   102  ALA102      0.1597
    102  C        -30.5010   21.4040   27.2080 C.2   102  ALA102      0.2287
    103  O        -30.5730   20.8310   28.2910 O.2   102  ALA102     -0.2864
    104  CB       -32.4250   22.8770   26.5390 C.3   102  ALA102      0.0319
    105  N        -26.0330   30.1030   29.8500 N.3   137  HIS137     -0.1241
    106  CA       -26.3720   30.6560   28.5310 C.3   137  HIS137      0.1621
    107  C        -27.1270   32.0000   28.5830 C.2   137  HIS137      0.2264
    108  O        -27.2900   32.6560   27.5520 O.2   137  HIS137     -0.2867
    109  CB       -27.1790   29.6060   27.7500 C.3   137  HIS137      0.0745
    110  CG       -27.4150   29.9470   26.3110 C.ar  137  HIS137      0.0817
    111  ND1      -26.4010   30.3020   25.4480 N.ar  137  HIS137     -0.2268
    112  CD2      -28.5550   29.9610   25.5780 C.ar  137  HIS137      0.1154
    113  CE1      -26.9080   30.5390   24.2500 C.ar  137  HIS137      0.1986
    114  NE2      -28.2130   30.3330   24.3010 N.ar  137  HIS137     -0.2212
    115  N        -34.9850   27.9850   28.2220 N.3   141  SER141     -0.1217
    116  CA       -35.9970   27.7440   27.2130 C.3   141  SER141      0.1889
    117  C        -36.9760   26.7340   27.7870 C.2   141  SER141      0.2288
    118  O        -36.6710   25.5510   27.8720 O.2   141  SER141     -0.2866
    119  CB       -35.3670   27.2520   25.9110 C.3   141  SER141      0.2089
    120  OG       -36.3750   27.0200   24.9320 O.3   141  SER141     -0.2183
    121  N        -38.0200   23.9660   25.1710 N.3   144  ASP144     -0.1239
    122  CA       -36.9300   23.0280   24.8810 C.3   144  ASP144      0.1674
    123  C        -36.7550   22.0610   26.0540 C.2   144  ASP144      0.2266
    124  O        -36.7150   20.8580   25.8600 O.2   144  ASP144     -0.2867
    125  CB       -35.5980   23.7510   24.6370 C.3   144  ASP144      0.1410
    126  CG       -35.6050   24.6640   23.3970 C.2   144  ASP144      0.3668
    127  OD1      -36.6780   24.8940   22.7870 O.co2 144  ASP144     -0.2456
    128  OD2      -34.5050   25.1680   23.0410 O.co2 144  ASP144     -0.2456
@<TRIPOS>BOND
     1    71    69    1
     2    70    69    1
     3    69    68    2
     4    68    67    1
     5    67    66    1
     6    66    65    1
     7    65    62    1
     8    64    63    2
     9    46    45    1
    10    46    47    1
    11    45    42    1
    12    62    63    1
    13    62    61    1
    14    82    81    1
    15    83    81    1
    16    58    57    2
    17    63    72   am
    18    47    41    1
    19    81    80    1
    20    61    57   am
    21    51    50    2
    22    10    11    1
    23    57    56    1
    24    14    11    1
    25    14    15    1
    26    42    41    1
    27    42    43    1
    28    72    73    1
    29    11    12    1
    30    54    48    1
    31    54    53    1
    32    15    17   ar
    33    15    16   ar
    34    59    56    1
    35    59    60    1
    36    43    48   am
    37    43    44    2
    38    73    74    1
    39    50    55   am
    40    50    49    1
    41    80    77    1
    42    17    19   ar
    43    56    55    1
    44    48    49    1
    45    53    52    1
    46    74    76   am
    47    74    75    2
    48    76    77    1
    49    16    18   ar
    50    77    78    1
    51    19    18   ar
    52    49    52    1
    53    12    13    2
    54    12    20   am
    55     4     3    2
    56     3     2    1
    57    20    21    1
    58    78    79    2
    59    78    84   am
    60     8     9    1
    61     8     7    1
    62     2     1    1
    63     2     5    1
    64    84    85    1
    65    21    24    1
    66    21    22    1
    67     7     6    1
    68     6     5    1
    69    22    23    2
    70    25    26    1
    71    26    29    1
    72    26    27    1
    73    92    93    1
    74    92    89    1
    75    85    86    1
    76    31    30   ar
    77    88    86   am
    78    88    89    1
    79    29    30    1
    80    30    32   ar
    81    86    87    2
    82    27    28    2
    83    89    90    1
    84   127   126   ar
    85   128   126   ar
    86   126   125    1
    87    90    94   am
    88    90    91    2
    89   113   114   ar
    90   113   111   ar
    91    94    95    1
    92   114   112   ar
    93   125   122    1
    94   122   121    1
    95   122   123    1
    96   120   119    1
    97    33    34    1
    98   111   110   ar
    99   112   110   ar
   100    95    98    1
   101    95    96    1
   102    98    99    1
   103   124   123    2
   104    37    34    1
   105    37    38    1
   106   119   116    1
   107   100    96   am
   108   100   101    1
   109   110   109    1
   110    34    35    1
   111   104   101    1
   112    40    38   ar
   113    96    97    2
   114    38    39   ar
   115   101   102    1
   116   102   103    2
   117   116   117    1
   118   116   115    1
   119    36    35    2
   120   108   107    2
   121   109   106    1
   122   117   118    2
   123   106   107    1
   124   106   105    1
