@<TRIPOS>MOLECULE
tmp/2x7jD01.pdb
 146 142 0 0 0
SMALL
GASTEIGER

@<TRIPOS>ATOM
      1  N         93.7640  -47.7240  -33.1840 N.3   382  GLU382     -0.1245
      2  CA        93.0080  -46.6470  -32.5520 C.3   382  GLU382      0.1567
      3  C         92.4350  -47.1130  -31.2210 C.2   382  GLU382      0.2260
      4  O         92.3840  -46.3580  -30.2430 O.2   382  GLU382     -0.2867
      5  CB        91.9080  -46.1470  -33.5050 C.3   382  GLU382      0.0388
      6  CG        91.3730  -44.7460  -33.1960 C.3   382  GLU382      0.1160
      7  CD        90.7060  -44.0650  -34.4000 C.2   382  GLU382      0.3649
      8  OE1       89.5090  -43.6540  -34.2960 O.co2 382  GLU382     -0.2457
      9  OE2       91.3790  -43.9440  -35.4550 O.co2 382  GLU382     -0.2457
     10  N         82.0650  -37.1860  -31.2280 N.3   403  ASN403     -0.1225
     11  CA        81.2110  -38.1160  -31.9550 C.3   403  ASN403      0.1785
     12  C         82.0280  -38.8650  -33.0000 C.2   403  ASN403      0.2598
     13  O         83.2400  -38.6810  -33.0970 O.2   403  ASN403     -0.2718
     14  CB        80.0370  -37.3770  -32.5850 C.3   403  ASN403      0.1169
     15  CG        78.9300  -37.1020  -31.5800 C.2   403  ASN403      0.2627
     16  OD1       78.3830  -38.0370  -30.9990 O.2   403  ASN403     -0.2716
     17  ND2       78.5910  -35.8250  -31.3690 N.am  403  ASN403     -0.0877
     18  N         81.3740  -39.7120  -33.7790 N.am  404  SER404     -0.1938
     19  CA        82.0760  -40.6810  -34.6180 C.3   404  SER404      0.2055
     20  C         82.7270  -41.7370  -33.7160 C.2   404  SER404      0.2643
     21  O         82.1670  -42.0720  -32.6780 O.2   404  SER404     -0.2714
     22  CB        83.0740  -40.0080  -35.5580 C.3   404  SER404      0.2130
     23  OG        83.2360  -40.7870  -36.7490 O.3   404  SER404     -0.2179
     24  N         83.8890  -42.2660  -34.0790 N.am  405  MET405     -0.1963
     25  CA        84.4080  -43.4480  -33.3600 C.3   405  MET405      0.1722
     26  C         84.7210  -43.2640  -31.8750 C.2   405  MET405      0.2458
     27  O         84.5800  -44.2090  -31.1080 O.2   405  MET405     -0.2730
     28  CB        85.6240  -44.0560  -34.0660 C.3   405  MET405      0.0427
     29  CG        85.2720  -44.8550  -35.3020 C.3   405  MET405      0.0599
     30  SD        84.0030  -46.0950  -34.9920 S.3   405  MET405     -0.1393
     31  CE        84.7800  -47.1790  -33.7720 C.3   405  MET405      0.0692
     32  N         85.1760  -42.0610  -31.4710 N.am  406  PRO406     -0.2727
     33  CA        85.5900  -41.8830  -30.0840 C.3   406  PRO406      0.1402
     34  C         84.5480  -42.2540  -29.0290 C.2   406  PRO406      0.2269
     35  O         84.8920  -42.8710  -28.0170 O.2   406  PRO406     -0.2865
     36  CB        85.9390  -40.3880  -30.0170 C.3   406  PRO406      0.0296
     37  CG        86.4470  -40.0850  -31.3860 C.3   406  PRO406      0.0237
     38  CD        85.6330  -40.9430  -32.3230 C.3   406  PRO406      0.0939
     39  N         72.1530  -34.9350  -31.1890 N.3   429  ALA429     -0.1231
     40  CA        72.0840  -35.1190  -32.6310 C.3   429  ALA429      0.1694
     41  C         73.3680  -35.7040  -33.1970 C.2   429  ALA429      0.2592
     42  O         73.4750  -35.8890  -34.4100 O.2   429  ALA429     -0.2718
     43  CB        71.7780  -33.8060  -33.3100 C.3   429  ALA429      0.0304
     44  N         74.3470  -35.9650  -32.3370 N.am  430  ASN430     -0.1960
     45  CA        75.5970  -36.6230  -32.7530 C.3   430  ASN430      0.1819
     46  C         76.4400  -35.8690  -33.7790 C.2   430  ASN430      0.2622
     47  O         77.0400  -36.4780  -34.6660 O.2   430  ASN430     -0.2715
     48  CB        75.3210  -38.0380  -33.2590 C.3   430  ASN430      0.1195
     49  CG        74.6560  -38.9080  -32.2070 C.2   430  ASN430      0.2630
     50  OD1       74.3020  -40.0430  -32.4720 O.2   430  ASN430     -0.2716
     51  ND2       74.5080  -38.3790  -30.9990 N.am  430  ASN430     -0.0877
     52  N         76.5120  -34.5510  -33.6420 N.am  431  GLY431     -0.1940
     53  CA        77.2670  -33.7550  -34.5850 C.3   431  GLY431      0.2014
     54  C         78.7630  -33.7930  -34.3280 C.2   431  GLY431      0.2639
     55  O         79.2100  -33.8880  -33.1890 O.2   431  GLY431     -0.2714
     56  N         79.5390  -33.7370  -35.4010 N.am  432  ILE432     -0.1963
     57  CA        80.9690  -33.5320  -35.2830 C.3   432  ILE432      0.1727
     58  C         81.2730  -32.0380  -35.3160 C.2   432  ILE432      0.2616
     59  O         82.4450  -31.6380  -35.2980 O.2   432  ILE432     -0.2715
     60  CB        81.7240  -34.2110  -36.4210 C.3   432  ILE432      0.0290
     61  CG1       81.3000  -33.6060  -37.7700 C.3   432  ILE432      0.0022
     62  CG2       81.4840  -35.7380  -36.3850 C.3   432  ILE432      0.0023
     63  CD1       82.2350  -33.9170  -38.8840 C.3   432  ILE432      0.0001
     64  N         80.2270  -31.2190  -35.3790 N.am  433  ASP433     -0.1971
     65  CA        80.3950  -29.7710  -35.3980 C.3   433  ASP433      0.1709
     66  C         80.4220  -29.2310  -33.9860 C.2   433  ASP433      0.2293
     67  O         79.8020  -29.8030  -33.1010 O.2   433  ASP433     -0.2864
     68  CB        79.2940  -29.0770  -36.2320 C.3   433  ASP433      0.1436
     69  CG        77.8710  -29.5360  -35.8730 C.2   433  ASP433      0.3671
     70  OD1       77.6620  -30.6940  -35.4230 O.co2 433  ASP433     -0.2456
     71  OD2       76.9400  -28.7260  -36.0790 O.co2 433  ASP433     -0.2456
     72  N         88.2590  -36.8720  -33.1500 N.3   455  GLY455     -0.1210
     73  CA        88.8330  -37.2170  -34.4620 C.3   455  GLY455      0.1956
     74  C         89.2210  -35.9860  -35.2780 C.2   455  GLY455      0.2612
     75  O         88.8670  -34.8580  -34.9320 O.2   455  GLY455     -0.2717
     76  N         89.9090  -36.2070  -36.3900 N.am  456  ASP456     -0.1959
     77  CA        90.5480  -35.1220  -37.1160 C.3   456  ASP456      0.1840
     78  C         89.5840  -34.2460  -37.9130 C.2   456  ASP456      0.2622
     79  O         89.7760  -33.0300  -38.0380 O.2   456  ASP456     -0.2715
     80  CB        91.6870  -35.6520  -38.0140 C.3   456  ASP456      0.1450
     81  CG        91.2760  -36.8460  -38.8660 C.2   456  ASP456      0.3671
     82  OD1       91.1020  -37.9680  -38.3280 O.co2 456  ASP456     -0.2456
     83  OD2       91.1730  -36.6600  -40.0950 O.co2 456  ASP456     -0.2456
     84  N         88.5530  -34.8740  -38.4610 N.am  457  LEU457     -0.1963
     85  CA        87.5410  -34.1340  -39.2100 C.3   457  LEU457      0.1728
     86  C         86.7280  -33.2830  -38.2530 C.2   457  LEU457      0.2616
     87  O         86.4370  -32.1250  -38.5380 O.2   457  LEU457     -0.2715
     88  CB        86.6480  -35.0780  -40.0210 C.3   457  LEU457      0.0311
     89  CG        87.4230  -35.9120  -41.0510 C.3   457  LEU457      0.0022
     90  CD1       86.4780  -36.7240  -41.9660 C.3   457  LEU457      0.0001
     91  CD2       88.3530  -35.0320  -41.8780 C.3   457  LEU457      0.0001
     92  N         86.3930  -33.8440  -37.0990 N.am  458  SER458     -0.1950
     93  CA        85.6720  -33.0770  -36.1030 C.3   458  SER458      0.1924
     94  C         86.5230  -31.8930  -35.6120 C.2   458  SER458      0.2314
     95  O         86.0350  -30.7510  -35.5210 O.2   458  SER458     -0.2863
     96  CB        85.2520  -33.9700  -34.9370 C.3   458  SER458      0.2116
     97  OG        84.2760  -33.3260  -34.1420 O.3   458  SER458     -0.2180
     98  N         86.6240  -29.3670  -38.0720 N.3   461  HIS461     -0.1241
     99  CA        85.2980  -28.7520  -38.1560 C.3   461  HIS461      0.1621
    100  C         85.1940  -27.5170  -37.2300 C.2   461  HIS461      0.2264
    101  O         84.7420  -26.4500  -37.6540 O.2   461  HIS461     -0.2867
    102  CB        84.2240  -29.7890  -37.8370 C.3   461  HIS461      0.0745
    103  CG        82.9670  -29.6370  -38.6330 C.ar  461  HIS461      0.0817
    104  ND1       82.0160  -28.6790  -38.3490 N.ar  461  HIS461     -0.2268
    105  CD2       82.4800  -30.3520  -39.6760 C.ar  461  HIS461      0.1154
    106  CE1       81.0140  -28.7910  -39.2030 C.ar  461  HIS461      0.1986
    107  NE2       81.2690  -29.8010  -40.0160 N.ar  461  HIS461     -0.2212
    108  N         93.5050  -40.1960  -37.9910 N.3   483  ASN483     -0.1240
    109  CA        93.6530  -41.2610  -38.9490 C.3   483  ASN483      0.1653
    110  C         93.4230  -40.7160  -40.3380 C.2   483  ASN483      0.2266
    111  O         93.1810  -41.4710  -41.2700 O.2   483  ASN483     -0.2867
    112  CB        92.6550  -42.3720  -38.6440 C.3   483  ASN483      0.1155
    113  CG        91.2340  -41.8500  -38.5050 C.2   483  ASN483      0.2627
    114  OD1       90.9060  -40.7880  -39.0320 O.2   483  ASN483     -0.2716
    115  ND2       90.3900  -42.5870  -37.7960 N.am  483  ASN483     -0.0877
    116  N         90.9390  -38.6890  -42.0270 N.3   485  GLY485     -0.1210
    117  CA        89.7040  -38.9300  -42.7570 C.3   485  GLY485      0.1956
    118  C         88.6340  -39.4290  -41.8200 C.2   485  GLY485      0.2612
    119  O         88.7590  -39.3010  -40.6050 O.2   485  GLY485     -0.2717
    120  N         87.5800  -40.0070  -42.3780 N.am  486  GLY486     -0.1942
    121  CA        86.4930  -40.5070  -41.5600 C.3   486  GLY486      0.2014
    122  C         86.6180  -41.9950  -41.3060 C.2   486  GLY486      0.2639
    123  O         85.9970  -42.8130  -41.9950 O.2   486  GLY486     -0.2714
    124  N         87.4000  -42.3420  -40.2900 N.am  487  GLY487     -0.1939
    125  CA        87.6310  -43.7400  -39.9370 C.3   487  GLY487      0.2014
    126  C         86.3790  -44.5580  -39.6840 C.2   487  GLY487      0.2639
    127  O         86.3700  -45.7720  -39.9200 O.2   487  GLY487     -0.2714
    128  N         85.3120  -43.9210  -39.2070 N.am  488  ILE488     -0.1963
    129  CA        84.1020  -44.6820  -38.8770 C.3   488  ILE488      0.1727
    130  C         83.5450  -45.4070  -40.0990 C.2   488  ILE488      0.2616
    131  O         83.0490  -46.5290  -39.9950 O.2   488  ILE488     -0.2715
    132  CB        83.0110  -43.8000  -38.2360 C.3   488  ILE488      0.0290
    133  CG1       81.8400  -44.6700  -37.7510 C.3   488  ILE488      0.0022
    134  CG2       82.5380  -42.7320  -39.2200 C.3   488  ILE488      0.0023
    135  CD1       80.9150  -43.9960  -36.7300 C.3   488  ILE488      0.0001
    136  N         83.6620  -44.7800  -41.2630 N.am  489  PHE489     -0.1974
    137  CA        83.0330  -45.3120  -42.4670 C.3   489  PHE489      0.1639
    138  C         83.6330  -46.6270  -42.9470 C.2   489  PHE489      0.2290
    139  O         83.0300  -47.3340  -43.7600 O.2   489  PHE489     -0.2864
    140  CB        83.0030  -44.2540  -43.5720 C.3   489  PHE489      0.0560
    141  CG        82.2090  -43.0180  -43.1880 C.ar  489  PHE489     -0.0200
    142  CD1       82.8050  -41.7670  -43.1550 C.ar  489  PHE489     -0.0042
    143  CD2       80.8680  -43.1280  -42.8030 C.ar  489  PHE489     -0.0042
    144  CE1       82.0740  -40.6560  -42.7990 C.ar  489  PHE489     -0.0003
    145  CE2       80.1360  -42.0050  -42.4370 C.ar  489  PHE489     -0.0003
    146  CZ        80.7320  -40.7790  -42.4360 C.ar  489  PHE489     -0.0000
@<TRIPOS>BOND
     1   139   138    2
     2   140   141    1
     3   140   137    1
     4   141   142   ar
     5   141   143   ar
     6   142   144   ar
     7   138   137    1
     8   143   145   ar
     9   144   146   ar
    10   117   116    1
    11   117   118    1
    12   137   136    1
    13   145   146   ar
    14   120   118   am
    15   120   121    1
    16   123   122    2
    17    90    89    1
    18    91    89    1
    19   118   119    2
    20   121   122    1
    21   122   124   am
    22   111   110    2
    23   136   130   am
    24    89    88    1
    25   110   109    1
    26   124   125    1
    27   130   131    2
    28   130   129    1
    29    83    81   ar
    30    88    85    1
    31   107   105   ar
    32   107   106   ar
    33   125   126    1
    34   127   126    2
    35   126   128   am
    36   105   103   ar
    37   134   132    1
    38    85    84    1
    39    85    86    1
    40   128   129    1
    41   106   104   ar
    42   114   113    2
    43   109   112    1
    44   109   108    1
    45    63    61    1
    46   129   132    1
    47    81    82   ar
    48    81    80    1
    49   112   113    1
    50   103   104   ar
    51   103   102    1
    52    87    86    2
    53   113   115   am
    54    84    78   am
    55    86    92   am
    56   132   133    1
    57    99    98    1
    58    99   102    1
    59    99   100    1
    60    79    78    2
    61    80    77    1
    62    78    77    1
    63    61    60    1
    64   133   135    1
    65   101   100    2
    66    77    76    1
    67    92    93    1
    68    23    22    1
    69    60    62    1
    70    60    57    1
    71    76    74   am
    72    68    69    1
    73    68    65    1
    74    93    94    1
    75    93    96    1
    76    71    69   ar
    77    69    70   ar
    78    94    95    2
    79    22    19    1
    80     9     7   ar
    81    56    57    1
    82    56    54   am
    83    65    64    1
    84    65    66    1
    85    64    58   am
    86    58    59    2
    87    58    57    1
    88    29    30    1
    89    29    28    1
    90    74    75    2
    91    74    73    1
    92    30    31    1
    93    96    97    1
    94    47    46    2
    95    19    18    1
    96    19    20    1
    97    53    54    1
    98    53    52    1
    99    73    72    1
   100    42    41    2
   101     7     8   ar
   102     7     6    1
   103    54    55    2
   104    24    20   am
   105    24    25    1
   106    28    25    1
   107    66    67    2
   108    46    52   am
   109    46    45    1
   110    18    12   am
   111    20    21    2
   112     5     6    1
   113     5     2    1
   114    25    26    1
   115    43    40    1
   116    48    45    1
   117    48    49    1
   118    41    40    1
   119    41    44   am
   120     1     2    1
   121    13    12    2
   122    12    11    1
   123    45    44    1
   124    40    39    1
   125    14    11    1
   126    14    15    1
   127     2     3    1
   128    50    49    2
   129    38    32    1
   130    38    37    1
   131    49    51   am
   132    11    10    1
   133    26    32   am
   134    26    27    2
   135    15    17   am
   136    15    16    2
   137    32    33    1
   138    37    36    1
   139     3     4    2
   140    33    36    1
   141    33    34    1
   142    34    35    2
