@<TRIPOS>MOLECULE
tmp/2x7jD00.pdb
 76 70 0 0 0
SMALL
GASTEIGER

@<TRIPOS>ATOM
      1  N         79.8450  -10.0170  -31.4020 N.3    28  PRO28      -0.2102
      2  CA        79.8170   -8.5930  -31.6650 C.3    28  PRO28       0.1504
      3  C         78.8530   -8.2070  -32.7760 C.2    28  PRO28       0.2576
      4  O         78.6320   -8.9750  -33.7260 O.2    28  PRO28      -0.2718
      5  CB        81.2580   -8.2860  -32.0970 C.3    28  PRO28       0.0282
      6  CG        81.7270   -9.5470  -32.7050 C.3    28  PRO28       0.0208
      7  CD        81.0920  -10.6440  -31.8750 C.3    28  PRO28       0.0893
      8  N         78.2880   -7.0110  -32.6360 N.am   29  GLY29      -0.1943
      9  CA        77.4910   -6.4060  -33.6770 C.3    29  GLY29       0.2014
     10  C         77.1070   -5.0210  -33.2080 C.2    29  GLY29       0.2639
     11  O         77.1640   -4.7260  -32.0200 O.2    29  GLY29      -0.2714
     12  N         76.7110   -4.1650  -34.1360 N.am   30  SER30      -0.1949
     13  CA        76.2000   -2.8540  -33.7810 C.3    30  SER30       0.1924
     14  C         74.7600   -2.9340  -33.2450 C.2    30  SER30       0.2314
     15  O         74.4650   -2.4350  -32.1370 O.2    30  SER30      -0.2863
     16  CB        76.2930   -1.9240  -34.9880 C.3    30  SER30       0.2116
     17  OG        75.2560   -0.9650  -34.9650 O.3    30  SER30      -0.2180
     18  N         83.8880  -14.5300  -31.4260 N.3    51  ILE51      -0.1245
     19  CA        83.7360  -13.9630  -32.7530 C.3    51  ILE51       0.1561
     20  C         82.8430  -14.8140  -33.6450 C.2    51  ILE51       0.2260
     21  O         81.9500  -14.3050  -34.3040 O.2    51  ILE51      -0.2867
     22  CB        85.1060  -13.7640  -33.4420 C.3    51  ILE51       0.0252
     23  CG1       86.0510  -12.9360  -32.5560 C.3    51  ILE51       0.0019
     24  CG2       84.9400  -13.1640  -34.8530 C.3    51  ILE51       0.0019
     25  CD1       85.4950  -11.6110  -32.1730 C.3    51  ILE51       0.0001
     26  N         79.9540  -17.0780  -34.3740 N.3    53  GLU53      -0.1245
     27  CA        78.6660  -17.3360  -33.7200 C.3    53  GLU53       0.1567
     28  C         78.3480  -18.8380  -33.6470 C.2    53  GLU53       0.2260
     29  O         77.7080  -19.2930  -32.7070 O.2    53  GLU53      -0.2867
     30  CB        77.5500  -16.5550  -34.4100 C.3    53  GLU53       0.0388
     31  CG        77.5720  -15.0490  -34.1180 C.3    53  GLU53       0.1160
     32  CD        78.2760  -14.2030  -35.1870 C.2    53  GLU53       0.3649
     33  OE1       78.7670  -14.7630  -36.1990 O.co2  53  GLU53      -0.2457
     34  OE2       78.3210  -12.9580  -35.0100 O.co2  53  GLU53      -0.2457
     35  N         73.9870  -10.2950  -33.0050 N.3    76  THR76      -0.1203
     36  CA        73.4100   -9.1700  -33.6930 C.3    76  THR76       0.1994
     37  C         72.5370   -9.6900  -34.8210 C.2    76  THR76       0.2618
     38  O         72.4180  -10.9060  -35.0090 O.2    76  THR76      -0.2717
     39  CB        74.4930   -8.2220  -34.2420 C.3    76  THR76       0.1784
     40  OG1       73.9360   -6.9120  -34.4420 O.3    76  THR76      -0.2211
     41  CG2       75.0860   -8.7500  -35.5520 C.3    76  THR76       0.0376
     42  N         71.9270   -8.7720  -35.5640 N.am   77  SER77      -0.1951
     43  CA        70.9780   -9.1360  -36.5970 C.3    77  SER77       0.1924
     44  C         71.6820   -9.6930  -37.8360 C.2    77  SER77       0.2314
     45  O         72.8200   -9.3340  -38.1280 O.2    77  SER77      -0.2863
     46  CB        70.1040   -7.9240  -36.9550 C.3    77  SER77       0.2116
     47  OG        70.7080   -7.1160  -37.9370 O.3    77  SER77      -0.2180
     48  N         72.8060  -13.0700  -40.5400 N.3    79  THR79      -0.1203
     49  CA        73.2500  -14.4600  -40.5560 C.3    79  THR79       0.1994
     50  C         73.9350  -14.8610  -39.2550 C.2    79  THR79       0.2617
     51  O         74.1460  -16.0620  -38.9990 O.2    79  THR79      -0.2717
     52  CB        74.2100  -14.7350  -41.7110 C.3    79  THR79       0.1784
     53  OG1       75.3290  -13.8440  -41.6100 O.3    79  THR79      -0.2211
     54  CG2       73.5240  -14.5390  -43.0520 C.3    79  THR79       0.0376
     55  N         74.2800  -13.8850  -38.4230 N.am   80  ALA80      -0.1979
     56  CA        74.8570  -14.2260  -37.1340 C.3    80  ALA80       0.1597
     57  C         73.9200  -15.1910  -36.3920 C.2    80  ALA80       0.2287
     58  O         74.3460  -16.2460  -35.9030 O.2    80  ALA80      -0.2864
     59  CB        75.1050  -12.9880  -36.3140 C.3    80  ALA80       0.0319
     60  N         73.7510  -18.7570  -37.6600 N.3    83  ASN83      -0.1240
     61  CA        74.8920  -19.5550  -37.2460 C.3    83  ASN83       0.1653
     62  C         74.6750  -20.2890  -35.9050 C.2    83  ASN83       0.2266
     63  O         75.4260  -21.2310  -35.5950 O.2    83  ASN83      -0.2867
     64  CB        76.1750  -18.7020  -37.1790 C.3    83  ASN83       0.1155
     65  CG        76.8510  -18.5300  -38.5410 C.2    83  ASN83       0.2627
     66  OD1       77.6680  -19.3610  -38.9580 O.2    83  ASN83      -0.2716
     67  ND2       76.5380  -17.4330  -39.2230 N.am   83  ASN83      -0.0877
     68  N         71.8630   -6.0830  -43.7300 N.3   116  GLN116     -0.1245
     69  CA        72.1050   -6.9850  -42.6050 C.3   116  GLN116      0.1566
     70  C         70.8340   -7.4600  -41.9000 C.2   116  GLN116      0.2260
     71  O         70.8900   -7.9960  -40.7960 O.2   116  GLN116     -0.2867
     72  CB        73.0390   -6.3110  -41.6000 C.3   116  GLN116      0.0367
     73  CG        73.7210   -7.2680  -40.6500 C.3   116  GLN116      0.0905
     74  CD        74.7020   -6.5560  -39.7330 C.2   116  GLN116      0.2608
     75  OE1       75.7680   -6.0930  -40.1680 O.2   116  GLN116     -0.2717
     76  NE2       74.3430   -6.4550  -38.4580 N.am  116  GLN116     -0.0878
@<TRIPOS>BOND
     1    68    69    1
     2    54    52    1
     3    69    70    1
     4    69    72    1
     5    70    71    2
     6    52    53    1
     7    52    49    1
     8    72    73    1
     9    73    74    1
    10    49    48    1
    11    49    50    1
    12    75    74    2
    13    74    76   am
    14    50    51    2
    15    50    55   am
    16    67    65   am
    17    66    65    2
    18    65    64    1
    19    55    56    1
    20    45    44    2
    21    47    46    1
    22    44    43    1
    23    60    61    1
    24    61    64    1
    25    61    62    1
    26    56    57    1
    27    56    59    1
    28    46    43    1
    29    43    42    1
    30    57    58    2
    31    33    32   ar
    32    62    63    2
    33    42    37   am
    34    41    39    1
    35    32    34   ar
    36    32    31    1
    37    38    37    2
    38    16    17    1
    39    16    13    1
    40    24    22    1
    41    37    36    1
    42    40    39    1
    43    30    31    1
    44    30    27    1
    45    26    27    1
    46    21    20    2
    47    39    36    1
    48    12    13    1
    49    12    10   am
    50    13    14    1
    51     4     3    2
    52    27    28    1
    53    36    35    1
    54     9    10    1
    55     9     8    1
    56    28    29    2
    57    20    19    1
    58    22    19    1
    59    22    23    1
    60    14    15    2
    61    10    11    2
    62     3     8   am
    63     3     2    1
    64    19    18    1
    65     6     5    1
    66     6     7    1
    67    23    25    1
    68     5     2    1
    69     7     1    1
    70     2     1    1
