@<TRIPOS>MOLECULE
tmp/2x7kA00.pdb
 174 167 0 0 0
SMALL
GASTEIGER

@<TRIPOS>ATOM
      1  N         10.7380    5.4140   20.5940 N.3    52  HIS52      -0.1226
      2  CA        10.2190    4.5570   21.6630 C.3    52  HIS52       0.1752
      3  C         11.2840    3.6680   22.2930 C.2    52  HIS52       0.2595
      4  O         11.0460    3.1020   23.3750 O.2    52  HIS52      -0.2718
      5  CB         9.0500    3.6940   21.1630 C.3    52  HIS52       0.0759
      6  CG         9.4480    2.6950   20.1240 C.ar   52  HIS52       0.0818
      7  ND1        9.4960    3.0010   18.7830 N.ar   52  HIS52      -0.2268
      8  CD2        9.8070    1.3940   20.2310 C.ar   52  HIS52       0.1154
      9  CE1        9.8820    1.9330   18.1080 C.ar   52  HIS52       0.1986
     10  NE2       10.0790    0.9430   18.9640 N.ar   52  HIS52      -0.2212
     11  N         12.4480    3.5740   21.6490 N.am   53  ARG53      -0.1980
     12  CA        13.5000    2.7140   22.1510 C.3    53  ARG53       0.1597
     13  C         14.8330    3.3640   21.8550 C.2    53  ARG53       0.2287
     14  O         15.1380    3.6570   20.7050 O.2    53  ARG53      -0.2864
     15  CB        13.3770    1.3460   21.4910 C.3    53  ARG53       0.0334
     16  CG        14.3680    0.3000   21.9360 C.3    53  ARG53       0.0492
     17  CD        13.8760   -1.0980   21.5640 C.3    53  ARG53       0.2205
     18  NE        14.8840   -2.1260   21.7860 N.pl3  53  ARG53      -0.0865
     19  CZ        15.8210   -2.4730   20.9140 C.cat  53  ARG53       0.5346
     20  NH1       15.8920   -1.8970   19.7210 N.pl3  53  ARG53       0.1354
     21  NH2       16.6800   -3.4190   21.2300 N.pl3  53  ARG53       0.1354
     22  N         19.0110    3.0550   23.0990 N.3    55  ILE55      -0.1245
     23  CA        20.0270    2.3250   23.8380 C.3    55  ILE55       0.1561
     24  C         21.3570    3.0210   23.5860 C.2    55  ILE55       0.2260
     25  O         21.8140    3.1530   22.4470 O.2    55  ILE55      -0.2867
     26  CB        20.0960    0.8430   23.4210 C.3    55  ILE55       0.0252
     27  CG1       18.7640    0.1390   23.7290 C.3    55  ILE55       0.0019
     28  CG2       21.2850    0.1510   24.0910 C.3    55  ILE55       0.0019
     29  CD1       18.6420   -1.2550   23.1610 C.3    55  ILE55       0.0001
     30  N         24.3120    2.6660   20.9730 N.3    58  PHE58      -0.1227
     31  CA        23.7830    1.6990   20.0280 C.3    58  PHE58       0.1736
     32  C         22.9500    2.4360   18.9880 C.2    58  PHE58       0.2595
     33  O         23.4450    2.7130   17.8910 O.2    58  PHE58      -0.2718
     34  CB        23.0180    0.5810   20.7570 C.3    58  PHE58       0.0547
     35  CG        22.3480   -0.3940   19.8340 C.ar   58  PHE58      -0.0202
     36  CD1       22.9060   -0.7190   18.6090 C.ar   58  PHE58      -0.0042
     37  CD2       21.1500   -0.9980   20.2060 C.ar   58  PHE58      -0.0042
     38  CE1       22.2790   -1.6080   17.7700 C.ar   58  PHE58      -0.0003
     39  CE2       20.5170   -1.9030   19.3700 C.ar   58  PHE58      -0.0003
     40  CZ        21.0800   -2.2010   18.1370 C.ar   58  PHE58      -0.0000
     41  N         21.7010    2.7610   19.2970 N.am   59  MET59      -0.1979
     42  CA        20.8510    3.4640   18.3390 C.3    59  MET59       0.1605
     43  C         19.6410    4.0900   19.0200 C.2    59  MET59       0.2287
     44  O         19.3520    3.8140   20.1990 O.2    59  MET59      -0.2864
     45  CB        20.4250    2.5200   17.2000 C.3    59  MET59       0.0413
     46  CG        19.6780    1.2640   17.6540 C.3    59  MET59       0.0598
     47  SD        17.9360    1.5600   18.0120 S.3    59  MET59      -0.1393
     48  CE        17.8270    1.0060   19.7200 C.3    59  MET59       0.0692
     49  N         15.5140    4.4590   18.0290 N.3    61  GLN61      -0.1245
     50  CA        14.5270    3.7990   17.1970 C.3    61  GLN61       0.1566
     51  C         13.1760    4.4850   17.3040 C.2    61  GLN61       0.2260
     52  O         12.7130    4.8060   18.4030 O.2    61  GLN61      -0.2867
     53  CB        14.3880    2.3430   17.6250 C.3    61  GLN61       0.0367
     54  CG        13.3790    1.5290   16.8260 C.3    61  GLN61       0.0905
     55  CD        13.2700    0.0870   17.2940 C.2    61  GLN61       0.2608
     56  OE1       14.0110   -0.3640   18.1610 O.2    61  GLN61      -0.2717
     57  NE2       12.3510   -0.6530   16.6880 N.am   61  GLN61      -0.0878
     58  N          6.1590   -0.0230   19.3700 N.3    69  GLY69      -0.1210
     59  CA         7.2360   -0.8000   18.7870 C.3    69  GLY69       0.1956
     60  C          6.7020   -1.9470   17.9500 C.2    69  GLY69       0.2612
     61  O          7.4560   -2.6150   17.2510 O.2    69  GLY69      -0.2717
     62  N          5.3890   -2.1600   18.0010 N.am   70  ARG70      -0.1965
     63  CA         4.7640   -3.2700   17.3000 C.3    70  ARG70       0.1729
     64  C          4.1070   -2.8350   15.9930 C.2    70  ARG70       0.2616
     65  O          3.7220   -3.6760   15.1920 O.2    70  ARG70      -0.2715
     66  CB         3.7120   -3.9480   18.1980 C.3    70  ARG70       0.0348
     67  CG         4.2470   -4.4260   19.5560 C.3    70  ARG70       0.0492
     68  CD         3.2610   -5.3370   20.3000 C.3    70  ARG70       0.2205
     69  NE         1.9950   -4.6800   20.6270 N.pl3  70  ARG70      -0.0865
     70  CZ         1.8030   -3.8900   21.6830 C.cat  70  ARG70       0.5346
     71  NH1        2.7970   -3.6320   22.5220 N.pl3  70  ARG70       0.1354
     72  NH2        0.6150   -3.3440   21.8980 N.pl3  70  ARG70       0.1354
     73  N          3.9880   -1.5300   15.7670 N.am   71  GLY71      -0.1955
     74  CA         3.1820   -1.0190   14.6790 C.3    71  GLY71       0.1869
     75  C          3.9420   -0.3240   13.5760 C.2    71  GLY71       0.2309
     76  O          5.1650   -0.3660   13.4950 O.2    71  GLY71      -0.2863
     77  N          4.5140   -5.1370    3.9180 N.3    79  GLN79      -0.1245
     78  CA         5.9050   -4.9400    4.2790 C.3    79  GLN79       0.1566
     79  C          6.7490   -5.2020    3.0450 C.2    79  GLN79       0.2260
     80  O          6.4530   -6.0910    2.2530 O.2    79  GLN79      -0.2867
     81  CB         6.2960   -5.8620    5.4240 C.3    79  GLN79       0.0367
     82  CG         5.5690   -5.4820    6.6880 C.3    79  GLN79       0.0905
     83  CD         5.9240   -6.3330    7.8880 C.2    79  GLN79       0.2608
     84  OE1        6.2940   -7.4940    7.7570 O.2    79  GLN79      -0.2717
     85  NE2        5.8000   -5.7540    9.0710 N.am   79  GLN79      -0.0878
     86  N         14.3380   -0.5670   10.8570 N.3    99  ALA99      -0.1231
     87  CA        14.0340   -1.6280   11.7990 C.3    99  ALA99       0.1694
     88  C         13.1860   -2.6670   11.0800 C.2    99  ALA99       0.2592
     89  O         12.5550   -2.3510   10.0940 O.2    99  ALA99      -0.2718
     90  CB        13.2730   -1.0750   12.9810 C.3    99  ALA99       0.0304
     91  N         13.1820   -3.9090   11.5450 N.am  100  ASN100     -0.1960
     92  CA        12.3600   -4.9130   10.8920 C.3   100  ASN100      0.1819
     93  C         12.0340   -6.0700   11.8400 C.2   100  ASN100      0.2621
     94  O         12.3030   -5.9900   13.0370 O.2   100  ASN100     -0.2715
     95  CB        13.0440   -5.3740    9.5960 C.3   100  ASN100      0.1195
     96  CG        14.3710   -6.0430    9.8380 C.2   100  ASN100      0.2630
     97  OD1       14.4980   -6.8700   10.7380 O.2   100  ASN100     -0.2716
     98  ND2       15.3670   -5.7180    9.0270 N.am  100  ASN100     -0.0877
     99  N         11.4320   -7.1320   11.3080 N.am  101  ALA101     -0.1963
    100  CA        11.1710   -8.3080   12.0950 C.3   101  ALA101      0.1728
    101  C         11.5800   -9.5100   11.2840 C.2   101  ALA101      0.2616
    102  O         10.8260  -10.4630   11.1850 O.2   101  ALA101     -0.2715
    103  CB         9.6920   -8.3730   12.4480 C.3   101  ALA101      0.0334
    104  N         12.7760   -9.4770   10.7090 N.am  102  GLY102     -0.1955
    105  CA        13.2210  -10.5420    9.8310 C.3   102  GLY102      0.1869
    106  C         13.3860  -10.0240    8.4170 C.2   102  GLY102      0.2309
    107  O         13.1350   -8.8500    8.1320 O.2   102  GLY102     -0.2863
    108  N         10.7720   -7.3870    5.7950 N.3   105  THR105     -0.1218
    109  CA         9.6370   -7.0170    6.6240 C.3   105  THR105      0.1862
    110  C          9.6420   -5.5230    6.9590 C.2   105  THR105      0.2287
    111  O          9.2220   -5.1100    8.0280 O.2   105  THR105     -0.2866
    112  CB         9.5750   -7.8440    7.9250 C.3   105  THR105      0.1770
    113  OG1       10.7920   -7.6740    8.6600 O.3   105  THR105     -0.2211
    114  CG2        9.3230   -9.3140    7.6230 C.3   105  THR105      0.0375
    115  N          9.1230    1.7690   10.6860 N.3   109  GLN109     -0.1245
    116  CA        10.0570    2.0070   11.7780 C.3   109  GLN109      0.1566
    117  C         11.4960    2.0400   11.2720 C.2   109  GLN109      0.2260
    118  O         11.8950    1.2650   10.3840 O.2   109  GLN109     -0.2867
    119  CB         9.9360    0.9400   12.8580 C.3   109  GLN109      0.0367
    120  CG         8.7060    1.0760   13.7150 C.3   109  GLN109      0.0905
    121  CD         8.7340    0.0940   14.8690 C.2   109  GLN109      0.2608
    122  OE1        9.7080    0.0290   15.6160 O.2   109  GLN109     -0.2717
    123  NE2        7.6830   -0.6990   14.9910 N.am  109  GLN109     -0.0878
    124  N         15.7960    3.5020   12.4670 N.3   111  PHE111     -0.1241
    125  CA        16.7160    3.8550   13.5330 C.3   111  PHE111      0.1605
    126  C         17.8660    4.6850   13.0060 C.2   111  PHE111      0.2264
    127  O         18.1650    4.6670   11.8180 O.2   111  PHE111     -0.2867
    128  CB        17.2320    2.6310   14.3100 C.3   111  PHE111      0.0534
    129  CG        18.0250    1.6190   13.5210 C.ar  111  PHE111     -0.0203
    130  CD1       19.4050    1.5700   13.6170 C.ar  111  PHE111     -0.0042
    131  CD2       17.3930    0.6560   12.7600 C.ar  111  PHE111     -0.0042
    132  CE1       20.1460    0.6070   12.9710 C.ar  111  PHE111     -0.0003
    133  CE2       18.1270   -0.3250   12.1100 C.ar  111  PHE111     -0.0003
    134  CZ        19.5080   -0.3550   12.2180 C.ar  111  PHE111     -0.0000
    135  N         27.4320   -5.7580   13.6060 N.3   119  TRP119     -0.1227
    136  CA        26.6650   -6.9870   13.7020 C.3   119  TRP119      0.1737
    137  C         25.3180   -6.8830   12.9730 C.2   119  TRP119      0.2595
    138  O         24.6870   -7.8970   12.7250 O.2   119  TRP119     -0.2718
    139  CB        26.4670   -7.3890   15.1590 C.3   119  TRP119      0.0564
    140  CG        25.7680   -6.3570   15.9790 C.ar  119  TRP119      0.0003
    141  CD1       24.4230   -6.2760   16.2350 C.ar  119  TRP119      0.0946
    142  CD2       26.3730   -5.2580   16.6610 C.ar  119  TRP119      0.0152
    143  NE1       24.1620   -5.1930   17.0290 N.ar  119  TRP119     -0.2442
    144  CE2       25.3400   -4.5490   17.3080 C.ar  119  TRP119      0.0810
    145  CE3       27.6920   -4.8130   16.8060 C.ar  119  TRP119      0.0012
    146  CZ2       25.5800   -3.4210   18.0920 C.ar  119  TRP119      0.0191
    147  CZ3       27.9300   -3.6800   17.5650 C.ar  119  TRP119      0.0001
    148  CH2       26.8830   -3.0070   18.2130 C.ar  119  TRP119      0.0015
    149  N         24.8880   -5.6710   12.6200 N.am  120  LEU120     -0.1980
    150  CA        23.6480   -5.4810   11.8780 C.3   120  LEU120      0.1596
    151  C         23.8690   -5.5100   10.3710 C.2   120  LEU120      0.2287
    152  O         22.8950   -5.4940    9.6240 O.2   120  LEU120     -0.2864
    153  CB        22.9860   -4.1570   12.2730 C.3   120  LEU120      0.0297
    154  CG        22.6080   -4.0050   13.7420 C.3   120  LEU120      0.0022
    155  CD1       21.9500   -2.6520   13.9620 C.3   120  LEU120      0.0001
    156  CD2       21.7060   -5.1450   14.2340 C.3   120  LEU120      0.0001
    157  N         19.7030   -5.1290    7.9200 N.3   124  HIS124     -0.1241
    158  CA        18.8660   -3.9360    7.9260 C.3   124  HIS124      0.1621
    159  C         19.2460   -3.0550    6.7550 C.2   124  HIS124      0.2264
    160  O         20.4290   -2.7980    6.5530 O.2   124  HIS124     -0.2867
    161  CB        19.0800   -3.1880    9.2370 C.3   124  HIS124      0.0745
    162  CG        18.5560   -3.9380   10.3980 C.ar  124  HIS124      0.0817
    163  ND1       19.2550   -4.9180   11.0740 N.ar  124  HIS124     -0.2268
    164  CD2       17.3150   -3.9430   10.9160 C.ar  124  HIS124      0.1154
    165  CE1       18.4650   -5.4610   11.9870 C.ar  124  HIS124      0.1986
    166  NE2       17.2770   -4.8960   11.8970 N.ar  124  HIS124     -0.2212
    167  N         14.0340    0.1060   27.8980 N.3   149  ASP149     -0.1239
    168  CA        14.7700    1.0020   27.0030 C.3   149  ASP149      0.1674
    169  C         13.8960    2.1050   26.3890 C.2   149  ASP149      0.2266
    170  O         14.2200    2.6450   25.3330 O.2   149  ASP149     -0.2867
    171  CB        15.5070    0.2110   25.9170 C.3   149  ASP149      0.1410
    172  CG        16.4680   -0.8020   26.5040 C.2   149  ASP149      0.3668
    173  OD1       17.3570   -0.4030   27.2950 O.co2 149  ASP149     -0.2456
    174  OD2       16.3180   -2.0060   26.2060 O.co2 149  ASP149     -0.2456
@<TRIPOS>BOND
     1    80    79    2
     2    79    78    1
     3    77    78    1
     4    78    81    1
     5    81    82    1
     6   108   109    1
     7   160   159    2
     8   109   110    1
     9   109   112    1
    10    82    83    1
    11   159   158    1
    12   110   111    2
    13   114   112    1
    14    84    83    2
    15    83    85   am
    16   157   158    1
    17   112   113    1
    18   158   161    1
    19   107   106    2
    20   106   105    1
    21    98    96   am
    22   161   162    1
    23    95    96    1
    24    95    92    1
    25   152   151    2
    26   105   104    1
    27    96    97    2
    28    89    88    2
    29   151   150    1
    30   118   117    2
    31   162   164   ar
    32   162   163   ar
    33   115   116    1
    34   104   101   am
    35    86    87    1
    36    92    91    1
    37    92    93    1
    38   164   166   ar
    39   163   165   ar
    40    88    91   am
    41    88    87    1
    42   102   101    2
    43   117   116    1
    44   101   100    1
    45    99    93   am
    46    99   100    1
    47   116   119    1
    48    87    90    1
    49   127   126    2
    50    93    94    2
    51   150   153    1
    52   150   149    1
    53   166   165   ar
    54   100   103    1
    55   133   134   ar
    56   133   131   ar
    57   134   132   ar
    58   153   154    1
    59   124   125    1
    60   149   137   am
    61   138   137    2
    62   131   129   ar
    63   119   120    1
    64   132   130   ar
    65   137   136    1
    66   126   125    1
    67    76    75    2
    68   129   130   ar
    69   129   128    1
    70   125   128    1
    71    75    74    1
    72   135   136    1
    73   136   139    1
    74   120   121    1
    75   154   155    1
    76   154   156    1
    77    74    73    1
    78   121   123   am
    79   121   122    2
    80   139   140    1
    81    65    64    2
    82    73    64   am
    83   140   141   ar
    84   140   142   ar
    85    64    63    1
    86   141   143   ar
    87   142   145   ar
    88   142   144   ar
    89    57    55   am
    90   145   147   ar
    91    54    55    1
    92    54    53    1
    93   143   144   ar
    94    50    51    1
    95    50    53    1
    96    50    49    1
    97    45    46    1
    98    45    42    1
    99    61    60    2
   100    55    56    2
   101    63    62    1
   102    63    66    1
   103    51    52    2
   104   144   146   ar
   105   147   148   ar
   106    46    47    1
   107    38    40   ar
   108    38    36   ar
   109    33    32    2
   110    60    62   am
   111    60    59    1
   112    47    48    1
   113   146   148   ar
   114     9     7   ar
   115     9    10   ar
   116    40    39   ar
   117    66    67    1
   118    42    43    1
   119    42    41    1
   120    36    35   ar
   121     7     6   ar
   122    59    58    1
   123    10     8   ar
   124    32    41   am
   125    32    31    1
   126    43    44    2
   127    39    37   ar
   128    67    68    1
   129    20    19    1
   130    35    37   ar
   131    35    34    1
   132    31    34    1
   133    31    30    1
   134     6     8   ar
   135     6     5    1
   136    68    69    1
   137     1     2    1
   138    69    70    2
   139    14    13    2
   140    19    21    1
   141    19    18    2
   142     5     2    1
   143    15    16    1
   144    15    12    1
   145    17    18    1
   146    17    16    1
   147    11    12    1
   148    11     3   am
   149     2     3    1
   150    70    72    1
   151    70    71    1
   152    13    12    1
   153     3     4    2
   154    25    24    2
   155    22    23    1
   156    29    27    1
   157    26    27    1
   158    26    23    1
   159    26    28    1
   160    24    23    1
   161   170   169    2
   162   171   172    1
   163   171   168    1
   164   174   172   ar
   165   169   168    1
   166   172   173   ar
   167   168   167    1
