@<TRIPOS>MOLECULE
tmp/2x7oB00.pdb
 242 236 0 0 0
SMALL
GASTEIGER

@<TRIPOS>ATOM
      1  N         90.3200  100.7400   74.6590 N.3    41  ILE41      -0.1231
      2  CA        89.3590  101.3510   73.7340 C.3    41  ILE41       0.1692
      3  C         88.9050  102.7360   74.2250 C.2    41  ILE41       0.2593
      4  O         89.2700  103.7450   73.6200 O.2    41  ILE41      -0.2718
      5  CB        88.1670  100.4290   73.3460 C.3    41  ILE41       0.0266
      6  CG1       88.6060   98.9650   73.1130 C.3    41  ILE41       0.0019
      7  CG2       87.4480  100.9950   72.1200 C.3    41  ILE41       0.0020
      8  CD1       87.4820   97.9160   73.2650 C.3    41  ILE41       0.0001
      9  N         88.1140  102.7600   75.2980 N.am   42  GLY42      -0.1942
     10  CA        87.5840  103.9870   75.8820 C.3    42  GLY42       0.2014
     11  C         87.3240  103.9090   77.3730 C.2    42  GLY42       0.2638
     12  O         87.6570  102.9090   78.0170 O.2    42  GLY42      -0.2714
     13  N         86.7230  104.9770   77.9270 N.am   43  LYS43      -0.1977
     14  CA        86.4000  105.0880   79.3500 C.3    43  LYS43       0.1596
     15  C         84.9810  105.5900   79.5890 C.2    43  LYS43       0.2287
     16  O         84.4890  106.4470   78.8510 O.2    43  LYS43      -0.2864
     17  CB        87.3920  106.0220   80.0610 C.3    43  LYS43       0.0298
     18  CG        88.7140  105.3660   80.4340 C.3    43  LYS43       0.0038
     19  CD        89.4940  106.1780   81.4720 C.3    43  LYS43       0.0206
     20  CE        90.3900  107.2450   80.8790 C.3    43  LYS43       0.1093
     21  NZ        91.6060  106.6650   80.2500 N.3    43  LYS43      -0.1314
     22  N         87.2430  100.0820   79.4110 N.3    49  VAL49      -0.1245
     23  CA        87.0000   99.0700   78.3770 C.3    49  VAL49       0.1561
     24  C         88.2850   98.8390   77.5710 C.2    49  VAL49       0.2260
     25  O         88.8750   99.7940   77.0590 O.2    49  VAL49      -0.2867
     26  CB        85.7810   99.4110   77.4700 C.3    49  VAL49       0.0252
     27  CG1       85.4660   98.2650   76.5110 C.3    49  VAL49       0.0019
     28  CG2       84.5480   99.7580   78.3010 C.3    49  VAL49       0.0019
     29  N         85.7790   91.8480   74.0340 N.3    60  ALA60      -0.1231
     30  CA        85.7190   93.0730   74.8380 C.3    60  ALA60       0.1694
     31  C         85.8360   92.7560   76.3310 C.2    60  ALA60       0.2592
     32  O         85.1250   91.8830   76.8370 O.2    60  ALA60      -0.2718
     33  CB        84.4300   93.8270   74.5540 C.3    60  ALA60       0.0304
     34  N         86.7550   93.4540   77.0260 N.am   61  VAL61      -0.1966
     35  CA        87.0280   93.2650   78.4550 C.3    61  VAL61       0.1727
     36  C         86.9050   94.5990   79.2130 C.2    61  VAL61       0.2616
     37  O         87.5400   95.5820   78.8300 O.2    61  VAL61      -0.2715
     38  CB        88.4090   92.5730   78.6730 C.3    61  VAL61       0.0290
     39  CG1       88.8780   92.6730   80.1220 C.3    61  VAL61       0.0023
     40  CG2       88.3800   91.1150   78.2220 C.3    61  VAL61       0.0023
     41  N         86.0960   94.6210   80.2890 N.am   62  LYS62      -0.1977
     42  CA        85.9000   95.8000   81.1320 C.3    62  LYS62       0.1596
     43  C         86.6010   95.5800   82.4770 C.2    62  LYS62       0.2287
     44  O         86.1380   94.7770   83.2930 O.2    62  LYS62      -0.2864
     45  CB        84.4010   96.0920   81.3190 C.3    62  LYS62       0.0298
     46  CG        84.0870   97.5500   81.6200 C.3    62  LYS62       0.0038
     47  CD        82.5870   97.7900   81.6660 C.3    62  LYS62       0.0206
     48  CE        82.2500   99.2470   81.8510 C.3    62  LYS62       0.1093
     49  NZ        80.7830   99.4640   81.9400 N.3    62  LYS62      -0.1314
     50  N         76.4240   94.3750   87.6110 N.3    75  GLU75      -0.1245
     51  CA        76.4210   94.0290   86.1900 C.3    75  GLU75       0.1567
     52  C         76.5500   92.5140   85.9980 C.2    75  GLU75       0.2260
     53  O         75.8100   91.9450   85.1970 O.2    75  GLU75      -0.2867
     54  CB        77.5330   94.7790   85.4440 C.3    75  GLU75       0.0388
     55  CG        77.0540   95.4350   84.1610 C.3    75  GLU75       0.1160
     56  CD        78.0390   96.3770   83.4930 C.2    75  GLU75       0.3649
     57  OE1       78.5520   97.2930   84.1760 O.co2  75  GLU75      -0.2457
     58  OE2       78.2580   96.2290   82.2690 O.co2  75  GLU75      -0.2457
     59  N         73.7100   90.0510   84.3340 N.3    79  TYR79      -0.1241
     60  CA        74.0700   89.3130   83.1200 C.3    79  TYR79       0.1605
     61  C         74.0540   87.7790   83.2830 C.2    79  TYR79       0.2264
     62  O         73.8830   87.0770   82.2850 O.2    79  TYR79      -0.2867
     63  CB        75.4390   89.7700   82.5800 C.3    79  TYR79       0.0534
     64  CG        75.4090   90.9960   81.6880 C.ar   79  TYR79      -0.0201
     65  CD1       76.0260   92.1800   82.0780 C.ar   79  TYR79      -0.0009
     66  CD2       74.8220   90.9510   80.4260 C.ar   79  TYR79      -0.0009
     67  CE1       76.0250   93.3040   81.2530 C.ar   79  TYR79       0.0417
     68  CE2       74.8150   92.0690   79.5920 C.ar   79  TYR79       0.0417
     69  CZ        75.4230   93.2430   80.0080 C.ar   79  TYR79       0.1957
     70  OH        75.4190   94.3520   79.1970 O.3    79  TYR79      -0.2866
     71  N         73.6910   92.8720   74.7940 N.3    90  LEU90      -0.1245
     72  CA        75.1290   92.5830   74.7860 C.3    90  LEU90       0.1561
     73  C         75.4390   91.1480   75.2500 C.2    90  LEU90       0.2260
     74  O         75.0820   90.7600   76.3650 O.2    90  LEU90      -0.2867
     75  CB        75.8900   93.6300   75.6280 C.3    90  LEU90       0.0270
     76  CG        77.4170   93.5110   75.7050 C.3    90  LEU90       0.0019
     77  CD1       78.0790   93.9720   74.4150 C.3    90  LEU90       0.0001
     78  CD2       77.9540   94.3160   76.8640 C.3    90  LEU90       0.0001
     79  N         77.1170   88.5330   76.8640 N.3    92  PHE92      -0.1241
     80  CA        78.0110   88.3170   78.0020 C.3    92  PHE92       0.1605
     81  C         78.7510   86.9820   77.8850 C.2    92  PHE92       0.2264
     82  O         78.1600   85.9880   77.4540 O.2    92  PHE92      -0.2867
     83  CB        77.2130   88.3900   79.3140 C.3    92  PHE92       0.0534
     84  CG        78.0140   88.2060   80.5820 C.ar   92  PHE92      -0.0203
     85  CD1       78.7630   89.2520   81.1090 C.ar   92  PHE92      -0.0042
     86  CD2       77.9910   86.9980   81.2690 C.ar   92  PHE92      -0.0042
     87  CE1       79.4940   89.0840   82.2870 C.ar   92  PHE92      -0.0003
     88  CE2       78.7250   86.8300   82.4440 C.ar   92  PHE92      -0.0003
     89  CZ        79.4640   87.8760   82.9490 C.ar   92  PHE92      -0.0000
     90  N         85.2010   91.8320   83.4140 N.3   108  LEU108     -0.1231
     91  CA        83.8830   91.6120   82.8150 C.3   108  LEU108      0.1693
     92  C         84.0490   91.4460   81.2990 C.2   108  LEU108      0.2592
     93  O         84.4370   92.3910   80.6080 O.2   108  LEU108     -0.2718
     94  CB        82.9330   92.7740   83.1610 C.3   108  LEU108      0.0284
     95  CG        81.4930   92.3980   83.5180 C.3   108  LEU108      0.0019
     96  CD1       81.3980   91.8210   84.9280 C.3   108  LEU108      0.0001
     97  CD2       80.5890   93.6040   83.4230 C.3   108  LEU108      0.0001
     98  N         83.7980   90.2240   80.7990 N.am  109  VAL109     -0.1966
     99  CA        83.9740   89.8440   79.3930 C.3   109  VAL109      0.1727
    100  C         82.6430   89.8080   78.6270 C.2   109  VAL109      0.2617
    101  O         81.6640   89.2340   79.1100 O.2   109  VAL109     -0.2715
    102  CB        84.7620   88.5060   79.2680 C.3   109  VAL109      0.0290
    103  CG1       85.1600   88.2220   77.8230 C.3   109  VAL109      0.0023
    104  CG2       85.9980   88.4990   80.1670 C.3   109  VAL109      0.0023
    105  N         82.6310   90.4170   77.4240 N.am  110  SER110     -0.1936
    106  CA        81.4840   90.4850   76.5130 C.3   110  SER110      0.2055
    107  C         81.9470   90.5390   75.0440 C.2   110  SER110      0.2643
    108  O         83.1470   90.6620   74.7900 O.2   110  SER110     -0.2714
    109  CB        80.6110   91.6920   76.8460 C.3   110  SER110      0.2130
    110  OG        81.3020   92.9110   76.6260 O.3   110  SER110     -0.2179
    111  N         80.9990   90.4410   74.0840 N.am  111  ASP111     -0.1957
    112  CA        81.2750   90.4750   72.6420 C.3   111  ASP111      0.1840
    113  C         81.8350   91.8220   72.1740 C.2   111  ASP111      0.2622
    114  O         81.4550   92.8680   72.7050 O.2   111  ASP111     -0.2715
    115  CB        80.0160   90.1150   71.8300 C.3   111  ASP111      0.1450
    116  CG        79.5650   88.6680   71.9350 C.2   111  ASP111      0.3671
    117  OD1       80.4390   87.7710   71.9760 O.co2 111  ASP111     -0.2456
    118  OD2       78.3400   88.4260   71.9030 O.co2 111  ASP111     -0.2456
    119  N         82.7350   91.7840   71.1750 N.am  112  TYR112     -0.1960
    120  CA        83.3710   92.9700   70.5980 C.3   112  TYR112      0.1771
    121  C         82.6860   93.4020   69.3000 C.2   112  TYR112      0.2620
    122  O         82.3860   92.5630   68.4480 O.2   112  TYR112     -0.2715
    123  CB        84.8810   92.7290   70.3800 C.3   112  TYR112      0.0574
    124  CG        85.6110   93.8640   69.6890 C.ar  112  TYR112     -0.0198
    125  CD1       85.9740   95.0140   70.3860 C.ar  112  TYR112     -0.0009
    126  CD2       85.9660   93.7760   68.3460 C.ar  112  TYR112     -0.0009
    127  CE1       86.6450   96.0610   69.7550 C.ar  112  TYR112      0.0417
    128  CE2       86.6370   94.8160   67.7050 C.ar  112  TYR112      0.0417
    129  CZ        86.9770   95.9560   68.4140 C.ar  112  TYR112      0.1957
    130  OH        87.6430   96.9820   67.7870 O.3   112  TYR112     -0.2866
    131  N         82.4600   94.7190   69.1550 N.am  113  HIS113     -0.1959
    132  CA        81.8490   95.3290   67.9730 C.3   113  HIS113      0.1787
    133  C         82.7630   96.4540   67.4800 C.2   113  HIS113      0.2620
    134  O         82.9870   97.4260   68.2070 O.2   113  HIS113     -0.2715
    135  CB        80.4270   95.8380   68.2800 C.3   113  HIS113      0.0785
    136  CG        79.5330   94.8060   68.8980 C.ar  113  HIS113      0.0821
    137  ND1       79.0590   93.7300   68.1700 N.ar  113  HIS113     -0.2267
    138  CD2       79.0550   94.7230   70.1610 C.ar  113  HIS113      0.1154
    139  CE1       78.3190   93.0260   69.0100 C.ar  113  HIS113      0.1986
    140  NE2       78.2820   93.5870   70.2180 N.ar  113  HIS113     -0.2212
    141  N         83.3260   96.2890   66.2650 N.am  114  GLU114     -0.1963
    142  CA        84.2720   97.2230   65.6400 C.3   114  GLU114      0.1733
    143  C         83.7290   98.6370   65.4110 C.2   114  GLU114      0.2616
    144  O         84.5000   99.5970   65.4900 O.2   114  GLU114     -0.2715
    145  CB        84.8620   96.6290   64.3520 C.3   114  GLU114      0.0429
    146  CG        86.2840   97.0880   64.0730 C.3   114  GLU114      0.1163
    147  CD        87.1400   96.1080   63.2940 C.2   114  GLU114      0.3649
    148  OE1       86.8390   95.8640   62.1030 O.co2 114  GLU114     -0.2457
    149  OE2       88.1330   95.6060   63.8690 O.co2 114  GLU114     -0.2457
    150  N         82.4140   98.7670   65.1410 N.am  115  HIS115     -0.1959
    151  CA        81.7480  100.0570   64.9290 C.3   115  HIS115      0.1787
    152  C         81.7100  100.8800   66.2210 C.2   115  HIS115      0.2621
    153  O         81.8370  102.1050   66.1740 O.2   115  HIS115     -0.2715
    154  CB        80.3290   99.8560   64.3800 C.3   115  HIS115      0.0785
    155  CG        80.2940   99.2710   63.0050 C.ar  115  HIS115      0.0821
    156  ND1       80.4730  100.0590   61.8830 N.ar  115  HIS115     -0.2267
    157  CD2       80.0940   97.9920   62.6140 C.ar  115  HIS115      0.1154
    158  CE1       80.3810   99.2380   60.8500 C.ar  115  HIS115      0.1986
    159  NE2       80.1530   97.9840   61.2400 N.ar  115  HIS115     -0.2212
    160  N         81.5520  100.1890   67.3500 N.am  116  GLY116     -0.1940
    161  CA        81.5170  100.7870   68.6790 C.3   116  GLY116      0.2014
    162  C         80.1490  101.2490   69.1270 C.2   116  GLY116      0.2639
    163  O         79.1320  100.6790   68.7240 O.2   116  GLY116     -0.2714
    164  N         80.1250  102.2790   69.9880 N.am  117  SER117     -0.1949
    165  CA        78.8920  102.8570   70.5200 C.3   117  SER117      0.1924
    166  C         78.1690  103.7070   69.4720 C.2   117  SER117      0.2314
    167  O         78.7760  104.1090   68.4750 O.2   117  SER117     -0.2863
    168  CB        79.1790  103.6730   71.7780 C.3   117  SER117      0.2116
    169  OG        80.0560  104.7560   71.5160 O.3   117  SER117     -0.2180
    170  N         79.7440  107.2990   68.8900 N.3   120  ASP120     -0.1225
    171  CA        80.9150  107.3070   68.0070 C.3   120  ASP120      0.1805
    172  C         80.5470  107.0150   66.5480 C.2   120  ASP120      0.2597
    173  O         81.1830  107.5530   65.6400 O.2   120  ASP120     -0.2718
    174  CB        81.9730  106.3050   68.4990 C.3   120  ASP120      0.1424
    175  CG        82.6140  106.6770   69.8230 C.2   120  ASP120      0.3668
    176  OD1       83.3910  107.6560   69.8520 O.co2 120  ASP120     -0.2456
    177  OD2       82.3700  105.9650   70.8210 O.co2 120  ASP120     -0.2456
    178  N         79.5370  106.1500   66.3320 N.am  121  TYR121     -0.1976
    179  CA        79.0530  105.7520   65.0080 C.3   121  TYR121      0.1639
    180  C         78.3350  106.8970   64.2920 C.2   121  TYR121      0.2290
    181  O         78.5980  107.1270   63.1130 O.2   121  TYR121     -0.2864
    182  CB        78.1470  104.5060   65.1080 C.3   121  TYR121      0.0560
    183  CG        77.6790  103.9620   63.7730 C.ar  121  TYR121     -0.0198
    184  CD1       78.4880  103.1160   63.0200 C.ar  121  TYR121     -0.0009
    185  CD2       76.4130  104.2640   63.2800 C.ar  121  TYR121     -0.0009
    186  CE1       78.0600  102.6090   61.7930 C.ar  121  TYR121      0.0417
    187  CE2       75.9750  103.7640   62.0540 C.ar  121  TYR121      0.0417
    188  CZ        76.8010  102.9340   61.3150 C.ar  121  TYR121      0.1957
    189  OH        76.3730  102.4330   60.1090 O.3   121  TYR121     -0.2866
    190  N         80.4570  109.9530   63.1550 N.3   124  ARG124     -0.1231
    191  CA        81.3060  109.5810   62.0250 C.3   124  ARG124      0.1694
    192  C         80.5100  109.2570   60.7410 C.2   124  ARG124      0.2592
    193  O         80.9080  109.6960   59.6610 O.2   124  ARG124     -0.2718
    194  CB        82.2010  108.3930   62.4210 C.3   124  ARG124      0.0321
    195  CG        83.4600  108.2380   61.5780 C.3   124  ARG124      0.0489
    196  CD        84.0780  106.8650   61.7590 C.3   124  ARG124      0.2205
    197  NE        85.3010  106.7020   60.9700 N.pl3 124  ARG124     -0.0865
    198  CZ        85.8370  105.5280   60.6460 C.cat 124  ARG124      0.5346
    199  NH1       85.2580  104.3960   61.0290 N.pl3 124  ARG124      0.1354
    200  NH2       86.9520  105.4770   59.9290 N.pl3 124  ARG124      0.1354
    201  N         79.4160  108.4700   60.8550 N.am  125  TYR125     -0.1976
    202  CA        78.5940  108.0170   59.7230 C.3   125  TYR125      0.1639
    203  C         77.2220  108.6900   59.6060 C.2   125  TYR125      0.2290
    204  O         76.6690  109.1530   60.6030 O.2   125  TYR125     -0.2864
    205  CB        78.3900  106.4920   59.7940 C.3   125  TYR125      0.0560
    206  CG        79.6300  105.6680   59.5300 C.ar  125  TYR125     -0.0198
    207  CD1       79.9480  105.2440   58.2440 C.ar  125  TYR125     -0.0009
    208  CD2       80.4520  105.2550   60.5750 C.ar  125  TYR125     -0.0009
    209  CE1       81.0760  104.4630   57.9970 C.ar  125  TYR125      0.0417
    210  CE2       81.5820  104.4730   60.3410 C.ar  125  TYR125      0.0417
    211  CZ        81.8910  104.0790   59.0500 C.ar  125  TYR125      0.1957
    212  OH        83.0040  103.3090   58.8130 O.3   125  TYR125     -0.2866
    213  N         75.9710  106.5760   74.2470 N.3   167  LYS167     -0.1245
    214  CA        77.2570  106.0130   74.6690 C.3   167  LYS167      0.1561
    215  C         77.0970  104.5900   75.2220 C.2   167  LYS167      0.2260
    216  O         78.0030  103.7710   75.0630 O.2   167  LYS167     -0.2867
    217  CB        77.9300  106.9210   75.7130 C.3   167  LYS167      0.0271
    218  CG        78.3950  108.2620   75.1570 C.3   167  LYS167      0.0035
    219  CD        78.8600  109.2010   76.2560 C.3   167  LYS167      0.0206
    220  CE        79.2330  110.5570   75.7100 C.3   167  LYS167      0.1093
    221  NZ        79.6560  111.4890   76.7870 N.3   167  LYS167     -0.1314
    222  N         75.5390  100.0260   71.8950 N.3   170  LEU170     -0.1245
    223  CA        76.5430   99.6130   70.9070 C.3   170  LEU170      0.1561
    224  C         75.8950   99.1320   69.6110 C.2   170  LEU170      0.2260
    225  O         74.8020   98.5650   69.6460 O.2   170  LEU170     -0.2867
    226  CB        77.4440   98.4990   71.4720 C.3   170  LEU170      0.0270
    227  CG        78.3170   98.8450   72.6760 C.3   170  LEU170      0.0019
    228  CD1       78.6210   97.6120   73.4810 C.3   170  LEU170      0.0001
    229  CD2       79.6090   99.5070   72.2510 C.3   170  LEU170      0.0001
    230  N         73.9060   97.8230   76.3810 N.3   180  ALA180     -0.1231
    231  CA        75.0520   97.5200   77.2410 C.3   180  ALA180      0.1694
    232  C         75.0530   98.3400   78.5410 C.2   180  ALA180      0.2592
    233  O         74.2610   99.2770   78.6790 O.2   180  ALA180     -0.2718
    234  CB        76.3460   97.7420   76.4750 C.3   180  ALA180      0.0304
    235  N         75.9530   97.9750   79.4880 N.am  181  ASP181     -0.1974
    236  CA        76.1500   98.5950   80.8060 C.3   181  ASP181      0.1709
    237  C         74.8930   98.5510   81.6890 C.2   181  ASP181      0.2293
    238  O         74.0790   99.4780   81.6720 O.2   181  ASP181     -0.2864
    239  CB        76.7640  100.0100   80.6980 C.3   181  ASP181      0.1436
    240  CG        77.1080  100.6380   82.0330 C.2   181  ASP181      0.3671
    241  OD1       78.1870  100.3190   82.5770 O.co2 181  ASP181     -0.2456
    242  OD2       76.3000  101.4510   82.5320 O.co2 181  ASP181     -0.2456
@<TRIPOS>BOND
     1   209   207   ar
     2   209   211   ar
     3   207   206   ar
     4   212   211    1
     5   211   210   ar
     6   206   205    1
     7   206   208   ar
     8   203   202    1
     9   203   204    2
    10   193   192    2
    11   202   205    1
    12   202   201    1
    13   200   198    1
    14   189   188    1
    15   210   208   ar
    16   198   197    2
    17   198   199    1
    18   192   201   am
    19   192   191    1
    20   158   159   ar
    21   158   156   ar
    22   197   196    1
    23   159   157   ar
    24   188   186   ar
    25   188   187   ar
    26   195   196    1
    27   195   194    1
    28   186   184   ar
    29   156   155   ar
    30   191   194    1
    31   191   190    1
    32   187   185   ar
    33   148   147   ar
    34   157   155   ar
    35   155   154    1
    36   184   183   ar
    37   181   180    2
    38   185   183   ar
    39   147   149   ar
    40   147   146    1
    41   183   182    1
    42   146   145    1
    43   180   179    1
    44   145   142    1
    45   154   151    1
    46   151   150    1
    47   151   152    1
    48   179   182    1
    49   179   178    1
    50   150   143   am
    51   143   144    2
    52   143   142    1
    53   173   172    2
    54   142   141    1
    55   153   152    2
    56   152   160   am
    57   141   133   am
    58   178   172   am
    59   172   171    1
    60   160   161    1
    61   133   132    1
    62   133   134    2
    63   128   126   ar
    64   128   129   ar
    65   130   129    1
    66   132   135    1
    67   132   131    1
    68   171   174    1
    69   171   170    1
    70   137   136   ar
    71   137   139   ar
    72   135   136    1
    73   126   124   ar
    74   129   127   ar
    75   122   121    2
    76   167   166    2
    77   174   175    1
    78   161   162    1
    79   163   162    2
    80   136   138   ar
    81   139   140   ar
    82   162   164   am
    83   131   121   am
    84   121   120    1
    85   166   165    1
    86   224   225    2
    87   224   223    1
    88   124   123    1
    89   124   125   ar
    90   127   125   ar
    91   175   176   ar
    92   175   177   ar
    93   164   165    1
    94   138   140   ar
    95   123   120    1
    96   165   168    1
    97   120   119    1
    98   223   226    1
    99   223   222    1
   100   119   113   am
   101   226   227    1
   102   169   168    1
   103   115   116    1
   104   115   112    1
   105   118   116   ar
   106   116   117   ar
   107     7     5    1
   108   113   112    1
   109   113   114    2
   110   229   227    1
   111   112   111    1
   112   227   228    1
   113     6     8    1
   114     6     5    1
   115     5     2    1
   116     4     3    2
   117     2     3    1
   118     2     1    1
   119    29    30    1
   120   111   107   am
   121     3     9   am
   122   213   214    1
   123    77    76    1
   124    33    30    1
   125   214   215    1
   126   214   217    1
   127    72    71    1
   128    72    73    1
   129    72    75    1
   130   108   107    2
   131    30    31    1
   132   107   106    1
   133   216   215    2
   134   218   217    1
   135   218   219    1
   136    73    74    2
   137     9    10    1
   138    75    76    1
   139    76    78    1
   140   220   219    1
   141   220   221    1
   142    10    11    1
   143    31    32    2
   144    31    34   am
   145   230   231    1
   146   234   231    1
   147    27    26    1
   148   106   109    1
   149   106   105    1
   150   110   109    1
   151    79    80    1
   152    34    35    1
   153    25    24    2
   154   231   232    1
   155    11    13   am
   156    11    12    2
   157   105   100   am
   158    82    81    2
   159    26    28    1
   160    26    23    1
   161    24    23    1
   162   103   102    1
   163    81    80    1
   164    13    14    1
   165    80    83    1
   166    40    38    1
   167    23    22    1
   168    35    38    1
   169    35    36    1
   170   232   233    2
   171   232   235   am
   172   100   101    2
   173   100    99    1
   174    38    39    1
   175    37    36    2
   176    16    15    2
   177    70    69    1
   178    36    41   am
   179   102    99    1
   180   102   104    1
   181    83    84    1
   182    14    15    1
   183    14    17    1
   184    99    98    1
   185   235   236    1
   186    68    69   ar
   187    68    66   ar
   188    69    67   ar
   189    17    18    1
   190    21    20    1
   191    41    42    1
   192    66    64   ar
   193    18    19    1
   194    84    85   ar
   195    84    86   ar
   196    93    92    2
   197   239   236    1
   198   239   240    1
   199    98    92   am
   200   236   237    1
   201    20    19    1
   202    85    87   ar
   203    42    45    1
   204    42    43    1
   205    67    65   ar
   206    86    88   ar
   207    92    91    1
   208    45    46    1
   209    46    47    1
   210    47    48    1
   211   238   237    2
   212    64    65   ar
   213    64    63    1
   214    48    49    1
   215   240   242   ar
   216   240   241   ar
   217    58    56   ar
   218    62    61    2
   219    87    89   ar
   220    88    89   ar
   221    43    44    2
   222    63    60    1
   223    91    94    1
   224    91    90    1
   225    60    61    1
   226    60    59    1
   227    94    95    1
   228    97    95    1
   229    56    55    1
   230    56    57   ar
   231    95    96    1
   232    55    54    1
   233    53    52    2
   234    54    51    1
   235    52    51    1
   236    51    50    1
