@<TRIPOS>MOLECULE
tmp/2x7pA00.pdb
 98 94 0 0 0
SMALL
GASTEIGER

@<TRIPOS>ATOM
      1  N         12.7010    5.1970   36.6040 N.3     9  ILE9       -0.1245
      2  CA        13.6330    6.2280   37.0390 C.3     9  ILE9        0.1561
      3  C         14.4520    6.7260   35.8540 C.2     9  ILE9        0.2260
      4  O         15.1190    5.9390   35.1840 O.2     9  ILE9       -0.2867
      5  CB        14.5750    5.7040   38.1390 C.3     9  ILE9        0.0252
      6  CG1       13.7630    5.2020   39.3350 C.3     9  ILE9        0.0019
      7  CG2       15.5520    6.7880   38.5650 C.3     9  ILE9        0.0019
      8  CD1       14.6020    4.6020   40.4400 C.3     9  ILE9        0.0001
      9  N         17.1350    7.3740   34.3310 N.3    11  GLU11      -0.1231
     10  CA        18.5700    7.1370   34.3950 C.3    11  GLU11       0.1699
     11  C         19.0440    6.4280   33.1350 C.2    11  GLU11       0.2592
     12  O         18.2400    6.0620   32.2790 O.2    11  GLU11      -0.2718
     13  CB        18.9150    6.2920   35.6230 C.3    11  GLU11       0.0402
     14  CG        19.0620    7.0820   36.9110 C.3    11  GLU11       0.1161
     15  CD        20.3650    7.8550   36.9720 C.2    11  GLU11       0.3649
     16  OE1       21.1380    7.8020   35.9920 O.co2  11  GLU11      -0.2457
     17  OE2       20.6200    8.5130   38.0020 O.co2  11  GLU11      -0.2457
     18  N         20.3540    6.2380   33.0240 N.am   12  HIS12      -0.1962
     19  CA        20.9180    5.4810   31.9140 C.3    12  HIS12       0.1787
     20  C         20.3710    4.0560   31.9050 C.2    12  HIS12       0.2620
     21  O         20.2890    3.4200   30.8560 O.2    12  HIS12      -0.2715
     22  CB        22.4460    5.4630   31.9980 C.3    12  HIS12       0.0785
     23  CG        22.9720    5.4980   33.3990 C.ar   12  HIS12       0.0821
     24  ND1       22.5730    4.6020   34.3670 N.ar   12  HIS12      -0.2267
     25  CD2       23.8710    6.3180   33.9940 C.ar   12  HIS12       0.1154
     26  CE1       23.1990    4.8720   35.4990 C.ar   12  HIS12       0.1986
     27  NE2       23.9930    5.9080   35.2990 N.ar   12  HIS12      -0.2212
     28  N         19.9900    3.5650   33.0800 N.am   13  PHE13      -0.1974
     29  CA        19.4500    2.2150   33.2100 C.3    13  PHE13       0.1639
     30  C         18.0990    2.0550   32.5180 C.2    13  PHE13       0.2290
     31  O         17.6840    0.9380   32.2110 O.2    13  PHE13      -0.2864
     32  CB        19.3210    1.8220   34.6840 C.3    13  PHE13       0.0560
     33  CG        20.6210    1.4320   35.3260 C.ar   13  PHE13      -0.0200
     34  CD1       21.1970    0.2010   35.0600 C.ar   13  PHE13      -0.0042
     35  CD2       21.2660    2.2940   36.1960 C.ar   13  PHE13      -0.0042
     36  CE1       22.3930   -0.1630   35.6500 C.ar   13  PHE13      -0.0003
     37  CE2       22.4610    1.9360   36.7900 C.ar   13  PHE13      -0.0003
     38  CZ        23.0250    0.7060   36.5160 C.ar   13  PHE13      -0.0000
     39  N         13.3020    8.4900   43.2520 N.3    41  GLY41      -0.1210
     40  CA        14.0160    7.2580   43.5350 C.3    41  GLY41       0.1956
     41  C         13.1140    6.0680   43.7990 C.2    41  GLY41       0.2613
     42  O         11.9010    6.1340   43.5960 O.2    41  GLY41      -0.2717
     43  N         13.7150    4.9740   44.2590 N.am   42  SER42      -0.1938
     44  CA        12.9830    3.7380   44.5170 C.3    42  SER42       0.2055
     45  C         12.0290    3.8760   45.6980 C.2    42  SER42       0.2643
     46  O         11.0280    3.1630   45.7860 O.2    42  SER42      -0.2714
     47  CB        13.9550    2.5820   44.7630 C.3    42  SER42       0.2130
     48  OG        14.7700    2.3510   43.6270 O.3    42  SER42      -0.2179
     49  N         12.3450    4.7940   46.6060 N.am   43  GLY43      -0.1954
     50  CA        11.5040    5.0390   47.7620 C.3    43  GLY43       0.1869
     51  C         10.0950    5.4320   47.3630 C.2    43  GLY43       0.2309
     52  O          9.1180    4.9430   47.9300 O.2    43  GLY43      -0.2863
     53  N         15.8090    0.0140   42.5180 N.3    60  LEU60      -0.1245
     54  CA        16.8810   -0.7390   43.1580 C.3    60  LEU60       0.1561
     55  C         16.3530   -1.9650   43.8970 C.2    60  LEU60       0.2260
     56  O         15.2810   -1.9270   44.5000 O.2    60  LEU60      -0.2867
     57  CB        17.6740    0.1560   44.1110 C.3    60  LEU60       0.0270
     58  CG        18.3960    1.3370   43.4600 C.3    60  LEU60       0.0019
     59  CD1       19.1850    2.1210   44.4960 C.3    60  LEU60       0.0001
     60  CD2       19.3080    0.8540   42.3430 C.3    60  LEU60       0.0001
     61  N         25.4610   -2.7610   41.3820 N.3    86  LEU86      -0.1245
     62  CA        25.6170   -1.3130   41.3660 C.3    86  LEU86       0.1561
     63  C         26.9520   -0.9340   41.9930 C.2    86  LEU86       0.2260
     64  O         27.3440   -1.4910   43.0180 O.2    86  LEU86      -0.2867
     65  CB        24.4710   -0.6420   42.1260 C.3    86  LEU86       0.0270
     66  CG        24.2690    0.8510   41.8590 C.3    86  LEU86       0.0019
     67  CD1       23.7830    1.0690   40.4360 C.3    86  LEU86       0.0001
     68  CD2       23.2930    1.4550   42.8560 C.3    86  LEU86       0.0001
     69  N         26.3040    6.3950   44.3090 N.3   162  GLU162     -0.1245
     70  CA        26.5490    5.7220   43.0360 C.3   162  GLU162      0.1567
     71  C         27.7030    6.3830   42.2830 C.2   162  GLU162      0.2260
     72  O         27.7700    7.6080   42.1810 O.2   162  GLU162     -0.2867
     73  CB        25.2780    5.6970   42.1830 C.3   162  GLU162      0.0388
     74  CG        25.3300    4.7240   41.0130 C.3   162  GLU162      0.1160
     75  CD        26.1340    5.2560   39.8440 C.2   162  GLU162      0.3649
     76  OE1       26.1680    6.4900   39.6600 O.co2 162  GLU162     -0.2457
     77  OE2       26.7260    4.4420   39.1060 O.co2 162  GLU162     -0.2457
     78  N         27.2960    8.8870   39.2290 N.3   165  THR165     -0.1218
     79  CA        26.6490   10.0980   39.7150 C.3   165  THR165      0.1862
     80  C         27.6780   10.9780   40.4160 C.2   165  THR165      0.2287
     81  O         27.6000   12.2050   40.3700 O.2   165  THR165     -0.2866
     82  CB        25.5110    9.7730   40.7000 C.3   165  THR165      0.1770
     83  OG1       24.5750    8.8840   40.0790 O.3   165  THR165     -0.2211
     84  CG2       24.7920   11.0440   41.1270 C.3   165  THR165      0.0375
     85  N         19.1250   -3.7290   39.7160 N.3   188  TRP188     -0.1241
     86  CA        17.7420   -3.3600   39.4090 C.3   188  TRP188      0.1605
     87  C         16.8090   -4.5600   39.2500 C.2   188  TRP188      0.2264
     88  O         17.2180   -5.6190   38.7740 O.2   188  TRP188     -0.2867
     89  CB        17.6890   -2.4990   38.1450 C.3   188  TRP188      0.0550
     90  CG        18.3970   -1.1900   38.2800 C.ar  188  TRP188      0.0003
     91  CD1       19.7450   -0.9910   38.3410 C.ar  188  TRP188      0.0946
     92  CD2       17.7960    0.1080   38.3560 C.ar  188  TRP188      0.0152
     93  NE1       20.0210    0.3490   38.4590 N.ar  188  TRP188     -0.2442
     94  CE2       18.8410    1.0460   38.4690 C.ar  188  TRP188      0.0810
     95  CE3       16.4750    0.5680   38.3430 C.ar  188  TRP188      0.0012
     96  CZ2       18.6070    2.4150   38.5670 C.ar  188  TRP188      0.0191
     97  CZ3       16.2460    1.9280   38.4410 C.ar  188  TRP188      0.0001
     98  CH2       17.3060    2.8350   38.5520 C.ar  188  TRP188      0.0015
@<TRIPOS>BOND
     1    21    20    2
     2    20    19    1
     3    20    28   am
     4    19    22    1
     5    19    18    1
     6    22    23    1
     7    31    30    2
     8    12    11    2
     9    30    29    1
    10    18    11   am
    11    28    29    1
    12    11    10    1
    13    29    32    1
    14    23    25   ar
    15    23    24   ar
    16    25    27   ar
    17     9    10    1
    18    24    26   ar
    19    10    13    1
    20    32    33    1
    21    34    33   ar
    22    34    36   ar
    23     4     3    2
    24    27    26   ar
    25    33    35   ar
    26    13    14    1
    27    36    38   ar
    28     3     2    1
    29    16    15   ar
    30    35    37   ar
    31    38    37   ar
    32     1     2    1
    33    14    15    1
    34    15    17   ar
    35     2     5    1
    36     5     7    1
    37     5     6    1
    38    89    90    1
    39    89    86    1
    40    90    91   ar
    41    90    92   ar
    42    91    93   ar
    43    95    92   ar
    44    95    97   ar
    45    92    94   ar
    46    97    98   ar
    47    93    94   ar
    48    94    96   ar
    49    98    96   ar
    50    88    87    2
    51    77    75   ar
    52    78    79    1
    53    87    86    1
    54     6     8    1
    55    86    85    1
    56    76    75   ar
    57    79    80    1
    58    79    82    1
    59    75    74    1
    60    83    82    1
    61    81    80    2
    62    67    66    1
    63    82    84    1
    64    74    73    1
    65    62    61    1
    66    62    63    1
    67    62    65    1
    68    66    65    1
    69    66    68    1
    70    63    64    2
    71    72    71    2
    72    73    70    1
    73    71    70    1
    74    60    58    1
    75    53    54    1
    76    70    69    1
    77    54    55    1
    78    54    57    1
    79    39    40    1
    80    58    57    1
    81    58    59    1
    82    40    41    1
    83    42    41    2
    84    48    47    1
    85    41    43   am
    86    55    56    2
    87    43    44    1
    88    44    47    1
    89    44    45    1
    90    45    46    2
    91    45    49   am
    92    49    50    1
    93    51    50    1
    94    51    52    2
