@<TRIPOS>MOLECULE
tmp/2x7sA01.pdb
 95 87 0 0 0
SMALL
GASTEIGER

@<TRIPOS>ATOM
      1  N         16.0120   36.3540    9.1490 N.3    57  LEU57      -0.1245
      2  CA        17.4180   36.6600    8.8950 C.3    57  LEU57       0.1561
      3  C         18.2080   35.4030    8.5650 C.2    57  LEU57       0.2260
      4  O         17.9840   34.3600    9.1780 O.2    57  LEU57      -0.2867
      5  CB        18.0260   37.3620   10.1130 C.3    57  LEU57       0.0270
      6  CG        19.5370   37.3440   10.3690 C.3    57  LEU57       0.0019
      7  CD1       20.2920   38.3110    9.4410 C.3    57  LEU57       0.0001
      8  CD2       19.8000   37.6840   11.8270 C.3    57  LEU57       0.0001
      9  N         21.6910   34.0850    9.1450 N.3    59  ASN59      -0.1240
     10  CA        22.8580   34.3790    9.9810 C.3    59  ASN59       0.1653
     11  C         24.1470   33.6690    9.5690 C.2    59  ASN59       0.2266
     12  O         25.1490   33.7240   10.2850 O.2    59  ASN59      -0.2867
     13  CB        22.5500   34.0690   11.4510 C.3    59  ASN59       0.1155
     14  CG        22.0720   32.6480   11.6570 C.2    59  ASN59       0.2627
     15  OD1       22.4780   31.7390   10.9480 O.2    59  ASN59      -0.2716
     16  ND2       21.1940   32.4570   12.6260 N.am   59  ASN59      -0.0877
     17  N         16.6470   32.5160   10.7220 N.3    64  ASN64      -0.1240
     18  CA        15.9030   32.5900   11.9700 C.3    64  ASN64       0.1653
     19  C         14.8080   33.6670   11.9090 C.2    64  ASN64       0.2266
     20  O         15.0480   34.7580   11.3820 O.2    64  ASN64      -0.2867
     21  CB        16.8710   32.8280   13.1450 C.3    64  ASN64       0.1155
     22  CG        18.1230   31.9130   13.0960 C.2    64  ASN64       0.2627
     23  OD1       18.7990   31.8040   12.0710 O.2    64  ASN64      -0.2716
     24  ND2       18.4370   31.2830   14.2170 N.am   64  ASN64      -0.0877
     25  N         12.6620   36.2100   14.0660 N.3    66  GLU66      -0.1245
     26  CA        12.6650   36.9120   15.3470 C.3    66  GLU66       0.1567
     27  C         11.2700   37.4010   15.7110 C.2    66  GLU66       0.2260
     28  O         10.5270   37.8740   14.8500 O.2    66  GLU66      -0.2867
     29  CB        13.5880   38.1200   15.2770 C.3    66  GLU66       0.0388
     30  CG        15.0670   37.8090   15.2220 C.3    66  GLU66       0.1160
     31  CD        15.9180   39.0700   15.1340 C.2    66  GLU66       0.3649
     32  OE1       15.6880   40.0000   15.9450 O.co2  66  GLU66      -0.2457
     33  OE2       16.8190   39.1240   14.2570 O.co2  66  GLU66      -0.2457
     34  N          9.4710   39.9080   21.9540 N.3    69  ASP69      -0.1239
     35  CA         9.2870   39.1180   23.1710 C.3    69  ASP69       0.1674
     36  C          8.9540   39.9670   24.4070 C.2    69  ASP69       0.2266
     37  O          9.8000   40.1570   25.2840 O.2    69  ASP69      -0.2867
     38  CB        10.4890   38.1830   23.4120 C.3    69  ASP69       0.1410
     39  CG        11.8110   38.9310   23.5480 C.2    69  ASP69       0.3668
     40  OD1       11.9080   40.1100   23.1320 O.co2  69  ASP69      -0.2456
     41  OD2       12.7630   38.3310   24.0820 O.co2  69  ASP69      -0.2456
     42  N         11.2690   33.8840   21.4950 N.3    87  ILE87      -0.1231
     43  CA        12.1670   34.9150   21.0090 C.3    87  ILE87       0.1692
     44  C         12.5200   34.7060   19.5270 C.2    87  ILE87       0.2591
     45  O         12.7160   35.6670   18.7820 O.2    87  ILE87      -0.2718
     46  CB        13.4050   35.0480   21.9350 C.3    87  ILE87       0.0266
     47  CG1       14.2240   36.2910   21.5800 C.3    87  ILE87       0.0019
     48  CG2       14.2390   33.7380   21.9860 C.3    87  ILE87       0.0020
     49  CD1       15.1790   36.6850   22.6980 C.3    87  ILE87       0.0001
     50  N         12.5820   33.4500   19.0880 N.am   88  GLN88      -0.1979
     51  CA        12.8770   33.1820   17.6840 C.3    88  GLN88       0.1601
     52  C         12.6200   31.7270   17.2980 C.2    88  GLN88       0.2287
     53  O         12.5320   30.8580   18.1690 O.2    88  GLN88      -0.2864
     54  CB        14.3270   33.5990   17.3720 C.3    88  GLN88       0.0394
     55  CG        15.4440   32.7350   17.9780 C.3    88  GLN88       0.0908
     56  CD        15.9830   31.6840   16.9950 C.2    88  GLN88       0.2608
     57  OE1       15.3330   30.6900   16.7230 O.2    88  GLN88      -0.2717
     58  NE2       17.1880   31.8940   16.5010 N.am   88  GLN88      -0.0878
     59  N         12.5860   28.7810   20.0810 N.3   117  VAL117     -0.1245
     60  CA        13.4130   29.1280   21.2380 C.3   117  VAL117      0.1561
     61  C         12.6740   30.0980   22.1850 C.2   117  VAL117      0.2260
     62  O         12.2220   31.1730   21.7580 O.2   117  VAL117     -0.2867
     63  CB        14.7700   29.7360   20.7970 C.3   117  VAL117      0.0252
     64  CG1       15.6600   30.0090   21.9930 C.3   117  VAL117      0.0019
     65  CG2       15.5040   28.8140   19.7600 C.3   117  VAL117      0.0019
     66  N         16.3790   39.0820   30.6680 N.3   125  ASP125     -0.1225
     67  CA        16.7700   39.1000   29.2520 C.3   125  ASP125      0.1805
     68  C         17.3470   37.7680   28.7560 C.2   125  ASP125      0.2598
     69  O         17.8590   36.9730   29.5420 O.2   125  ASP125     -0.2718
     70  CB        17.7270   40.2600   28.9360 C.3   125  ASP125      0.1424
     71  CG        19.0070   40.2260   29.7680 C.2   125  ASP125      0.3668
     72  OD1       19.1440   41.0770   30.6760 O.co2 125  ASP125     -0.2456
     73  OD2       19.8850   39.3680   29.5180 O.co2 125  ASP125     -0.2456
     74  N         17.2620   37.5440   27.4440 N.am  126  PHE126     -0.1962
     75  CA        17.7730   36.3140   26.8340 C.3   126  PHE126      0.1771
     76  C         19.1940   36.0080   27.3030 C.2   126  PHE126      0.2620
     77  O         19.4940   34.8720   27.6860 O.2   126  PHE126     -0.2715
     78  CB        17.7210   36.4090   25.3040 C.3   126  PHE126      0.0574
     79  CG        18.1150   35.1350   24.6000 C.ar  126  PHE126     -0.0200
     80  CD1       17.2060   34.0840   24.4710 C.ar  126  PHE126     -0.0042
     81  CD2       19.3920   34.9880   24.0680 C.ar  126  PHE126     -0.0042
     82  CE1       17.5750   32.8980   23.8270 C.ar  126  PHE126     -0.0003
     83  CE2       19.7620   33.8150   23.4120 C.ar  126  PHE126     -0.0003
     84  CZ        18.8580   32.7720   23.2970 C.ar  126  PHE126     -0.0000
     85  N         20.0490   37.0340   27.2780 N.am  127  GLY127     -0.1954
     86  CA        21.4570   36.9160   27.6510 C.3   127  GLY127      0.1869
     87  C         21.7120   36.3970   29.0530 C.2   127  GLY127      0.2309
     88  O         22.5740   35.5450   29.2550 O.2   127  GLY127     -0.2863
     89  N         20.4090   32.5240   29.3960 N.3   130  VAL130     -0.1245
     90  CA        21.2710   31.4640   28.8510 C.3   130  VAL130      0.1561
     91  C         22.4140   31.0500   29.8020 C.2   130  VAL130      0.2260
     92  O         23.1200   30.0630   29.5520 O.2   130  VAL130     -0.2867
     93  CB        21.8210   31.7960   27.4220 C.3   130  VAL130      0.0252
     94  CG1       20.6760   32.0630   26.4450 C.3   130  VAL130      0.0019
     95  CG2       22.8180   32.9530   27.4460 C.3   130  VAL130      0.0019
@<TRIPOS>BOND
     1     3     2    1
     2     3     4    2
     3     2     1    1
     4     2     5    1
     5     9    10    1
     6     7     6    1
     7    11    10    1
     8    11    12    2
     9    10    13    1
    10     5     6    1
    11     6     8    1
    12    17    18    1
    13    15    14    2
    14    20    19    2
    15    13    14    1
    16    14    16   am
    17    19    18    1
    18    18    21    1
    19    23    22    2
    20    22    21    1
    21    22    24   am
    22    25    26    1
    23    33    31   ar
    24    28    27    2
    25    31    30    1
    26    31    32   ar
    27    30    29    1
    28    29    26    1
    29    26    27    1
    30    58    56   am
    31    57    56    2
    32    56    55    1
    33    52    51    1
    34    52    53    2
    35    54    51    1
    36    54    55    1
    37    51    50    1
    38    45    44    2
    39    50    44   am
    40    44    43    1
    41    65    63    1
    42    59    60    1
    43    63    60    1
    44    63    64    1
    45    43    42    1
    46    43    46    1
    47    60    61    1
    48    47    46    1
    49    47    49    1
    50    62    61    2
    51    46    48    1
    52    34    35    1
    53    40    39   ar
    54    35    38    1
    55    35    36    1
    56    84    83   ar
    57    84    82   ar
    58    38    39    1
    59    83    81   ar
    60    39    41   ar
    61    82    80   ar
    62    81    79   ar
    63    36    37    2
    64    80    79   ar
    65    79    78    1
    66    78    75    1
    67    94    93    1
    68    75    76    1
    69    75    74    1
    70    85    76   am
    71    85    86    1
    72    76    77    2
    73    93    95    1
    74    93    90    1
    75    74    68   am
    76    86    87    1
    77    68    67    1
    78    68    69    2
    79    90    89    1
    80    90    91    1
    81    70    67    1
    82    70    71    1
    83    87    88    2
    84    67    66    1
    85    73    71   ar
    86    92    91    2
    87    71    72   ar
