@<TRIPOS>MOLECULE
tmp/2x7sA00.pdb
 188 182 0 0 0
SMALL
GASTEIGER

@<TRIPOS>ATOM
      1  N         32.9140   29.5370   13.5140 N.3     2  TRP2       -0.1241
      2  CA        32.3460   28.1850   13.6220 C.3     2  TRP2        0.1605
      3  C         31.2960   27.9060   12.5450 C.2     2  TRP2        0.2264
      4  O         30.5880   28.8090   12.0880 O.2     2  TRP2       -0.2867
      5  CB        31.8000   27.9090   15.0350 C.3     2  TRP2        0.0550
      6  CG        30.4990   28.5770   15.3520 C.ar    2  TRP2        0.0003
      7  CD1       30.3180   29.7660   16.0240 C.ar    2  TRP2        0.0946
      8  CD2       29.1870   28.1050   15.0170 C.ar    2  TRP2        0.0152
      9  NE1       28.9750   30.0490   16.1200 N.ar    2  TRP2       -0.2442
     10  CE2       28.2630   29.0460   15.5120 C.ar    2  TRP2        0.0810
     11  CE3       28.7050   26.9680   14.3500 C.ar    2  TRP2        0.0012
     12  CZ2       26.8840   28.8880   15.3530 C.ar    2  TRP2        0.0191
     13  CZ3       27.3390   26.8160   14.1900 C.ar    2  TRP2        0.0001
     14  CH2       26.4460   27.7750   14.6800 C.ar    2  TRP2        0.0015
     15  N         21.6910   34.0850    9.1450 N.3    59  ASN59      -0.1240
     16  CA        22.8580   34.3790    9.9810 C.3    59  ASN59       0.1653
     17  C         24.1470   33.6690    9.5690 C.2    59  ASN59       0.2266
     18  O         25.1490   33.7240   10.2850 O.2    59  ASN59      -0.2867
     19  CB        22.5500   34.0690   11.4510 C.3    59  ASN59       0.1155
     20  CG        22.0720   32.6480   11.6570 C.2    59  ASN59       0.2627
     21  OD1       22.4780   31.7390   10.9480 O.2    59  ASN59      -0.2716
     22  ND2       21.1940   32.4570   12.6260 N.am   59  ASN59      -0.0877
     23  N         24.3610   30.4470    9.4240 N.3    61  HIS61      -0.1241
     24  CA        24.2760   29.1020   10.0050 C.3    61  HIS61       0.1621
     25  C         22.9430   28.4800    9.6600 C.2    61  HIS61       0.2264
     26  O         22.8630   27.2820    9.3680 O.2    61  HIS61      -0.2867
     27  CB        24.4420   29.1300   11.5220 C.3    61  HIS61       0.0745
     28  CG        25.7040   29.7890   11.9650 C.ar   61  HIS61       0.0817
     29  ND1       26.9390   29.1860   11.8450 N.ar   61  HIS61      -0.2268
     30  CD2       25.9270   31.0170   12.4850 C.ar   61  HIS61       0.1154
     31  CE1       27.8670   30.0100   12.2950 C.ar   61  HIS61       0.1986
     32  NE2       27.2790   31.1290   12.6820 N.ar   61  HIS61      -0.2212
     33  N         16.6470   32.5160   10.7220 N.3    64  ASN64      -0.1240
     34  CA        15.9030   32.5900   11.9700 C.3    64  ASN64       0.1653
     35  C         14.8080   33.6670   11.9090 C.2    64  ASN64       0.2266
     36  O         15.0480   34.7580   11.3820 O.2    64  ASN64      -0.2867
     37  CB        16.8710   32.8280   13.1450 C.3    64  ASN64       0.1155
     38  CG        18.1230   31.9130   13.0960 C.2    64  ASN64       0.2627
     39  OD1       18.7990   31.8040   12.0710 O.2    64  ASN64      -0.2716
     40  ND2       18.4370   31.2830   14.2170 N.am   64  ASN64      -0.0877
     41  N         12.5820   33.4500   19.0880 N.3    88  GLN88      -0.1245
     42  CA        12.8770   33.1820   17.6840 C.3    88  GLN88       0.1566
     43  C         12.6200   31.7270   17.2980 C.2    88  GLN88       0.2260
     44  O         12.5320   30.8580   18.1690 O.2    88  GLN88      -0.2867
     45  CB        14.3270   33.5990   17.3720 C.3    88  GLN88       0.0367
     46  CG        15.4440   32.7350   17.9780 C.3    88  GLN88       0.0905
     47  CD        15.9830   31.6840   16.9950 C.2    88  GLN88       0.2608
     48  OE1       15.3330   30.6900   16.7230 O.2    88  GLN88      -0.2717
     49  NE2       17.1880   31.8940   16.5010 N.am   88  GLN88      -0.0878
     50  N         14.0350   28.7130   14.1800 N.3    90  HIS90      -0.1241
     51  CA        14.9450   28.3890   13.0900 C.3    90  HIS90       0.1621
     52  C         14.8310   26.8950   12.8070 C.2    90  HIS90       0.2264
     53  O         14.1380   26.1670   13.5360 O.2    90  HIS90      -0.2867
     54  CB        16.4020   28.7430   13.4450 C.3    90  HIS90       0.0745
     55  CG        16.9140   28.0000   14.6420 C.ar   90  HIS90       0.0817
     56  ND1       16.6430   28.4000   15.9330 N.ar   90  HIS90      -0.2268
     57  CD2       17.5960   26.8380   14.7440 C.ar   90  HIS90       0.1154
     58  CE1       17.1550   27.5280   16.7820 C.ar   90  HIS90       0.1986
     59  NE2       17.7560   26.5780   16.0880 N.ar   90  HIS90      -0.2212
     60  N         17.1000   23.2280   11.1490 N.3    92  HIS92      -0.1241
     61  CA        18.3160   22.4930   10.8100 C.3    92  HIS92       0.1621
     62  C         17.8400   21.5060    9.7540 C.2    92  HIS92       0.2264
     63  O         16.7330   20.9900    9.8590 O.2    92  HIS92      -0.2867
     64  CB        18.8100   21.7370   12.0460 C.3    92  HIS92       0.0745
     65  CG        19.1280   22.6350   13.1990 C.ar   92  HIS92       0.0817
     66  ND1       20.3790   23.1880   13.3800 N.ar   92  HIS92      -0.2268
     67  CD2       18.3570   23.1160   14.2000 C.ar   92  HIS92       0.1154
     68  CE1       20.3710   23.9590   14.4550 C.ar   92  HIS92       0.1986
     69  NE2       19.1540   23.9310   14.9700 N.ar   92  HIS92      -0.2212
     70  N         13.1870   24.3930   15.6130 N.3   115  HIS115     -0.1241
     71  CA        13.3910   24.8010   17.0100 C.3   115  HIS115      0.1621
     72  C         12.7500   26.1440   17.3030 C.2   115  HIS115      0.2264
     73  O         13.1570   27.1620   16.7500 O.2   115  HIS115     -0.2867
     74  CB        14.8660   24.9200   17.3110 C.3   115  HIS115      0.0745
     75  CG        15.5920   23.6190   17.3070 C.ar  115  HIS115      0.0817
     76  ND1       16.9600   23.5470   17.1180 N.ar  115  HIS115     -0.2268
     77  CD2       15.1510   22.3470   17.4330 C.ar  115  HIS115      0.1154
     78  CE1       17.3250   22.2740   17.1650 C.ar  115  HIS115      0.1986
     79  NE2       16.2500   21.5290   17.3270 N.ar  115  HIS115     -0.2212
     80  N         12.5860   28.7810   20.0810 N.3   117  VAL117     -0.1245
     81  CA        13.4130   29.1280   21.2380 C.3   117  VAL117      0.1561
     82  C         12.6740   30.0980   22.1850 C.2   117  VAL117      0.2260
     83  O         12.2220   31.1730   21.7580 O.2   117  VAL117     -0.2867
     84  CB        14.7700   29.7360   20.7970 C.3   117  VAL117      0.0252
     85  CG1       15.6600   30.0090   21.9930 C.3   117  VAL117      0.0019
     86  CG2       15.5040   28.8140   19.7600 C.3   117  VAL117      0.0019
     87  N         17.2620   37.5440   27.4440 N.3   126  PHE126     -0.1227
     88  CA        17.7730   36.3140   26.8340 C.3   126  PHE126      0.1736
     89  C         19.1940   36.0080   27.3030 C.2   126  PHE126      0.2596
     90  O         19.4940   34.8720   27.6860 O.2   126  PHE126     -0.2718
     91  CB        17.7210   36.4090   25.3040 C.3   126  PHE126      0.0547
     92  CG        18.1150   35.1350   24.6000 C.ar  126  PHE126     -0.0202
     93  CD1       17.2060   34.0840   24.4710 C.ar  126  PHE126     -0.0042
     94  CD2       19.3920   34.9880   24.0680 C.ar  126  PHE126     -0.0042
     95  CE1       17.5750   32.8980   23.8270 C.ar  126  PHE126     -0.0003
     96  CE2       19.7620   33.8150   23.4120 C.ar  126  PHE126     -0.0003
     97  CZ        18.8580   32.7720   23.2970 C.ar  126  PHE126     -0.0000
     98  N         20.0490   37.0340   27.2780 N.am  127  GLY127     -0.1957
     99  CA        21.4570   36.9160   27.6510 C.3   127  GLY127      0.1869
    100  C         21.7120   36.3970   29.0530 C.2   127  GLY127      0.2309
    101  O         22.5740   35.5450   29.2550 O.2   127  GLY127     -0.2863
    102  N         20.4090   32.5240   29.3960 N.3   130  VAL130     -0.1245
    103  CA        21.2710   31.4640   28.8510 C.3   130  VAL130      0.1561
    104  C         22.4140   31.0500   29.8020 C.2   130  VAL130      0.2260
    105  O         23.1200   30.0630   29.5520 O.2   130  VAL130     -0.2867
    106  CB        21.8210   31.7960   27.4220 C.3   130  VAL130      0.0252
    107  CG1       20.6760   32.0630   26.4450 C.3   130  VAL130      0.0019
    108  CG2       22.8180   32.9530   27.4460 C.3   130  VAL130      0.0019
    109  N         16.3810   28.3610   29.3180 N.3   136  LEU136     -0.1245
    110  CA        15.6480   28.2600   28.0490 C.3   136  LEU136      0.1561
    111  C         14.7290   27.0530   27.9610 C.2   136  LEU136      0.2260
    112  O         14.9310   26.0430   28.6280 O.2   136  LEU136     -0.2867
    113  CB        16.6000   28.2310   26.8550 C.3   136  LEU136      0.0270
    114  CG        17.5760   29.3860   26.5990 C.3   136  LEU136      0.0019
    115  CD1       18.1990   29.1880   25.2460 C.3   136  LEU136      0.0001
    116  CD2       16.9050   30.7540   26.6780 C.3   136  LEU136      0.0001
    117  N         13.3830   25.0030   24.6130 N.3   138  VAL138     -0.1245
    118  CA        13.3000   24.9210   23.1620 C.3   138  VAL138      0.1561
    119  C         12.3060   23.8410   22.7830 C.2   138  VAL138      0.2260
    120  O         12.3830   22.6820   23.2370 O.2   138  VAL138     -0.2867
    121  CB        14.6690   24.6830   22.4870 C.3   138  VAL138      0.0252
    122  CG1       14.4710   24.5660   20.9810 C.3   138  VAL138      0.0019
    123  CG2       15.6190   25.8270   22.8040 C.3   138  VAL138      0.0019
    124  N         22.1490   24.3340   24.1880 N.3   193  LEU193     -0.1231
    125  CA        22.1590   24.9010   22.8480 C.3   193  LEU193      0.1693
    126  C         22.8810   23.8930   21.9780 C.2   193  LEU193      0.2593
    127  O         23.9080   23.3460   22.3920 O.2   193  LEU193     -0.2718
    128  CB        22.9320   26.2240   22.8190 C.3   193  LEU193      0.0284
    129  CG        22.5970   27.3260   23.8360 C.3   193  LEU193      0.0019
    130  CD1       23.3670   28.5890   23.5130 C.3   193  LEU193      0.0001
    131  CD2       21.1160   27.6060   23.8510 C.3   193  LEU193      0.0001
    132  N         22.3610   23.6320   20.7830 N.am  194  THR194     -0.1939
    133  CA        23.0750   22.7430   19.8550 C.3   194  THR194      0.2028
    134  C         24.0660   23.4710   18.9300 C.2   194  THR194      0.2643
    135  O         24.6510   22.8550   18.0420 O.2   194  THR194     -0.2714
    136  CB        22.0960   21.9570   18.9830 C.3   194  THR194      0.1808
    137  OG1       21.4510   22.8580   18.0780 O.3   194  THR194     -0.2208
    138  CG2       21.0750   21.2580   19.8380 C.3   194  THR194      0.0379
    139  N         24.2060   24.7840   19.0930 N.am  195  THR195     -0.1937
    140  CA        25.2750   25.5260   18.4280 C.3   195  THR195      0.2013
    141  C         26.1830   26.1320   19.4950 C.2   195  THR195      0.2484
    142  O         25.7910   26.1980   20.6520 O.2   195  THR195     -0.2729
    143  CB        24.7330   26.6870   17.5550 C.3   195  THR195      0.1807
    144  OG1       24.1030   27.6760   18.3860 O.3   195  THR195     -0.2208
    145  CG2       23.7580   26.1840   16.4920 C.3   195  THR195      0.0379
    146  N         27.4010   26.5580   19.1140 N.am  196  PRO196     -0.2715
    147  CA        28.1410   27.4040   20.0610 C.3   196  PRO196      0.1521
    148  C         27.2480   28.5790   20.5110 C.2   196  PRO196      0.2440
    149  O         26.4780   29.1040   19.7010 O.2   196  PRO196     -0.2731
    150  CB        29.3250   27.8910   19.2320 C.3   196  PRO196      0.0310
    151  CG        29.5840   26.7450   18.2740 C.3   196  PRO196      0.0237
    152  CD        28.1970   26.2240   17.9190 C.3   196  PRO196      0.0939
    153  N         27.3390   29.0030   21.7910 N.am  197  PRO197     -0.2727
    154  CA        28.2600   28.5760   22.8510 C.3   197  PRO197      0.1402
    155  C         27.8910   27.2760   23.5840 C.2   197  PRO197      0.2269
    156  O         28.5130   26.9550   24.5960 O.2   197  PRO197     -0.2865
    157  CB        28.2240   29.7590   23.8200 C.3   197  PRO197      0.0296
    158  CG        26.8370   30.2780   23.7000 C.3   197  PRO197      0.0237
    159  CD        26.4890   30.1260   22.2350 C.3   197  PRO197      0.0939
    160  N         25.7640   26.3060   25.6210 N.3   199  LEU199     -0.1245
    161  CA        25.4740   26.4260   27.0480 C.3   199  LEU199      0.1561
    162  C         24.4140   25.4300   27.4980 C.2   199  LEU199      0.2260
    163  O         23.4470   25.1810   26.7820 O.2   199  LEU199     -0.2867
    164  CB        25.0220   27.8590   27.3720 C.3   199  LEU199      0.0270
    165  CG        26.0560   28.9620   27.1100 C.3   199  LEU199      0.0019
    166  CD1       25.4000   30.3420   26.9190 C.3   199  LEU199      0.0001
    167  CD2       27.1390   28.9890   28.1970 C.3   199  LEU199      0.0001
    168  N         19.1530   24.5940   28.6430 N.3   202  VAL202     -0.1245
    169  CA        17.9220   24.2990   27.9240 C.3   202  VAL202      0.1561
    170  C         17.1270   23.1290   28.4790 C.2   202  VAL202      0.2260
    171  O         17.6630   22.0340   28.7120 O.2   202  VAL202     -0.2867
    172  CB        18.1690   24.0220   26.3960 C.3   202  VAL202      0.0252
    173  CG1       16.8320   23.8250   25.6610 C.3   202  VAL202      0.0019
    174  CG2       18.9930   25.1330   25.7500 C.3   202  VAL202      0.0019
    175  N         14.7980   20.8030   26.9900 N.3   204  TRP204     -0.1241
    176  CA        14.3720   20.3430   25.6800 C.3   204  TRP204      0.1605
    177  C         13.0010   19.7160   25.7310 C.2   204  TRP204      0.2264
    178  O         12.7260   18.8630   26.5670 O.2   204  TRP204     -0.2867
    179  CB        15.3920   19.3950   25.0470 C.3   204  TRP204      0.0550
    180  CG        16.4560   20.1520   24.3490 C.ar  204  TRP204      0.0003
    181  CD1       17.6790   20.4890   24.8460 C.ar  204  TRP204      0.0946
    182  CD2       16.3650   20.7480   23.0520 C.ar  204  TRP204      0.0152
    183  NE1       18.3670   21.2440   23.9310 N.ar  204  TRP204     -0.2442
    184  CE2       17.5840   21.4210   22.8190 C.ar  204  TRP204      0.0810
    185  CE3       15.3650   20.7920   22.0670 C.ar  204  TRP204      0.0012
    186  CZ2       17.8370   22.1250   21.6380 C.ar  204  TRP204      0.0191
    187  CZ3       15.6300   21.4850   20.8820 C.ar  204  TRP204      0.0001
    188  CH2       16.8530   22.1390   20.6850 C.ar  204  TRP204      0.0015
@<TRIPOS>BOND
     1    15    16    1
     2    26    25    2
     3    23    24    1
     4    17    16    1
     5    17    18    2
     6    25    24    1
     7    62    63    2
     8    62    61    1
     9    16    19    1
    10    24    27    1
    11    33    34    1
    12    61    60    1
    13    61    64    1
    14    21    20    2
    15    36    35    2
    16    19    20    1
    17    27    28    1
    18    20    22   am
    19    29    28   ar
    20    29    31   ar
    21    35    34    1
    22    28    30   ar
    23    34    37    1
    24    64    65    1
    25    39    38    2
    26     4     3    2
    27    31    32   ar
    28    30    32   ar
    29     3     2    1
    30    52    51    1
    31    52    53    2
    32    51    54    1
    33    51    50    1
    34    38    37    1
    35    38    40   am
    36    65    66   ar
    37    65    67   ar
    38    66    68   ar
    39    54    55    1
    40     1     2    1
    41     2     5    1
    42    13    11   ar
    43    13    14   ar
    44    67    69   ar
    45    11     8   ar
    46    68    69   ar
    47    55    57   ar
    48    55    56   ar
    49    14    12   ar
    50    57    59   ar
    51     8     6   ar
    52     8    10   ar
    53     5     6    1
    54     6     7   ar
    55    12    10   ar
    56    10     9   ar
    57    70    71    1
    58    56    58   ar
    59     7     9   ar
    60    59    58   ar
    61   145   143    1
    62    49    47   am
    63    48    47    2
    64    73    72    2
    65    47    46    1
    66    71    72    1
    67    71    74    1
    68    76    78   ar
    69    76    75   ar
    70    78    79   ar
    71    43    42    1
    72    43    44    2
    73    75    74    1
    74    75    77   ar
    75    79    77   ar
    76    45    42    1
    77    45    46    1
    78   143   144    1
    79   143   140    1
    80    42    41    1
    81   152   151    1
    82   152   146    1
    83   135   134    2
    84   137   136    1
    85   151   150    1
    86   140   139    1
    87   140   141    1
    88   134   139   am
    89   134   133    1
    90   136   138    1
    91   136   133    1
    92   146   141   am
    93   146   147    1
    94   150   147    1
    95   141   142    2
    96   149   148    2
    97    86    84    1
    98   133   132    1
    99   147   148    1
   100    80    81    1
   101   148   153   am
   102   188   187   ar
   103   188   186   ar
   104   132   126   am
   105    84    81    1
   106    84    85    1
   107   187   185   ar
   108   122   121    1
   109    81    82    1
   110   186   184   ar
   111    83    82    2
   112   153   159    1
   113   153   154    1
   114   126   127    2
   115   126   125    1
   116   185   182   ar
   117   159   158    1
   118   121   123    1
   119   121   118    1
   120   119   118    1
   121   119   120    2
   122   184   182   ar
   123   184   183   ar
   124   128   125    1
   125   128   129    1
   126   125   124    1
   127   154   155    1
   128   154   157    1
   129   182   180   ar
   130   118   117    1
   131    97    96   ar
   132    97    95   ar
   133    96    94   ar
   134   130   129    1
   135   155   156    2
   136   158   157    1
   137    95    93   ar
   138   129   131    1
   139   183   181   ar
   140    94    92   ar
   141   180   181   ar
   142   180   179    1
   143    93    92   ar
   144    92    91    1
   145   179   176    1
   146   115   114    1
   147    91    88    1
   148   160   161    1
   149   173   172    1
   150   176   177    1
   151   176   175    1
   152   177   178    2
   153   174   172    1
   154   172   169    1
   155   107   106    1
   156   114   116    1
   157   114   113    1
   158   163   162    2
   159    88    89    1
   160    88    87    1
   161   113   110    1
   162   166   165    1
   163   161   164    1
   164   161   162    1
   165   165   164    1
   166   165   167    1
   167    98    89   am
   168    98    99    1
   169    89    90    2
   170   106   108    1
   171   106   103    1
   172    99   100    1
   173   169   170    1
   174   169   168    1
   175   111   110    1
   176   111   112    2
   177   110   109    1
   178   170   171    2
   179   103   102    1
   180   103   104    1
   181   100   101    2
   182   105   104    2
