@<TRIPOS>MOLECULE
tmp/2x7tA00.pdb
 192 187 0 0 0
SMALL
GASTEIGER

@<TRIPOS>ATOM
      1  N          8.2960   -0.1820   10.5200 N.3     2  TRP2       -0.1241
      2  CA         7.6030   -1.1600   11.3480 C.3     2  TRP2        0.1605
      3  C          6.5820   -1.9690   10.5630 C.2     2  TRP2        0.2264
      4  O          6.0010   -1.4890    9.5880 O.2     2  TRP2       -0.2867
      5  CB         6.9150   -0.4980   12.5550 C.3     2  TRP2        0.0550
      6  CG         5.6840    0.3070   12.2350 C.ar    2  TRP2        0.0003
      7  CD1        5.6300    1.6400   11.9330 C.ar    2  TRP2        0.0946
      8  CD2        4.3260   -0.1710   12.1800 C.ar    2  TRP2        0.0152
      9  NE1        4.3250    2.0210   11.6960 N.ar    2  TRP2       -0.2442
     10  CE2        3.5070    0.9300   11.8400 C.ar    2  TRP2        0.0810
     11  CE3        3.7260   -1.4200   12.3850 C.ar    2  TRP2        0.0012
     12  CZ2        2.1150    0.8210   11.7030 C.ar    2  TRP2        0.0191
     13  CZ3        2.3330   -1.5300   12.2480 C.ar    2  TRP2        0.0001
     14  CH2        1.5480   -0.4100   11.9100 C.ar    2  TRP2        0.0015
     15  N          9.9090    3.3430   19.0090 N.3    17  PHE17      -0.1241
     16  CA         8.8070    3.8600   19.8200 C.3    17  PHE17       0.1605
     17  C          8.9180    3.3300   21.2460 C.2    17  PHE17       0.2264
     18  O          8.2430    2.3800   21.6310 O.2    17  PHE17      -0.2867
     19  CB         7.4800    3.4370   19.1890 C.3    17  PHE17       0.0534
     20  CG         7.3470    3.8570   17.7530 C.ar   17  PHE17      -0.0203
     21  CD1        6.9780    5.1580   17.4240 C.ar   17  PHE17      -0.0042
     22  CD2        7.6880    2.9790   16.7280 C.ar   17  PHE17      -0.0042
     23  CE1        6.9590    5.5790   16.0920 C.ar   17  PHE17      -0.0003
     24  CE2        7.6740    3.3900   15.3980 C.ar   17  PHE17      -0.0003
     25  CZ         7.3100    4.6960   15.0820 C.ar   17  PHE17      -0.0000
     26  N         -3.0780    0.3960    3.6630 N.3    59  ASN59      -0.1240
     27  CA        -1.9300    1.1570    4.1450 C.3    59  ASN59       0.1653
     28  C         -0.6700    0.3180    4.3350 C.2    59  ASN59       0.2266
     29  O          0.3490    0.8130    4.8230 O.2    59  ASN59      -0.2867
     30  CB        -2.2970    1.8230    5.4670 C.3    59  ASN59       0.1155
     31  CG        -2.7900    0.8210    6.4850 C.2    59  ASN59       0.2627
     32  OD1       -2.1340   -0.1800    6.7390 O.2    59  ASN59      -0.2716
     33  ND2       -3.9520    1.0820    7.0650 N.am   59  ASN59      -0.0877
     34  N         -0.4640   -2.1930    6.3230 N.3    61  HIS61      -0.1241
     35  CA        -0.5740   -2.8220    7.6410 C.3    61  HIS61       0.1621
     36  C         -1.9240   -3.5220    7.7410 C.2    61  HIS61       0.2264
     37  O         -2.0230   -4.6460    8.2350 O.2    61  HIS61      -0.2867
     38  CB        -0.4800   -1.7790    8.7510 C.3    61  HIS61       0.0745
     39  CG         0.7660   -0.9600    8.7000 C.ar   61  HIS61       0.0817
     40  ND1        2.0250   -1.5240    8.6740 N.ar   61  HIS61      -0.2268
     41  CD2        0.9490    0.3790    8.6550 C.ar   61  HIS61       0.1154
     42  CE1        2.9310   -0.5670    8.6140 C.ar   61  HIS61       0.1986
     43  NE2        2.3050    0.5960    8.6010 N.ar   61  HIS61      -0.2212
     44  N         -8.2350    0.4650    5.7000 N.3    64  ASN64      -0.1240
     45  CA        -9.0660    1.4230    6.4180 C.3    64  ASN64       0.1653
     46  C        -10.2460    1.9730    5.6440 C.2    64  ASN64       0.2266
     47  O        -10.1120    2.3810    4.4940 O.2    64  ASN64      -0.2867
     48  CB        -8.2300    2.6360    6.8610 C.3    64  ASN64       0.1155
     49  CG        -7.0580    2.2590    7.7320 C.2    64  ASN64       0.2627
     50  OD1       -7.2060    1.5140    8.6940 O.2    64  ASN64      -0.2716
     51  ND2       -5.8800    2.7870    7.4060 N.am   64  ASN64      -0.0877
     52  N        -12.5230    6.4050   11.3440 N.3    89  GLN89      -0.1245
     53  CA       -12.3000    5.2550   10.4780 C.3    89  GLN89       0.1566
     54  C        -12.4330    3.9610   11.2590 C.2    89  GLN89       0.2260
     55  O        -12.5630    3.9730   12.4790 O.2    89  GLN89      -0.2867
     56  CB       -10.8970    5.3200    9.8700 C.3    89  GLN89       0.0367
     57  CG        -9.7740    5.2700   10.9090 C.3    89  GLN89       0.0905
     58  CD        -9.0180    3.9450   10.9130 C.2    89  GLN89       0.2608
     59  OE1       -9.5970    2.8760   11.1380 O.2    89  GLN89      -0.2717
     60  NE2       -7.7170    4.0120   10.6610 N.am   89  GLN89      -0.0878
     61  N        -10.9570   -0.3160   11.0150 N.3    91  HIS91      -0.1241
     62  CA       -10.0730   -1.2630   10.3600 C.3    91  HIS91       0.1621
     63  C        -10.1900   -2.5600   11.1300 C.2    91  HIS91       0.2264
     64  O        -10.9350   -2.6400   12.1110 O.2    91  HIS91      -0.2867
     65  CB        -8.6220   -0.7690   10.4080 C.3    91  HIS91       0.0745
     66  CG        -8.1620   -0.4020   11.7840 C.ar   91  HIS91       0.0817
     67  ND1       -8.3200    0.8630   12.3080 N.ar   91  HIS91      -0.2268
     68  CD2       -7.6280   -1.1550   12.7750 C.ar   91  HIS91       0.1154
     69  CE1       -7.9100    0.8720   13.5630 C.ar   91  HIS91       0.1986
     70  NE2       -7.4860   -0.3400   13.8710 N.ar   91  HIS91      -0.2212
     71  N         -8.0020   -6.4010   12.4520 N.3    93  HIS93      -0.1241
     72  CA        -6.7880   -7.1290   12.7610 C.3    93  HIS93       0.1621
     73  C         -7.1720   -8.5830   12.6270 C.2    93  HIS93       0.2264
     74  O         -8.1040   -9.0350   13.2950 O.2    93  HIS93      -0.2867
     75  CB        -6.3100   -6.8590   14.1980 C.3    93  HIS93       0.0745
     76  CG        -5.7840   -5.4350   14.4250 C.ar   93  HIS93       0.0817
     77  ND1       -4.4630   -5.0790   14.2620 N.ar   93  HIS93      -0.2268
     78  CD2       -6.4360   -4.3050   14.7910 C.ar   93  HIS93       0.1154
     79  CE1       -4.3210   -3.7910   14.5210 C.ar   93  HIS93       0.1986
     80  NE2       -5.5030   -3.2980   14.8440 N.ar   93  HIS93      -0.2212
     81  N        -11.9650   -2.4510   14.8070 N.3   116  HIS116     -0.1241
     82  CA       -11.7260   -1.2780   15.6220 C.3   116  HIS116      0.1621
     83  C        -12.3880   -0.0760   14.9660 C.2   116  HIS116      0.2264
     84  O        -12.0950    0.2640   13.8190 O.2   116  HIS116     -0.2867
     85  CB       -10.2190   -1.0520   15.8040 C.3   116  HIS116      0.0745
     86  CG        -9.5760   -2.0330   16.7380 C.ar  116  HIS116      0.0817
     87  ND1       -8.2140   -2.2330   16.7930 N.ar  116  HIS116     -0.2268
     88  CD2      -10.1110   -2.8580   17.6710 C.ar  116  HIS116      0.1154
     89  CE1       -7.9360   -3.1390   17.7140 C.ar  116  HIS116      0.1986
     90  NE2       -9.0710   -3.5340   18.2620 N.ar  116  HIS116     -0.2212
     91  N        -12.5880    3.6460   15.3270 N.3   118  VAL118     -0.1245
     92  CA       -11.8390    4.7280   15.9540 C.3   118  VAL118      0.1561
     93  C        -12.5600    6.0620   15.9980 C.2   118  VAL118      0.2260
     94  O        -12.9780    6.5800   14.9690 O.2   118  VAL118     -0.2867
     95  CB       -10.4950    4.9350   15.2260 C.3   118  VAL118      0.0252
     96  CG1       -9.6340    5.9480   15.9800 C.3   118  VAL118      0.0019
     97  CG2       -9.7860    3.6030   15.0720 C.3   118  VAL118      0.0019
     98  N         -8.1500   14.7690   14.9350 N.3   127  PHE127     -0.1227
     99  CA        -7.5190   13.5280   15.3690 C.3   127  PHE127      0.1736
    100  C         -6.0570   13.7200   15.7720 C.2   127  PHE127      0.2596
    101  O         -5.5960   13.1320   16.7480 O.2   127  PHE127     -0.2718
    102  CB        -7.6330   12.4820   14.2590 C.3   127  PHE127      0.0547
    103  CG        -7.0710   11.1380   14.6310 C.ar  127  PHE127     -0.0202
    104  CD1       -5.7500   10.8120   14.3310 C.ar  127  PHE127     -0.0042
    105  CD2       -7.8600   10.2020   15.2950 C.ar  127  PHE127     -0.0042
    106  CE1       -5.2220    9.5730   14.6860 C.ar  127  PHE127     -0.0003
    107  CE2       -7.3420    8.9580   15.6570 C.ar  127  PHE127     -0.0003
    108  CZ        -6.0200    8.6430   15.3520 C.ar  127  PHE127     -0.0000
    109  N         -5.3390   14.5550   15.0250 N.am  128  GLY128     -0.1957
    110  CA        -3.9370   14.7980   15.3200 C.3   128  GLY128      0.1869
    111  C         -3.6940   15.3200   16.7210 C.2   128  GLY128      0.2309
    112  O         -2.7350   14.9260   17.3750 O.2   128  GLY128     -0.2863
    113  N         -4.7820   12.4980   19.7390 N.3   131  VAL131     -0.1245
    114  CA        -3.8330   11.4530   20.1380 C.3   131  VAL131      0.1561
    115  C         -2.8000   11.8960   21.1700 C.2   131  VAL131      0.2260
    116  O         -2.1400   11.0650   21.7890 O.2   131  VAL131     -0.2867
    117  CB        -3.0940   10.8420   18.9130 C.3   131  VAL131      0.0252
    118  CG1       -4.0910   10.1140   18.0230 C.3   131  VAL131      0.0019
    119  CG2       -2.3590   11.9180   18.1390 C.3   131  VAL131      0.0019
    120  N         -8.9640    9.6780   22.4760 N.3   137  LEU137     -0.1245
    121  CA        -9.5890    8.6700   21.6280 C.3   137  LEU137      0.1561
    122  C        -10.4480    7.6600   22.3730 C.2   137  LEU137      0.2260
    123  O        -10.2650    7.4090   23.5560 O.2   137  LEU137     -0.2867
    124  CB        -8.5350    7.8870   20.8360 C.3   137  LEU137      0.0270
    125  CG        -7.6000    8.6010   19.8620 C.3   137  LEU137      0.0019
    126  CD1       -6.9760    7.5550   18.9490 C.3   137  LEU137      0.0001
    127  CD2       -8.3580    9.6350   19.0360 C.3   137  LEU137      0.0001
    128  N        -11.8180    3.8740   21.2190 N.3   139  VAL139     -0.1245
    129  CA       -11.8730    2.8630   20.1760 C.3   139  VAL139      0.1561
    130  C        -12.7980    1.7540   20.6320 C.2   139  VAL139      0.2260
    131  O        -12.6110    1.1750   21.7080 O.2   139  VAL139     -0.2867
    132  CB       -10.4850    2.2680   19.8660 C.3   139  VAL139      0.0252
    133  CG1      -10.5810    1.3300   18.6660 C.3   139  VAL139      0.0019
    134  CG2       -9.4970    3.3810   19.5960 C.3   139  VAL139      0.0019
    135  N         -2.8540    3.2080   21.4390 N.3   194  LEU194     -0.1231
    136  CA        -2.9820    2.7570   20.0580 C.3   194  LEU194      0.1693
    137  C         -2.2510    1.4120   20.0750 C.2   194  LEU194      0.2593
    138  O         -1.3160    1.2420   20.8580 O.2   194  LEU194     -0.2718
    139  CB        -2.3090    3.7060   19.0250 C.3   194  LEU194      0.0284
    140  CG        -2.5190    5.2100   19.1880 C.3   194  LEU194      0.0019
    141  CD1       -1.6410    5.9840   18.2220 C.3   194  LEU194      0.0001
    142  CD2       -3.9830    5.5690   18.9990 C.3   194  LEU194      0.0001
    143  N         -2.6530    0.4630   19.2330 N.am  195  THR195     -0.1939
    144  CA        -1.9900   -0.8380   19.2200 C.3   195  THR195      0.2028
    145  C         -0.9270   -0.9740   18.1280 C.2   195  THR195      0.2643
    146  O         -0.3940   -2.0710   17.9090 O.2   195  THR195     -0.2714
    147  CB        -2.9970   -1.9870   19.0640 C.3   195  THR195      0.1808
    148  OG1       -3.5990   -1.9210   17.7710 O.3   195  THR195     -0.2208
    149  CG2       -4.0730   -1.8960   20.1420 C.3   195  THR195      0.0379
    150  N         -0.6160    0.1370   17.4680 N.am  196  THR196     -0.1937
    151  CA         0.4270    0.1710   16.4470 C.3   196  THR196      0.2013
    152  C          1.1810    1.4720   16.6800 C.2   196  THR196      0.2484
    153  O          0.6670    2.3910   17.3280 O.2   196  THR196     -0.2729
    154  CB        -0.1190    0.2430   15.0020 C.3   196  THR196      0.1807
    155  OG1       -0.6430    1.5550   14.7630 O.3   196  THR196     -0.2208
    156  CG2       -1.1990   -0.7990   14.7700 C.3   196  THR196      0.0379
    157  N          2.4090    1.5690   16.1570 N.am  197  PRO197     -0.2715
    158  CA         3.1590    2.8100   16.3510 C.3   197  PRO197      0.1521
    159  C          2.2620    3.9360   15.8360 C.2   197  PRO197      0.2440
    160  O          1.5220    3.7410   14.8700 O.2   197  PRO197     -0.2731
    161  CB         4.3930    2.6000   15.4720 C.3   197  PRO197      0.0310
    162  CG         4.6130    1.1110   15.5500 C.3   197  PRO197      0.0237
    163  CD         3.1980    0.5800   15.3990 C.3   197  PRO197      0.0939
    164  N          2.3450    5.1370   16.4290 N.am  198  PRO198     -0.2727
    165  CA         3.2060    5.5550   17.5390 C.3   198  PRO198      0.1402
    166  C          2.8750    5.0300   18.9460 C.2   198  PRO198      0.2269
    167  O          3.4660    5.4820   19.9280 O.2   198  PRO198     -0.2865
    168  CB         3.1550    7.0800   17.4490 C.3   198  PRO198      0.0296
    169  CG         1.7660    7.3330   16.9470 C.3   198  PRO198      0.0237
    170  CD         1.6280    6.2950   15.8600 C.3   198  PRO198      0.0939
    171  N          0.7000    5.6640   21.0720 N.3   200  LEU200     -0.1245
    172  CA         0.3500    6.7030   22.0420 C.3   200  LEU200      0.1561
    173  C         -0.7170    6.2360   23.0300 C.2   200  LEU200      0.2260
    174  O         -1.6960    5.5950   22.6460 O.2   200  LEU200     -0.2867
    175  CB        -0.1180    7.9600   21.3040 C.3   200  LEU200      0.0270
    176  CG         0.9400    8.4780   20.3190 C.3   200  LEU200      0.0019
    177  CD1        0.3890    9.6450   19.5150 C.3   200  LEU200      0.0001
    178  CD2        2.1890    8.8940   21.0860 C.3   200  LEU200      0.0001
    179  N        -10.4430    2.4080   25.9820 N.3   205  TRP205     -0.1241
    180  CA       -10.9110    1.2400   25.2640 C.3   205  TRP205      0.1605
    181  C        -12.2830    0.7700   25.7120 C.2   205  TRP205      0.2264
    182  O        -12.5990    0.7160   26.9000 O.2   205  TRP205     -0.2867
    183  CB        -9.9030    0.0920   25.3770 C.3   205  TRP205      0.0550
    184  CG        -8.7990    0.1990   24.3700 C.ar  205  TRP205      0.0003
    185  CD1       -7.5570    0.7400   24.5600 C.ar  205  TRP205      0.0946
    186  CD2       -8.8610   -0.1940   22.9930 C.ar  205  TRP205      0.0152
    187  NE1       -6.8420    0.7080   23.3840 N.ar  205  TRP205     -0.2442
    188  CE2       -7.6200    0.1390   22.4070 C.ar  205  TRP205      0.0810
    189  CE3       -9.8490   -0.7940   22.1960 C.ar  205  TRP205      0.0012
    190  CZ2       -7.3380   -0.1090   21.0610 C.ar  205  TRP205      0.0191
    191  CZ3       -9.5680   -1.0430   20.8520 C.ar  205  TRP205      0.0001
    192  CH2       -8.3230   -0.7000   20.3000 C.ar  205  TRP205      0.0015
@<TRIPOS>BOND
     1    26    27    1
     2    27    28    1
     3    27    30    1
     4    28    29    2
     5    47    46    2
     6    30    31    1
     7    46    45    1
     8    44    45    1
     9    34    35    1
    10    45    48    1
    11    31    32    2
    12    31    33   am
    13    48    49    1
    14    51    49   am
    15    35    36    1
    16    35    38    1
    17    49    50    2
    18    36    37    2
    19    43    42   ar
    20    43    41   ar
    21    42    40   ar
    22    41    39   ar
    23    40    39   ar
    24    39    38    1
    25     4     3    2
    26    56    53    1
    27    56    57    1
    28    62    65    1
    29    62    61    1
    30    62    63    1
    31    65    66    1
    32    53    54    1
    33    53    52    1
    34     1     2    1
    35     3     2    1
    36    60    58   am
    37    57    58    1
    38    58    59    2
    39    63    64    2
    40    54    55    2
    41     2     5    1
    42     9    10   ar
    43     9     7   ar
    44    12    10   ar
    45    12    14   ar
    46    66    67   ar
    47    66    68   ar
    48    10     8   ar
    49    14    13   ar
    50     7     6   ar
    51     8     6   ar
    52     8    11   ar
    53     6     5    1
    54    13    11   ar
    55    67    69   ar
    56    71    72    1
    57    73    72    1
    58    73    74    2
    59    72    75    1
    60    68    70   ar
    61    69    70   ar
    62    84    83    2
    63    75    76    1
    64   102   103    1
    65   102    99    1
    66    77    76   ar
    67    77    79   ar
    68   104   103   ar
    69   104   106   ar
    70    76    78   ar
    71    79    80   ar
    72   103   105   ar
    73   106   108   ar
    74   155   154    1
    75   156   154    1
    76    78    80   ar
    77    81    82    1
    78   160   159    2
    79    98    99    1
    80    83    82    1
    81    94    93    2
    82   154   151    1
    83   109   110    1
    84   109   100   am
    85    97    95    1
    86    25    24   ar
    87    25    23   ar
    88    95    92    1
    89    95    96    1
    90   105   107   ar
    91   110   111    1
    92    91    92    1
    93   108   107   ar
    94    99   100    1
    95    24    22   ar
    96   163   162    1
    97   163   157    1
    98   161   162    1
    99   161   158    1
   100    82    85    1
   101   100   101    2
   102    85    86    1
   103   159   158    1
   104   159   164   am
   105   170   164    1
   106   170   169    1
   107    92    93    1
   108    23    21   ar
   109   157   158    1
   110   157   152   am
   111   164   165    1
   112   151   152    1
   113   151   150    1
   114   152   153    2
   115   111   112    2
   116    22    20   ar
   117    86    87   ar
   118    86    88   ar
   119    87    89   ar
   120   169   168    1
   121    21    20   ar
   122   168   165    1
   123   150   145   am
   124   165   166    1
   125    88    90   ar
   126    89    90   ar
   127    20    19    1
   128   148   147    1
   129   146   145    2
   130   118   117    1
   131   145   144    1
   132   119   117    1
   133   141   140    1
   134   133   132    1
   135   117   114    1
   136   166   167    2
   137   126   125    1
   138   142   140    1
   139    15    16    1
   140   139   140    1
   141   139   136    1
   142   127   125    1
   143   147   144    1
   144   147   149    1
   145    19    16    1
   146   144   143    1
   147   143   137   am
   148   177   176    1
   149   134   132    1
   150   113   114    1
   151    16    17    1
   152   125   124    1
   153   132   129    1
   154   136   137    1
   155   136   135    1
   156   137   138    2
   157   114   115    1
   158   129   130    1
   159   129   128    1
   160   192   191   ar
   161   192   190   ar
   162   176   178    1
   163   176   175    1
   164   130   131    2
   165   124   121    1
   166   191   189   ar
   167   190   188   ar
   168   171   172    1
   169   115   116    2
   170    17    18    2
   171   175   172    1
   172   121   122    1
   173   121   120    1
   174   172   173    1
   175   189   186   ar
   176   122   123    2
   177   188   186   ar
   178   188   187   ar
   179   174   173    2
   180   186   184   ar
   181   187   185   ar
   182   184   185   ar
   183   184   183    1
   184   180   183    1
   185   180   181    1
   186   180   179    1
   187   181   182    2
