@<TRIPOS>MOLECULE
tmp/2x7uA00.pdb
 155 152 0 0 0
SMALL
GASTEIGER

@<TRIPOS>ATOM
      1  N         14.6050    4.4340  -12.5080 N.3     2  TRP2       -0.1241
      2  CA        14.0950    5.8060  -12.5250 C.3     2  TRP2        0.1605
      3  C         13.0390    6.1120  -11.4720 C.2     2  TRP2        0.2264
      4  O         12.3490    5.2220  -10.9900 O.2     2  TRP2       -0.2867
      5  CB        13.5080    6.1320  -13.8910 C.3     2  TRP2        0.0550
      6  CG        12.3430    5.2690  -14.2360 C.ar    2  TRP2        0.0003
      7  CD1       12.3770    4.0550  -14.8540 C.ar    2  TRP2        0.0946
      8  CD2       10.9650    5.5370  -13.9500 C.ar    2  TRP2        0.0152
      9  NE1       11.1050    3.5480  -14.9760 N.ar    2  TRP2       -0.2442
     10  CE2       10.2180    4.4370  -14.4280 C.ar    2  TRP2        0.0810
     11  CE3       10.2890    6.6000  -13.3350 C.ar    2  TRP2        0.0012
     12  CZ2        8.8240    4.3680  -14.3110 C.ar    2  TRP2        0.0191
     13  CZ3        8.9000    6.5320  -13.2170 C.ar    2  TRP2        0.0001
     14  CH2        8.1840    5.4250  -13.7040 C.ar    2  TRP2        0.0015
     15  N         -6.3050   -0.2540  -17.0420 N.3    89  GLN89      -0.1245
     16  CA        -5.9960    0.2480  -15.7100 C.3    89  GLN89       0.1566
     17  C         -6.0480    1.7640  -15.6210 C.2    89  GLN89       0.2260
     18  O         -6.0960    2.4540  -16.6320 O.2    89  GLN89      -0.2867
     19  CB        -4.6000   -0.2220  -15.2750 C.3    89  GLN89       0.0367
     20  CG        -3.4450    0.3620  -16.0950 C.3    89  GLN89       0.0905
     21  CD        -2.7340    1.5220  -15.4000 C.2    89  GLN89       0.2608
     22  OE1       -3.3200    2.5660  -15.1330 O.2    89  GLN89      -0.2717
     23  NE2       -1.4560    1.3310  -15.1060 N.am   89  GLN89      -0.0878
     24  N         -4.6280    5.1920  -12.8770 N.3    91  HIS91      -0.1241
     25  CA        -3.7670    5.5850  -11.7620 C.3    91  HIS91       0.1621
     26  C         -3.8660    7.0930  -11.5950 C.2    91  HIS91       0.2264
     27  O         -4.6190    7.7520  -12.3130 O.2    91  HIS91      -0.2867
     28  CB        -2.3180    5.2040  -12.0490 C.3    91  HIS91       0.0745
     29  CG        -1.8320    5.6600  -13.3890 C.ar   91  HIS91       0.0817
     30  ND1       -2.0990    4.9680  -14.5510 N.ar   91  HIS91      -0.2268
     31  CD2       -1.0820    6.7280  -13.7520 C.ar   91  HIS91       0.1154
     32  CE1       -1.5270    5.5840  -15.5700 C.ar   91  HIS91       0.1986
     33  NE2       -0.9020    6.6550  -15.1140 N.ar   91  HIS91      -0.2212
     34  N         -1.6520   10.9830  -10.3410 N.3    93  HIS93      -0.1241
     35  CA        -0.4200   11.7370  -10.1540 C.3    93  HIS93       0.1621
     36  C         -0.8470   12.8520   -9.1910 C.2    93  HIS93       0.2264
     37  O         -1.9470   13.3840   -9.3170 O.2    93  HIS93      -0.2867
     38  CB         0.0630   12.3020  -11.4920 C.3    93  HIS93       0.0745
     39  CG         0.5280   11.2530  -12.4530 C.ar   93  HIS93       0.0817
     40  ND1        1.8340   10.8080  -12.4950 N.ar   93  HIS93      -0.2268
     41  CD2       -0.1450   10.5320  -13.3840 C.ar   93  HIS93       0.1154
     42  CE1        1.9450    9.8610  -13.4090 C.ar   93  HIS93       0.1986
     43  NE2        0.7600    9.6730  -13.9620 N.ar   93  HIS93      -0.2212
     44  N         -5.4820    9.1680  -14.7410 N.3   116  HIS116     -0.1241
     45  CA        -5.2150    8.5830  -16.0510 C.3   116  HIS116      0.1621
     46  C         -5.8660    7.2120  -16.2270 C.2   116  HIS116      0.2264
     47  O         -5.4870    6.2380  -15.5660 O.2   116  HIS116     -0.2867
     48  CB        -3.7060    8.4520  -16.2900 C.3   116  HIS116      0.0745
     49  CG        -3.0040    9.7630  -16.4700 C.ar  116  HIS116      0.0817
     50  ND1       -1.6320    9.8750  -16.4670 N.ar  116  HIS116     -0.2268
     51  CD2       -3.4810   11.0130  -16.6790 C.ar  116  HIS116      0.1154
     52  CE1       -1.2920   11.1340  -16.6670 C.ar  116  HIS116      0.1986
     53  NE2       -2.3950   11.8470  -16.7990 N.ar  116  HIS116     -0.2212
     54  N         -6.1430    4.3820  -18.6550 N.3   118  VAL118     -0.1245
     55  CA        -5.3860    3.8430  -19.7810 C.3   118  VAL118      0.1561
     56  C         -6.0710    2.7400  -20.5780 C.2   118  VAL118      0.2260
     57  O         -6.5120    1.7450  -20.0090 O.2   118  VAL118     -0.2867
     58  CB        -4.0230    3.3170  -19.2720 C.3   118  VAL118      0.0252
     59  CG1       -3.2360    2.6460  -20.4100 C.3   118  VAL118      0.0019
     60  CG2       -3.2330    4.4790  -18.6800 C.3   118  VAL118      0.0019
     61  N         -1.8430   -5.7250  -25.5160 N.3   127  PHE127     -0.1227
     62  CA        -1.2560   -4.5530  -24.8970 C.3   127  PHE127      0.1736
     63  C          0.2280   -4.3680  -25.2320 C.2   127  PHE127      0.2596
     64  O          0.6700   -3.2540  -25.4980 O.2   127  PHE127     -0.2718
     65  CB        -1.4420   -4.6290  -23.3850 C.3   127  PHE127      0.0547
     66  CG        -0.9400   -3.4290  -22.6640 C.ar  127  PHE127     -0.0202
     67  CD1       -1.5270   -2.1870  -22.8670 C.ar  127  PHE127     -0.0042
     68  CD2        0.1440   -3.5280  -21.8010 C.ar  127  PHE127     -0.0042
     69  CE1       -1.0450   -1.0610  -22.2280 C.ar  127  PHE127     -0.0003
     70  CE2        0.6380   -2.4040  -21.1520 C.ar  127  PHE127     -0.0003
     71  CZ         0.0420   -1.1660  -21.3660 C.ar  127  PHE127     -0.0000
     72  N          0.9850   -5.4610  -25.2090 N.am  128  GLY128     -0.1957
     73  CA         2.4090   -5.4050  -25.5080 C.3   128  GLY128      0.1869
     74  C          2.7310   -4.8150  -26.8710 C.2   128  GLY128      0.2309
     75  O          3.6740   -4.0340  -27.0090 O.2   128  GLY128     -0.2863
     76  N          1.5480   -0.5870  -27.0810 N.3   131  VAL131     -0.1245
     77  CA         2.4470    0.4730  -26.6010 C.3   131  VAL131      0.1561
     78  C          3.5700    0.8350  -27.5710 C.2   131  VAL131      0.2260
     79  O          4.1500    1.9140  -27.4740 O.2   131  VAL131     -0.2867
     80  CB         3.1070    0.1080  -25.2500 C.3   131  VAL131      0.0252
     81  CG1        2.0460   -0.0610  -24.1790 C.3   131  VAL131      0.0019
     82  CG2        3.9380   -1.1560  -25.4030 C.3   131  VAL131      0.0019
     83  N         -2.2860    3.4580  -27.9060 N.3   137  LEU137     -0.1245
     84  CA        -2.9940    3.7570  -26.6690 C.3   137  LEU137      0.1561
     85  C         -3.8210    5.0350  -26.6780 C.2   137  LEU137      0.2260
     86  O         -3.5450    5.9740  -27.4250 O.2   137  LEU137     -0.2867
     87  CB        -1.9960    3.8540  -25.5120 C.3   137  LEU137      0.0270
     88  CG        -1.0120    2.7160  -25.2370 C.3   137  LEU137      0.0019
     89  CD1       -0.1400    3.1180  -24.0570 C.3   137  LEU137      0.0001
     90  CD2       -1.7500    1.4190  -24.9330 C.3   137  LEU137      0.0001
     91  N         -5.3350    7.5440  -23.6270 N.3   139  VAL139     -0.1245
     92  CA        -5.4160    7.8240  -22.2000 C.3   139  VAL139      0.1561
     93  C         -6.3980    8.9490  -21.9130 C.2   139  VAL139      0.2260
     94  O         -6.2740   10.0450  -22.4520 O.2   139  VAL139     -0.2867
     95  CB        -4.0520    8.2110  -21.6090 C.3   139  VAL139      0.0252
     96  CG1       -4.2190    8.6010  -20.1360 C.3   139  VAL139      0.0019
     97  CG2       -3.0750    7.0450  -21.7580 C.3   139  VAL139      0.0019
     98  N          3.6980    8.4930  -23.1610 N.3   194  LEU194     -0.1231
     99  CA         3.5840    8.0790  -21.7800 C.3   194  LEU194      0.1693
    100  C          4.2680    9.1970  -21.0150 C.2   194  LEU194      0.2593
    101  O          5.2280    9.7750  -21.5290 O.2   194  LEU194     -0.2718
    102  CB         4.2770    6.7400  -21.4920 C.3   194  LEU194      0.0284
    103  CG         3.8970    5.5140  -22.3670 C.3   194  LEU194      0.0019
    104  CD1        4.7250    4.3010  -21.9610 C.3   194  LEU194      0.0001
    105  CD2        2.4140    5.1970  -22.2580 C.3   194  LEU194      0.0001
    106  N          3.8070    9.5340  -19.8160 N.am  195  THR195     -0.1939
    107  CA         4.4860   10.5940  -19.0720 C.3   195  THR195      0.2028
    108  C          5.5690   10.0110  -18.1660 C.2   195  THR195      0.2643
    109  O          6.1090   10.7020  -17.3010 O.2   195  THR195     -0.2714
    110  CB         3.4910   11.4220  -18.2270 C.3   195  THR195      0.1808
    111  OG1        3.0510   10.6490  -17.1090 O.3   195  THR195     -0.2208
    112  CG2        2.2800   11.8170  -19.0830 C.3   195  THR195      0.0379
    113  N          5.8760    8.7300  -18.3690 N.am  196  THR196     -0.1937
    114  CA         6.9130    8.0450  -17.5890 C.3   196  THR196      0.2013
    115  C          7.7020    7.0850  -18.4880 C.2   196  THR196      0.2484
    116  O          7.1860    6.6120  -19.5000 O.2   196  THR196     -0.2729
    117  CB         6.3240    7.1890  -16.4540 C.3   196  THR196      0.1807
    118  OG1        5.8930    5.9410  -16.9940 O.3   196  THR196     -0.2208
    119  CG2        5.1450    7.8700  -15.8140 C.3   196  THR196      0.0379
    120  N          8.9600    6.7790  -18.1200 N.am  197  PRO197     -0.2715
    121  CA         9.7890    5.8600  -18.9170 C.3   197  PRO197      0.1521
    122  C          8.9450    4.6160  -19.2050 C.2   197  PRO197      0.2440
    123  O          8.1810    4.1950  -18.3480 O.2   197  PRO197     -0.2731
    124  CB        10.9540    5.5520  -17.9770 C.3   197  PRO197      0.0310
    125  CG        11.0810    6.8080  -17.1720 C.3   197  PRO197      0.0237
    126  CD         9.6350    7.1420  -16.8600 C.3   197  PRO197      0.0939
    127  N          9.0890    3.9880  -20.3890 N.am  198  PRO198     -0.2727
    128  CA         9.9570    4.2690  -21.5360 C.3   198  PRO198      0.1402
    129  C          9.6090    5.4990  -22.3710 C.2   198  PRO198      0.2269
    130  O         10.2310    5.7400  -23.4020 O.2   198  PRO198     -0.2865
    131  CB         9.8740    2.9760  -22.3430 C.3   198  PRO198      0.0296
    132  CG         8.4590    2.5740  -22.1490 C.3   198  PRO198      0.0237
    133  CD         8.2440    2.8070  -20.6640 C.3   198  PRO198      0.0939
    134  N          7.4130    6.1500  -24.5180 N.3   200  LEU200     -0.1245
    135  CA         7.0580    5.9080  -25.9150 C.3   200  LEU200      0.1561
    136  C          5.9720    6.8820  -26.3900 C.2   200  LEU200      0.2260
    137  O          5.0540    7.2020  -25.6390 O.2   200  LEU200     -0.2867
    138  CB         6.5810    4.4640  -26.0820 C.3   200  LEU200      0.0270
    139  CG         7.6400    3.4200  -25.7030 C.3   200  LEU200      0.0019
    140  CD1        7.0280    2.0240  -25.6610 C.3   200  LEU200      0.0001
    141  CD2        8.7960    3.4940  -26.6990 C.3   200  LEU200      0.0001
    142  N         -3.9600   11.5360  -26.6050 N.3   205  TRP205     -0.1241
    143  CA        -4.4420   12.1170  -25.3610 C.3   205  TRP205      0.1605
    144  C         -5.8130   12.7640  -25.4460 C.2   205  TRP205      0.2264
    145  O         -6.0840   13.5590  -26.3410 O.2   205  TRP205     -0.2867
    146  CB        -3.4400   13.1780  -24.8240 C.3   205  TRP205      0.0550
    147  CG        -2.2720   12.5250  -24.1510 C.ar  205  TRP205      0.0003
    148  CD1       -1.0830   12.1640  -24.7220 C.ar  205  TRP205      0.0946
    149  CD2       -2.2060   12.1090  -22.7850 C.ar  205  TRP205      0.0152
    150  NE1       -0.2830   11.5450  -23.7910 N.ar  205  TRP205     -0.2442
    151  CE2       -0.9490   11.4960  -22.5940 C.ar  205  TRP205      0.0810
    152  CE3       -3.0930   12.1900  -21.7020 C.ar  205  TRP205      0.0012
    153  CZ2       -0.5540   10.9670  -21.3600 C.ar  205  TRP205      0.0191
    154  CZ3       -2.7000   11.6630  -20.4730 C.ar  205  TRP205      0.0001
    155  CH2       -1.4400   11.0600  -20.3150 C.ar  205  TRP205      0.0015
@<TRIPOS>BOND
     1    83    84    1
     2    78    79    2
     3    78    77    1
     4    86    85    2
     5    76    77    1
     6    75    74    2
     7    74    73    1
     8   141   139    1
     9    85    84    1
    10    84    87    1
    11   142   143    1
    12    77    80    1
    13   136   135    1
    14   136   137    2
    15   145   144    2
    16   138   135    1
    17   138   139    1
    18   135   134    1
    19   139   140    1
    20    61    62    1
    21    87    88    1
    22    73    72    1
    23    64    63    2
    24   144   143    1
    25    82    80    1
    26   143   146    1
    27    80    81    1
    28    88    90    1
    29    88    89    1
    30    63    72   am
    31    63    62    1
    32    62    65    1
    33   146   147    1
    34   148   147   ar
    35   148   150   ar
    36   147   149   ar
    37   150   151   ar
    38    91    92    1
    39   130   129    2
    40    65    66    1
    41    98    99    1
    42    67    66   ar
    43    67    69   ar
    44   149   151   ar
    45   149   152   ar
    46    66    68   ar
    47   151   153   ar
    48    94    93    2
    49   129   128    1
    50   103   105    1
    51   103   104    1
    52   103   102    1
    53   131   132    1
    54   131   128    1
    55    69    71   ar
    56    92    93    1
    57    92    95    1
    58   132   133    1
    59    68    70   ar
    60    99   102    1
    61    99   100    1
    62    97    95    1
    63   152   154   ar
    64    95    96    1
    65   128   127    1
    66   101   100    2
    67    71    70   ar
    68   153   155   ar
    69   100   106   am
    70   133   127    1
    71    56    57    2
    72    56    55    1
    73   154   155   ar
    74    59    58    1
    75   127   122   am
    76   106   107    1
    77    55    58    1
    78    55    54    1
    79   116   115    2
    80    58    60    1
    81   122   121    1
    82   122   123    2
    83   112   110    1
    84   107   110    1
    85   107   108    1
    86   121   120    1
    87   121   124    1
    88   115   120   am
    89   115   114    1
    90   113   108   am
    91   113   114    1
    92   110   111    1
    93   108   109    2
    94   120   126    1
    95   124   125    1
    96   114   117    1
    97   125   126    1
    98    15    16    1
    99   118   117    1
   100    53    51   ar
   101    53    52   ar
   102    51    49   ar
   103    52    50   ar
   104    18    17    2
   105    49    50   ar
   106    49    48    1
   107   117   119    1
   108    48    45    1
   109    46    45    1
   110    46    47    2
   111    20    21    1
   112    20    19    1
   113    45    44    1
   114    16    17    1
   115    16    19    1
   116    32    33   ar
   117    32    30   ar
   118    21    22    2
   119    21    23   am
   120    33    31   ar
   121     9     7   ar
   122     9    10   ar
   123     7     6   ar
   124    30    29   ar
   125    10    12   ar
   126    10     8   ar
   127    12    14   ar
   128     6     8   ar
   129     6     5    1
   130    43    42   ar
   131    43    41   ar
   132     8    11   ar
   133     5     2    1
   134    31    29   ar
   135    14    13   ar
   136    42    40   ar
   137    29    28    1
   138    41    39   ar
   139    11    13   ar
   140    24    25    1
   141     2     1    1
   142     2     3    1
   143    40    39   ar
   144    39    38    1
   145    27    26    2
   146    28    25    1
   147    25    26    1
   148    38    35    1
   149     3     4    2
   150    34    35    1
   151    35    36    1
   152    37    36    2
