@<TRIPOS>MOLECULE
tmp/2x7xA00.pdb
 129 124 0 0 0
SMALL
GASTEIGER

@<TRIPOS>ATOM
      1  N         19.3400   42.8590   55.8150 N.3    10  SER10      -0.1217
      2  CA        19.3660   43.0460   54.3750 C.3    10  SER10       0.1889
      3  C         19.2310   41.7330   53.6380 C.2    10  SER10       0.2288
      4  O         19.0670   40.6830   54.2640 O.2    10  SER10      -0.2866
      5  CB        20.6460   43.7850   53.9390 C.3    10  SER10       0.2089
      6  OG        21.7890   43.3020   54.6070 O.3    10  SER10      -0.2183
      7  N         20.9480   39.5620   50.2130 N.3    12  ASP12      -0.1239
      8  CA        22.0490   39.4000   49.2460 C.3    12  ASP12       0.1674
      9  C         22.5500   37.9510   49.3100 C.2    12  ASP12       0.2266
     10  O         22.0170   37.1490   50.0760 O.2    12  ASP12      -0.2867
     11  CB        23.2000   40.3620   49.5750 C.3    12  ASP12       0.1410
     12  CG        23.5450   40.3810   51.0740 C.2    12  ASP12       0.3668
     13  OD1       23.5090   41.4870   51.6580 O.co2  12  ASP12      -0.2456
     14  OD2       23.8240   39.3060   51.6710 O.co2  12  ASP12      -0.2456
     15  N         25.1250   36.6290   50.6630 N.3    14  TRP14      -0.1227
     16  CA        25.6200   36.2660   51.9900 C.3    14  TRP14       0.1737
     17  C         24.4590   35.8780   52.9170 C.2    14  TRP14       0.2595
     18  O         24.4560   34.7890   53.4850 O.2    14  TRP14      -0.2718
     19  CB        26.4570   37.4020   52.5820 C.3    14  TRP14       0.0564
     20  CG        27.2090   36.9970   53.8110 C.ar   14  TRP14       0.0003
     21  CD1       28.4780   36.5120   53.8720 C.ar   14  TRP14       0.0946
     22  CD2       26.7240   37.0280   55.1580 C.ar   14  TRP14       0.0152
     23  NE1       28.8190   36.2430   55.1780 N.ar   14  TRP14      -0.2442
     24  CE2       27.7570   36.5500   55.9850 C.ar   14  TRP14       0.0810
     25  CE3       25.5100   37.4180   55.7460 C.ar   14  TRP14       0.0012
     26  CZ2       27.6230   36.4510   57.3690 C.ar   14  TRP14       0.0191
     27  CZ3       25.3770   37.3150   57.1210 C.ar   14  TRP14       0.0001
     28  CH2       26.4280   36.8350   57.9170 C.ar   14  TRP14       0.0015
     29  N         23.4710   36.7610   53.0520 N.am   15  ARG15      -0.1980
     30  CA        22.2270   36.4200   53.7610 C.3    15  ARG15       0.1597
     31  C         21.5510   35.1680   53.1710 C.2    15  ARG15       0.2287
     32  O         21.1710   34.2510   53.9110 O.2    15  ARG15      -0.2864
     33  CB        21.2450   37.5980   53.7950 C.3    15  ARG15       0.0334
     34  CG        21.8170   38.9220   54.2880 C.3    15  ARG15       0.0492
     35  CD        22.1200   38.9460   55.7900 C.3    15  ARG15       0.2205
     36  NE        23.0520   40.0210   56.1400 N.pl3  15  ARG15      -0.0865
     37  CZ        23.5570   40.2250   57.3620 C.cat  15  ARG15       0.5346
     38  NH1       24.4090   41.2220   57.5720 N.pl3  15  ARG15       0.1354
     39  NH2       23.2140   39.4420   58.3860 N.pl3  15  ARG15       0.1354
     40  N         25.8850   38.1070   64.0480 N.3    89  ASP89      -0.1225
     41  CA        26.7230   38.9120   63.1410 C.3    89  ASP89       0.1805
     42  C         26.8270   40.3900   63.5670 C.2    89  ASP89       0.2597
     43  O         27.8960   40.8340   63.9710 O.2    89  ASP89      -0.2718
     44  CB        26.2800   38.6930   61.6650 C.3    89  ASP89       0.1424
     45  CG        26.4400   39.9210   60.7910 C.2    89  ASP89       0.3668
     46  OD1       27.5550   40.4730   60.6970 O.co2  89  ASP89      -0.2456
     47  OD2       25.4470   40.3340   60.1590 O.co2  89  ASP89      -0.2456
     48  N         25.7380   41.1440   63.4920 N.am   90  ARG90      -0.1979
     49  CA        25.7420   42.5140   63.9890 C.3    90  ARG90       0.1597
     50  C         25.2310   42.5620   65.4200 C.2    90  ARG90       0.2287
     51  O         24.4790   41.6870   65.8330 O.2    90  ARG90      -0.2864
     52  CB        24.9090   43.4070   63.0970 C.3    90  ARG90       0.0334
     53  CG        25.2970   43.2730   61.6710 C.3    90  ARG90       0.0492
     54  CD        24.8470   44.4400   60.8430 C.3    90  ARG90       0.2205
     55  NE        25.2000   44.1920   59.4490 N.pl3  90  ARG90      -0.0865
     56  CZ        24.7790   44.9160   58.4240 C.cat  90  ARG90       0.5346
     57  NH1       23.9710   45.9630   58.5980 N.pl3  90  ARG90       0.1354
     58  NH2       25.1650   44.5740   57.2160 N.pl3  90  ARG90       0.1354
     59  N         29.7600   45.7430   62.4950 N.3   137  PRO137     -0.2116
     60  CA        30.9140   45.2500   61.7520 C.3   137  PRO137      0.1372
     61  C         31.7130   46.3760   61.0880 C.2   137  PRO137      0.2244
     62  O         32.9290   46.3570   61.1690 O.2   137  PRO137     -0.2868
     63  CB        30.3010   44.2780   60.7450 C.3   137  PRO137      0.0268
     64  CG        29.0320   43.8470   61.3860 C.3   137  PRO137      0.0207
     65  CD        28.5190   45.0730   62.0660 C.3   137  PRO137      0.0892
     66  N         35.5440   46.5630   61.9250 N.3   141  ARG141     -0.1245
     67  CA        36.4300   46.4430   60.7680 C.3   141  ARG141      0.1563
     68  C         37.3590   47.6500   60.6120 C.2   141  ARG141      0.2260
     69  O         38.4900   47.5120   60.1480 O.2   141  ARG141     -0.2867
     70  CB        35.6520   46.1530   59.4840 C.3   141  ARG141      0.0307
     71  CG        35.2630   44.6890   59.3790 C.3   141  ARG141      0.0489
     72  CD        34.1260   44.4420   58.4060 C.3   141  ARG141      0.2205
     73  NE        33.4980   43.1540   58.6680 N.pl3 141  ARG141     -0.0865
     74  CZ        32.6510   42.5240   57.8490 C.cat 141  ARG141      0.5346
     75  NH1       32.3280   43.0510   56.6660 N.pl3 141  ARG141      0.1354
     76  NH2       32.1080   41.3620   58.2320 N.pl3 141  ARG141      0.1354
     77  N         27.9750   48.9630   52.4570 N.3   165  TRP165     -0.1241
     78  CA        28.0510   47.5310   52.1290 C.3   165  TRP165      0.1605
     79  C         27.8780   47.2030   50.6480 C.2   165  TRP165      0.2264
     80  O         27.8260   46.0410   50.2780 O.2   165  TRP165     -0.2867
     81  CB        27.0500   46.7080   52.9530 C.3   165  TRP165      0.0550
     82  CG        27.2710   46.8090   54.4340 C.ar  165  TRP165      0.0003
     83  CD1       26.4200   47.3540   55.3490 C.ar  165  TRP165      0.0946
     84  CD2       28.4170   46.3470   55.1750 C.ar  165  TRP165      0.0152
     85  NE1       26.9540   47.2610   56.6100 N.ar  165  TRP165     -0.2442
     86  CE2       28.1830   46.6550   56.5350 C.ar  165  TRP165      0.0810
     87  CE3       29.6170   45.7120   54.8200 C.ar  165  TRP165      0.0012
     88  CZ2       29.1110   46.3500   57.5540 C.ar  165  TRP165      0.0191
     89  CZ3       30.5400   45.4030   55.8340 C.ar  165  TRP165      0.0001
     90  CH2       30.2730   45.7230   57.1870 C.ar  165  TRP165      0.0015
     91  N         33.4890   44.6750   52.3800 N.3   191  ASN191     -0.1240
     92  CA        33.0160   43.3890   51.8780 C.3   191  ASN191      0.1653
     93  C         33.3490   43.1350   50.4200 C.2   191  ASN191      0.2266
     94  O         33.8820   44.0100   49.7340 O.2   191  ASN191     -0.2867
     95  CB        31.5290   43.1450   52.1840 C.3   191  ASN191      0.1155
     96  CG        30.5800   43.9490   51.2900 C.2   191  ASN191      0.2627
     97  OD1       30.9850   44.7500   50.4240 O.2   191  ASN191     -0.2716
     98  ND2       29.2900   43.7240   51.5020 N.am  191  ASN191     -0.0877
     99  N         31.4250   42.9090   48.0150 N.3   193  ARG193     -0.1245
    100  CA        30.5570   43.6220   47.0780 C.3   193  ARG193      0.1563
    101  C         31.1100   45.0450   46.8670 C.2   193  ARG193      0.2260
    102  O         31.1420   45.5570   45.7450 O.2   193  ARG193     -0.2867
    103  CB        29.1160   43.6560   47.5700 C.3   193  ARG193      0.0307
    104  CG        28.4000   42.2910   47.5330 C.3   193  ARG193      0.0489
    105  CD        26.8660   42.4040   47.7910 C.3   193  ARG193      0.2205
    106  NE        26.5090   43.1810   49.0000 N.pl3 193  ARG193     -0.0865
    107  CZ        26.6240   42.7360   50.2530 C.cat 193  ARG193      0.5346
    108  NH1       27.1070   41.5200   50.5140 N.pl3 193  ARG193      0.1354
    109  NH2       26.2730   43.5290   51.2540 N.pl3 193  ARG193      0.1354
    110  N         34.4490   38.4400   53.3670 N.3   217  ASP217     -0.1239
    111  CA        33.2520   37.5910   53.2340 C.3   217  ASP217      0.1674
    112  C         33.6710   36.2260   52.7210 C.2   217  ASP217      0.2266
    113  O         33.3710   35.2030   53.3510 O.2   217  ASP217     -0.2867
    114  CB        32.1630   38.1880   52.3340 C.3   217  ASP217      0.1410
    115  CG        31.2470   39.1700   53.0640 C.2   217  ASP217      0.3668
    116  OD1       31.1940   39.1880   54.3090 O.co2 217  ASP217     -0.2456
    117  OD2       30.5680   39.9490   52.3670 O.co2 217  ASP217     -0.2456
    118  N         34.0920   35.5070   56.2390 N.3   240  TYR240     -0.1241
    119  CA        33.1050   35.9470   57.2120 C.3   240  TYR240      0.1605
    120  C         31.9900   34.9140   57.2250 C.2   240  TYR240      0.2264
    121  O         31.1050   34.9230   56.3510 O.2   240  TYR240     -0.2867
    122  CB        32.5810   37.3510   56.9100 C.3   240  TYR240      0.0534
    123  CG        31.8030   37.9450   58.0670 C.ar  240  TYR240     -0.0201
    124  CD1       32.3980   38.0860   59.3330 C.ar  240  TYR240     -0.0009
    125  CD2       30.4840   38.3540   57.9130 C.ar  240  TYR240     -0.0009
    126  CE1       31.6950   38.6290   60.4160 C.ar  240  TYR240      0.0417
    127  CE2       29.7730   38.8990   58.9840 C.ar  240  TYR240      0.0417
    128  CZ        30.3870   39.0340   60.2330 C.ar  240  TYR240      0.1957
    129  OH        29.7080   39.5770   61.3070 O.3   240  TYR240     -0.2866
@<TRIPOS>BOND
     1   102   101    2
     2   101   100    1
     3   100   103    1
     4   100    99    1
     5   104   103    1
     6   104   105    1
     7   105   106    1
     8   106   107    2
     9     8     9    1
    10     8    11    1
    11     8     7    1
    12     9    10    2
    13    11    12    1
    14    94    93    2
    15   107   108    1
    16   107   109    1
    17    80    79    2
    18    93    92    1
    19    97    96    2
    20    79    78    1
    21    15    16    1
    22    12    13   ar
    23    12    14   ar
    24    96    98   am
    25    96    95    1
    26    92    95    1
    27    92    91    1
    28    16    19    1
    29    16    17    1
    30    78    77    1
    31    78    81    1
    32   114   115    1
    33   114   111    1
    34   117   115   ar
    35    19    20    1
    36   112   111    1
    37   112   113    2
    38    17    29   am
    39    17    18    2
    40    81    82    1
    41    29    30    1
    42   115   116   ar
    43    31    30    1
    44    31    32    2
    45   111   110    1
    46     3     4    2
    47     3     2    1
    48    30    33    1
    49    33    34    1
    50    20    21   ar
    51    20    22   ar
    52    21    23   ar
    53     5     2    1
    54     5     6    1
    55    34    35    1
    56     2     1    1
    57    82    84   ar
    58    82    83   ar
    59    87    84   ar
    60    87    89   ar
    61    22    25   ar
    62    22    24   ar
    63    84    86   ar
    64    23    24   ar
    65    83    85   ar
    66    25    27   ar
    67    35    36    1
    68    89    90   ar
    69    24    26   ar
    70    36    37    2
    71   118   119    1
    72   121   120    2
    73    86    85   ar
    74    86    88   ar
    75    75    74    1
    76   122   119    1
    77   122   123    1
    78    27    28   ar
    79    90    88   ar
    80   119   120    1
    81    58    56    1
    82    37    38    1
    83    37    39    1
    84    26    28   ar
    85    74    76    1
    86    74    73    2
    87   125   123   ar
    88   125   127   ar
    89   123   124   ar
    90    72    73    1
    91    72    71    1
    92    56    57    1
    93    56    55    2
    94   127   128   ar
    95   124   126   ar
    96    71    70    1
    97    55    54    1
    98    70    67    1
    99    69    68    2
   100    47    45   ar
   101   128   126   ar
   102   128   129    1
   103    68    67    1
   104    46    45   ar
   105    63    64    1
   106    63    60    1
   107    67    66    1
   108    45    44    1
   109    54    53    1
   110    61    62    2
   111    61    60    1
   112    64    65    1
   113    44    41    1
   114    53    52    1
   115    60    59    1
   116    65    59    1
   117    52    49    1
   118    41    42    1
   119    41    40    1
   120    48    42   am
   121    48    49    1
   122    42    43    2
   123    49    50    1
   124    50    51    2
