@<TRIPOS>MOLECULE
tmp/2x8cA02.pdb
 106 100 0 0 0
SMALL
GASTEIGER

@<TRIPOS>ATOM
      1  N          8.9600   31.9290   17.7900 N.3   167  SER167     -0.1202
      2  CA         7.9280   32.9650   17.8150 C.3   167  SER167      0.2020
      3  C          7.8020   33.5580   19.1980 C.2   167  SER167      0.2618
      4  O          7.5130   34.7360   19.3440 O.2   167  SER167     -0.2717
      5  CB         6.5690   32.3750   17.4170 C.3   167  SER167      0.2103
      6  OG         5.5730   33.3730   17.3110 O.3   167  SER167     -0.2182
      7  N          8.0200   32.7340   20.2120 N.am  168  HIS168     -0.1975
      8  CA         7.8400   33.1640   21.5800 C.3   168  HIS168      0.1656
      9  C          9.1670   33.5260   22.1910 C.2   168  HIS168      0.2291
     10  O          9.2270   34.2390   23.1940 O.2   168  HIS168     -0.2864
     11  CB         7.1370   32.0670   22.3660 C.3   168  HIS168      0.0771
     12  CG         5.9260   31.5500   21.6710 C.ar  168  HIS168      0.0820
     13  ND1        4.8060   32.3290   21.4730 N.ar  168  HIS168     -0.2267
     14  CD2        5.6820   30.3660   21.0630 C.ar  168  HIS168      0.1154
     15  CE1        3.9100   31.6340   20.7940 C.ar  168  HIS168      0.1986
     16  NE2        4.4170   30.4410   20.5330 N.ar  168  HIS168     -0.2212
     17  N          9.2140   37.0720   21.4510 N.3   171  GLU171     -0.1245
     18  CA         8.4330   37.7800   22.4700 C.3   171  GLU171      0.1567
     19  C          9.2010   37.9740   23.7700 C.2   171  GLU171      0.2260
     20  O          9.1260   39.0410   24.3800 O.2   171  GLU171     -0.2867
     21  CB         7.1420   37.0440   22.7930 C.3   171  GLU171      0.0388
     22  CG         6.0290   37.2680   21.8110 C.3   171  GLU171      0.1160
     23  CD         4.6880   36.8640   22.3900 C.2   171  GLU171      0.3649
     24  OE1        4.3690   37.3790   23.4940 O.co2 171  GLU171     -0.2457
     25  OE2        3.9730   36.0380   21.7460 O.co2 171  GLU171     -0.2457
     26  N          8.1810   43.0560   18.5840 N.3   182  ARG182     -0.1245
     27  CA         7.5260   41.7960   18.2300 C.3   182  ARG182      0.1563
     28  C          6.2520   42.0170   17.4060 C.2   182  ARG182      0.2260
     29  O          5.8530   41.1520   16.6270 O.2   182  ARG182     -0.2867
     30  CB         7.2330   40.9830   19.5030 C.3   182  ARG182      0.0307
     31  CG         6.5240   39.6640   19.2780 C.3   182  ARG182      0.0489
     32  CD         7.3400   38.7340   18.3910 C.3   182  ARG182      0.2205
     33  NE         6.5990   37.5240   18.0250 N.pl3 182  ARG182     -0.0865
     34  CZ         5.9210   37.3670   16.8910 C.cat 182  ARG182      0.5346
     35  NH1        5.8730   38.3450   15.9960 N.pl3 182  ARG182      0.1354
     36  NH2        5.2880   36.2270   16.6560 N.pl3 182  ARG182      0.1354
     37  N         -0.5380   23.0380   16.4050 N.3   298  GLY298     -0.1225
     38  CA         0.2780   23.8090   17.3260 C.3   298  GLY298      0.1811
     39  C          1.3210   24.7230   16.7020 C.2   298  GLY298      0.2280
     40  O          1.4980   25.8570   17.1710 O.2   298  GLY298     -0.2866
     41  N         -0.4790   27.5910   14.4860 N.3   301  ALA301     -0.1231
     42  CA        -0.9250   28.6340   15.4020 C.3   301  ALA301      0.1694
     43  C          0.2380   29.5700   15.7360 C.2   301  ALA301      0.2592
     44  O          0.1070   30.7880   15.5870 O.2   301  ALA301     -0.2718
     45  CB        -1.5320   28.0410   16.6540 C.3   301  ALA301      0.0304
     46  N          1.3790   29.0050   16.1390 N.am  302  SER302     -0.1952
     47  CA         2.5340   29.8110   16.5350 C.3   302  SER302      0.1924
     48  C          3.0890   30.7080   15.4220 C.2   302  SER302      0.2314
     49  O          3.7460   31.7220   15.6960 O.2   302  SER302     -0.2863
     50  CB         3.6320   28.9230   17.0940 C.3   302  SER302      0.2116
     51  OG         3.4280   28.6860   18.4750 O.3   302  SER302     -0.2180
     52  N          1.3300   32.5120   13.5050 N.3   304  GLY304     -0.1225
     53  CA         0.2820   33.5170   13.2620 C.3   304  GLY304      0.1811
     54  C         -0.9220   33.0730   12.4380 C.2   304  GLY304      0.2280
     55  O         -1.6200   33.9120   11.8660 O.2   304  GLY304     -0.2866
     56  N         -3.3820   24.0280   27.2360 N.3   330  TYR330     -0.1241
     57  CA        -2.3500   24.9920   26.8980 C.3   330  TYR330      0.1605
     58  C         -2.6500   25.5750   25.5310 C.2   330  TYR330      0.2264
     59  O         -2.7020   26.7930   25.3700 O.2   330  TYR330     -0.2867
     60  CB        -0.9480   24.3830   26.9290 C.3   330  TYR330      0.0534
     61  CG         0.1340   25.4200   26.7060 C.ar  330  TYR330     -0.0201
     62  CD1        0.6750   26.1290   27.7680 C.ar  330  TYR330     -0.0009
     63  CD2        0.5930   25.7120   25.4230 C.ar  330  TYR330     -0.0009
     64  CE1        1.6570   27.0870   27.5690 C.ar  330  TYR330      0.0417
     65  CE2        1.5740   26.6730   25.2130 C.ar  330  TYR330      0.0417
     66  CZ         2.1020   27.3570   26.2940 C.ar  330  TYR330      0.1957
     67  OH         3.0680   28.3150   26.0840 O.3   330  TYR330     -0.2866
     68  N         -4.0100   29.4570   24.2050 N.3   334  HIS334     -0.1226
     69  CA        -3.1110   30.1800   23.3200 C.3   334  HIS334      0.1752
     70  C         -3.5710   30.2510   21.8570 C.2   334  HIS334      0.2597
     71  O         -2.7370   30.3280   20.9530 O.2   334  HIS334     -0.2718
     72  CB        -1.6980   29.6060   23.4140 C.3   334  HIS334      0.0759
     73  CG        -0.9610   30.0160   24.6500 C.ar  334  HIS334      0.0818
     74  ND1       -0.9850   29.2760   25.8130 N.ar  334  HIS334     -0.2268
     75  CD2       -0.1690   31.0860   24.9030 C.ar  334  HIS334      0.1154
     76  CE1       -0.2420   29.8720   26.7280 C.ar  334  HIS334      0.1986
     77  NE2        0.2650   30.9720   26.2030 N.ar  334  HIS334     -0.2212
     78  N         -4.8810   30.2200   21.6170 N.am  335  GLY335     -0.1942
     79  CA        -5.4080   30.5510   20.2890 C.3   335  GLY335      0.2014
     80  C         -5.8710   29.4150   19.3890 C.2   335  GLY335      0.2638
     81  O         -6.5000   29.6390   18.3400 O.2   335  GLY335     -0.2714
     82  N         -5.5520   28.1920   19.7820 N.am  336  VAL336     -0.1977
     83  CA        -6.0410   27.0290   19.0650 C.3   336  VAL336      0.1596
     84  C         -7.5020   26.7930   19.4830 C.2   336  VAL336      0.2287
     85  O         -7.7790   26.3840   20.6130 O.2   336  VAL336     -0.2864
     86  CB        -5.1460   25.8030   19.3470 C.3   336  VAL336      0.0276
     87  CG1       -5.5990   24.5970   18.5470 C.3   336  VAL336      0.0022
     88  CG2       -3.6950   26.1390   19.0390 C.3   336  VAL336      0.0022
     89  N          3.0100   22.9830   21.1900 N.3   471  PRO471     -0.2116
     90  CA         3.5090   24.2750   21.6430 C.3   471  PRO471      0.1372
     91  C          4.1450   24.2060   23.0240 C.2   471  PRO471      0.2244
     92  O          5.2030   24.7950   23.2430 O.2   471  PRO471     -0.2868
     93  CB         2.2560   25.1250   21.6730 C.3   471  PRO471      0.0268
     94  CG         1.4710   24.6090   20.5500 C.3   471  PRO471      0.0207
     95  CD         1.7260   23.1330   20.4900 C.3   471  PRO471      0.0892
     96  N          5.4400   34.5180   31.9330 N.3   510  ARG510     -0.1245
     97  CA         4.5700   33.4550   31.4530 C.3   510  ARG510      0.1563
     98  C          3.8840   32.7700   32.6320 C.2   510  ARG510      0.2260
     99  O          4.1180   33.1450   33.7850 O.2   510  ARG510     -0.2867
    100  CB         5.3580   32.4590   30.6130 C.3   510  ARG510      0.0307
    101  CG         5.9920   33.0820   29.4010 C.3   510  ARG510      0.0489
    102  CD         6.4040   32.0320   28.3940 C.3   510  ARG510      0.2205
    103  NE         6.8740   32.6920   27.1840 N.pl3 510  ARG510     -0.0865
    104  CZ         6.0840   33.1140   26.2030 C.cat 510  ARG510      0.5346
    105  NH1        4.7750   32.9310   26.2700 N.pl3 510  ARG510      0.1354
    106  NH2        6.6100   33.7170   25.1490 N.pl3 510  ARG510      0.1354
@<TRIPOS>BOND
     1    55    54    2
     2    54    53    1
     3    53    52    1
     4    41    42    1
     5    42    43    1
     6    42    45    1
     7    48    49    2
     8    48    47    1
     9    44    43    2
    10    43    46   am
    11    35    34    1
    12    46    47    1
    13    37    38    1
    14    47    50    1
    15    29    28    2
    16    36    34    1
    17    39    40    2
    18    39    38    1
    19    34    33    2
    20    50    51    1
    21     6     5    1
    22    28    27    1
    23     5     2    1
    24     1     2    1
    25     2     3    1
    26    33    32    1
    27    27    26    1
    28    27    30    1
    29    81    80    2
    30    32    31    1
    31    87    86    1
    32    88    86    1
    33    83    86    1
    34    83    84    1
    35    83    82    1
    36     3     4    2
    37     3     7   am
    38    31    30    1
    39    80    82   am
    40    80    79    1
    41    84    85    2
    42     7     8    1
    43    79    78    1
    44    95    94    1
    45    95    89    1
    46    16    15   ar
    47    16    14   ar
    48    94    93    1
    49    15    13   ar
    50    71    70    2
    51    14    12   ar
    52    89    90    1
    53    17    18    1
    54    13    12   ar
    55     8     9    1
    56     8    11    1
    57    78    70   am
    58    90    93    1
    59    90    91    1
    60    12    11    1
    61    25    23   ar
    62    22    23    1
    63    22    21    1
    64    70    69    1
    65     9    10    2
    66    23    24   ar
    67    18    21    1
    68    18    19    1
    69    91    92    2
    70    69    72    1
    71    69    68    1
    72    72    73    1
    73    19    20    2
    74    73    75   ar
    75    73    74   ar
    76    75    77   ar
    77   106   104    1
    78    65    63   ar
    79    65    66   ar
    80    59    58    2
    81    63    61   ar
    82    58    57    1
    83    74    76   ar
    84    67    66    1
    85   104   105    1
    86   104   103    2
    87    77    76   ar
    88    66    64   ar
    89    61    60    1
    90    61    62   ar
    91    57    60    1
    92    57    56    1
    93   103   102    1
    94    64    62   ar
    95   102   101    1
    96   101   100    1
    97   100    97    1
    98    97    96    1
    99    97    98    1
   100    98    99    2
