@<TRIPOS>MOLECULE
tmp/2x8cB01.pdb
 93 86 0 0 0
SMALL
GASTEIGER

@<TRIPOS>ATOM
      1  N         43.4130   33.7050   32.1900 N.3   311  VAL311     -0.1245
      2  CA        43.5450   32.4030   32.8370 C.3   311  VAL311      0.1561
      3  C         44.9360   32.2390   33.4300 C.2   311  VAL311      0.2260
      4  O         45.9260   32.3060   32.7020 O.2   311  VAL311     -0.2867
      5  CB        43.3010   31.2600   31.8250 C.3   311  VAL311      0.0252
      6  CG1       43.4480   29.8840   32.4890 C.3   311  VAL311      0.0019
      7  CG2       41.9310   31.4100   31.1870 C.3   311  VAL311      0.0019
      8  N         46.1970   29.2810   34.6390 N.3   313  SER313     -0.1202
      9  CA        46.7760   28.0730   34.0100 C.3   313  SER313      0.2020
     10  C         45.8480   27.2770   33.0770 C.2   313  SER313      0.2619
     11  O         46.0550   27.2560   31.8570 O.2   313  SER313     -0.2717
     12  CB        47.4250   27.1480   35.0560 C.3   313  SER313      0.2103
     13  OG        46.5360   26.8440   36.1190 O.3   313  SER313     -0.2182
     14  N         44.8500   26.6070   33.6560 N.am  314  ILE314     -0.1965
     15  CA        43.8910   25.8070   32.8800 C.3   314  ILE314      0.1727
     16  C         42.4340   26.2150   33.1190 C.2   314  ILE314      0.2616
     17  O         42.0610   26.6440   34.2150 O.2   314  ILE314     -0.2715
     18  CB        44.0600   24.2600   33.0880 C.3   314  ILE314      0.0290
     19  CG1       43.8080   23.8550   34.5460 C.3   314  ILE314      0.0022
     20  CG2       45.4250   23.7900   32.5860 C.3   314  ILE314      0.0023
     21  CD1       43.6310   22.3520   34.7700 C.3   314  ILE314      0.0001
     22  N         41.6240   26.0760   32.0730 N.am  315  LEU315     -0.1977
     23  CA        40.1850   26.2760   32.1680 C.3   315  LEU315      0.1596
     24  C         39.5660   25.1540   33.0100 C.2   315  LEU315      0.2287
     25  O         39.8990   23.9700   32.8250 O.2   315  LEU315     -0.2864
     26  CB        39.5490   26.3080   30.7700 C.3   315  LEU315      0.0297
     27  CG        39.9120   27.4650   29.8310 C.3   315  LEU315      0.0022
     28  CD1       39.6900   27.0840   28.3790 C.3   315  LEU315      0.0001
     29  CD2       39.1480   28.7320   30.1720 C.3   315  LEU315      0.0001
     30  N         39.1690   17.5530   31.4770 N.3   321  GLN321     -0.1245
     31  CA        39.9320   18.5720   30.7720 C.3   321  GLN321      0.1566
     32  C         39.6740   18.6560   29.2760 C.2   321  GLN321      0.2260
     33  O         39.7830   19.7380   28.6990 O.2   321  GLN321     -0.2867
     34  CB        41.4230   18.4230   31.0740 C.3   321  GLN321      0.0367
     35  CG        41.8580   19.1550   32.3360 C.3   321  GLN321      0.0905
     36  CD        41.7420   20.6640   32.2040 C.2   321  GLN321      0.2608
     37  OE1       40.8400   21.2820   32.7720 O.2   321  GLN321     -0.2717
     38  NE2       42.6530   21.2630   31.4410 N.am  321  GLN321     -0.0878
     39  N         36.7260   20.8040   29.0190 N.3   324  ALA324     -0.1231
     40  CA        37.0540   22.2080   29.3070 C.3   324  ALA324      0.1694
     41  C         37.6580   22.9390   28.0940 C.2   324  ALA324      0.2591
     42  O         37.3600   24.1230   27.8580 O.2   324  ALA324     -0.2718
     43  CB        37.9620   22.3200   30.5280 C.3   324  ALA324      0.0304
     44  N         38.4890   22.2270   27.3270 N.am  325  GLU325     -0.1979
     45  CA        39.0970   22.7970   26.1280 C.3   325  GLU325      0.1602
     46  C         38.0320   23.1290   25.0790 C.2   325  GLU325      0.2287
     47  O         38.0390   24.2220   24.4960 O.2   325  GLU325     -0.2864
     48  CB        40.1910   21.8880   25.5370 C.3   325  GLU325      0.0415
     49  CG        40.3840   22.0940   24.0220 C.3   325  GLU325      0.1163
     50  CD        41.7800   21.8080   23.5170 C.2   325  GLU325      0.3649
     51  OE1       42.1950   20.6260   23.5390 O.co2 325  GLU325     -0.2457
     52  OE2       42.4480   22.7710   23.0630 O.co2 325  GLU325     -0.2457
     53  N         36.0540   26.0900   25.9920 N.3   328  GLY328     -0.1210
     54  CA        36.8210   27.2980   25.7210 C.3   328  GLY328      0.1956
     55  C         36.9080   27.6450   24.2450 C.2   328  GLY328      0.2611
     56  O         36.6520   28.7900   23.8560 O.2   328  GLY328     -0.2717
     57  N         37.2700   26.6520   23.4300 N.am  329  ASP329     -0.1973
     58  CA        37.4500   26.8320   21.9840 C.3   329  ASP329      0.1709
     59  C         36.1860   27.3350   21.2990 C.2   329  ASP329      0.2293
     60  O         36.2700   28.0780   20.3210 O.2   329  ASP329     -0.2864
     61  CB        37.9390   25.5410   21.3130 C.3   329  ASP329      0.1436
     62  CG        39.3650   25.1620   21.7210 C.2   329  ASP329      0.3671
     63  OD1       40.0140   25.9240   22.4900 O.co2 329  ASP329     -0.2456
     64  OD2       39.8370   24.0940   21.2660 O.co2 329  ASP329     -0.2456
     65  N         36.0640   31.1600   22.2870 N.3   332  GLU332     -0.1245
     66  CA        37.0790   31.8510   21.4900 C.3   332  GLU332      0.1567
     67  C         36.5290   32.0800   20.0830 C.2   332  GLU332      0.2260
     68  O         36.4900   33.2210   19.6080 O.2   332  GLU332     -0.2867
     69  CB        38.3700   31.0260   21.4450 C.3   332  GLU332      0.0388
     70  CG        39.6710   31.8270   21.3490 C.3   332  GLU332      0.1160
     71  CD        40.9240   30.9330   21.3370 C.2   332  GLU332      0.3649
     72  OE1       40.8840   29.7950   21.8620 O.co2 332  GLU332     -0.2457
     73  OE2       41.9620   31.3720   20.7960 O.co2 332  GLU332     -0.2457
     74  N         41.1090   35.4590   25.1610 N.3   338  PHE338     -0.1241
     75  CA        41.7520   34.8200   26.3150 C.3   338  PHE338      0.1605
     76  C         43.2310   35.2020   26.4470 C.2   338  PHE338      0.2264
     77  O         44.0420   34.8710   25.5830 O.2   338  PHE338     -0.2867
     78  CB        41.6560   33.2880   26.2120 C.3   338  PHE338      0.0534
     79  CG        40.2780   32.7270   26.4390 C.ar  338  PHE338     -0.0203
     80  CD1       39.9350   32.1770   27.6650 C.ar  338  PHE338     -0.0042
     81  CD2       39.3400   32.7040   25.4130 C.ar  338  PHE338     -0.0042
     82  CE1       38.6740   31.6380   27.8740 C.ar  338  PHE338     -0.0003
     83  CE2       38.0700   32.1670   25.6130 C.ar  338  PHE338     -0.0003
     84  CZ        37.7390   31.6350   26.8430 C.ar  338  PHE338     -0.0000
     85  N         46.0260   33.8710   27.9470 N.3   340  LYS340     -0.1245
     86  CA        46.3860   32.5670   28.5080 C.3   340  LYS340      0.1561
     87  C         47.6860   32.6230   29.3120 C.2   340  LYS340      0.2260
     88  O         48.4950   33.5450   29.1330 O.2   340  LYS340     -0.2867
     89  CB        46.4920   31.5080   27.3980 C.3   340  LYS340      0.0271
     90  CG        45.3530   31.5320   26.3840 C.3   340  LYS340      0.0035
     91  CD        45.6090   30.5530   25.2500 C.3   340  LYS340      0.0206
     92  CE        44.7590   30.8850   24.0280 C.3   340  LYS340      0.1093
     93  NZ        44.6000   29.6970   23.1480 N.3   340  LYS340     -0.1314
@<TRIPOS>BOND
     1    68    67    2
     2    67    66    1
     3    60    59    2
     4    73    71   ar
     5    64    62   ar
     6    59    58    1
     7    61    62    1
     8    61    58    1
     9    71    70    1
    10    71    72   ar
    11    70    69    1
    12    69    66    1
    13    66    65    1
    14    62    63   ar
    15    58    57    1
    16    52    50   ar
    17    93    92    1
    18    57    55   am
    19    50    51   ar
    20    50    49    1
    21    56    55    2
    22    49    48    1
    23    92    91    1
    24    55    54    1
    25    47    46    2
    26    46    45    1
    27    74    75    1
    28    91    90    1
    29    81    83   ar
    30    81    79   ar
    31    48    45    1
    32    77    76    2
    33    83    84   ar
    34    54    53    1
    35    45    44    1
    36    78    75    1
    37    78    79    1
    38    75    76    1
    39    90    89    1
    40    79    80   ar
    41    84    82   ar
    42    44    41   am
    43    89    86    1
    44    80    82   ar
    45    42    41    2
    46    85    86    1
    47    41    40    1
    48    28    27    1
    49    86    87    1
    50    33    32    2
    51    39    40    1
    52    88    87    2
    53    32    31    1
    54    40    43    1
    55    27    29    1
    56    27    26    1
    57    26    23    1
    58    31    34    1
    59    31    30    1
    60    34    35    1
    61     7     5    1
    62    38    36   am
    63     5     6    1
    64     5     2    1
    65    11    10    2
    66    22    23    1
    67    22    16   am
    68    23    24    1
    69     1     2    1
    70    36    35    1
    71    36    37    2
    72    20    18    1
    73     4     3    2
    74    25    24    2
    75     2     3    1
    76    15    18    1
    77    15    16    1
    78    15    14    1
    79    10    14   am
    80    10     9    1
    81    18    19    1
    82    16    17    2
    83     9     8    1
    84     9    12    1
    85    19    21    1
    86    12    13    1
