@<TRIPOS>MOLECULE
tmp/2x8dA00.pdb
 114 106 0 0 0
SMALL
GASTEIGER

@<TRIPOS>ATOM
      1  N          2.2130   -9.1250   22.8070 N.3    14  LEU14      -0.1231
      2  CA         1.7230   -8.2000   21.7820 C.3    14  LEU14       0.1693
      3  C          1.7060   -8.8470   20.3900 C.2    14  LEU14       0.2592
      4  O          0.8200   -8.5750   19.5850 O.2    14  LEU14      -0.2718
      5  CB         2.5790   -6.9170   21.7480 C.3    14  LEU14       0.0284
      6  CG         2.4990   -6.0020   22.9730 C.3    14  LEU14       0.0019
      7  CD1        3.5070   -4.8550   22.8640 C.3    14  LEU14       0.0001
      8  CD2        1.0860   -5.4760   23.1600 C.3    14  LEU14       0.0001
      9  N          2.7080   -9.6740   20.1120 N.am   15  GLY15      -0.1957
     10  CA         2.8130  -10.3870   18.8440 C.3    15  GLY15       0.1869
     11  C          3.8290  -11.5040   18.9640 C.2    15  GLY15       0.2309
     12  O          4.6730  -11.4800   19.8610 O.2    15  GLY15      -0.2863
     13  N         10.9550  -14.8650   14.6180 N.3    19  TYR19      -0.1241
     14  CA        11.9680  -14.2540   15.5150 C.3    19  TYR19       0.1605
     15  C         11.8130  -14.7010   16.9750 C.2    19  TYR19       0.2264
     16  O         12.8050  -14.9200   17.6830 O.2    19  TYR19      -0.2867
     17  CB        11.8790  -12.7120   15.4460 C.3    19  TYR19       0.0534
     18  CG        10.5040  -12.1740   15.8240 C.ar   19  TYR19      -0.0201
     19  CD1       10.2210  -11.7870   17.1340 C.ar   19  TYR19      -0.0009
     20  CD2        9.4720  -12.0980   14.8810 C.ar   19  TYR19      -0.0009
     21  CE1        8.9600  -11.3210   17.4900 C.ar   19  TYR19       0.0417
     22  CE2        8.2070  -11.6320   15.2310 C.ar   19  TYR19       0.0417
     23  CZ         7.9580  -11.2420   16.5380 C.ar   19  TYR19       0.1957
     24  OH         6.7100  -10.7830   16.9010 O.3    19  TYR19      -0.2866
     25  N          7.0530  -10.4380   20.9790 N.3    22  VAL22      -0.1245
     26  CA         7.1130   -9.0840   21.4940 C.3    22  VAL22       0.1561
     27  C          6.1520   -9.0250   22.6830 C.2    22  VAL22       0.2260
     28  O          4.9860   -9.4090   22.5610 O.2    22  VAL22      -0.2867
     29  CB         6.7250   -8.0540   20.4070 C.3    22  VAL22       0.0252
     30  CG1        6.7370   -6.6450   20.9780 C.3    22  VAL22       0.0019
     31  CG2        7.6790   -8.1560   19.2170 C.3    22  VAL22       0.0019
     32  N          7.6620   -1.8430   24.6080 N.3    35  ALA35      -0.1245
     33  CA         7.5960   -3.1770   24.0150 C.3    35  ALA35       0.1562
     34  C          8.9900   -3.8100   24.0550 C.2    35  ALA35       0.2260
     35  O          9.9960   -3.1500   23.7650 O.2    35  ALA35      -0.2867
     36  CB         7.0590   -3.1130   22.5910 C.3    35  ALA35       0.0290
     37  N          9.0070    3.3110   14.7100 N.3    67  VAL67      -0.1245
     38  CA         9.0350    2.7580   16.0720 C.3    67  VAL67       0.1561
     39  C         10.3880    3.0300   16.7250 C.2    67  VAL67       0.2260
     40  O         11.4280    2.5760   16.2270 O.2    67  VAL67      -0.2867
     41  CB         8.7420    1.2240   16.0930 C.3    67  VAL67       0.0252
     42  CG1        9.1040    0.6120   17.4620 C.3    67  VAL67       0.0019
     43  CG2        7.2880    0.9300   15.7100 C.3    67  VAL67       0.0019
     44  N         11.6640   -1.3520   22.6200 N.3    83  LEU83      -0.1231
     45  CA        11.0400   -0.6040   21.5220 C.3    83  LEU83       0.1693
     46  C          9.8580    0.2170   22.0240 C.2    83  LEU83       0.2592
     47  O          9.2410   -0.1060   23.0510 O.2    83  LEU83      -0.2718
     48  CB        10.5600   -1.5840   20.4300 C.3    83  LEU83       0.0284
     49  CG        11.5990   -2.5510   19.8400 C.3    83  LEU83       0.0019
     50  CD1       10.9440   -3.6840   19.0180 C.3    83  LEU83       0.0001
     51  CD2       12.6140   -1.7850   19.0080 C.3    83  LEU83       0.0001
     52  N          9.5330    1.2710   21.2830 N.am   84  GLU84      -0.1966
     53  CA         8.3710    2.1090   21.5830 C.3    84  GLU84       0.1733
     54  C          7.1020    1.2710   21.6370 C.2    84  GLU84       0.2616
     55  O          6.8420    0.4800   20.7190 O.2    84  GLU84      -0.2715
     56  CB         8.2290    3.1820   20.5090 C.3    84  GLU84       0.0429
     57  CG         7.0920    4.1640   20.6960 C.3    84  GLU84       0.1163
     58  CD         7.0500    5.2040   19.5780 C.2    84  GLU84       0.3649
     59  OE1        6.1200    6.0250   19.5850 O.co2  84  GLU84      -0.2457
     60  OE2        7.9320    5.1950   18.6900 O.co2  84  GLU84      -0.2457
     61  N          6.3240    1.4360   22.7080 N.am   85  TYR85      -0.1960
     62  CA         5.0180    0.7860   22.8080 C.3    85  TYR85       0.1771
     63  C          3.9500    1.6140   22.1050 C.2    85  TYR85       0.2619
     64  O          3.7950    2.8110   22.3630 O.2    85  TYR85      -0.2715
     65  CB         4.6130    0.5400   24.2730 C.3    85  TYR85       0.0574
     66  CG         3.1990    0.0110   24.4280 C.ar   85  TYR85      -0.0198
     67  CD1        2.7730   -1.1110   23.7200 C.ar   85  TYR85      -0.0009
     68  CD2        2.2920    0.6320   25.2880 C.ar   85  TYR85      -0.0009
     69  CE1        1.4720   -1.6050   23.8710 C.ar   85  TYR85       0.0417
     70  CE2        0.9930    0.1480   25.4450 C.ar   85  TYR85       0.0417
     71  CZ         0.5940   -0.9650   24.7280 C.ar   85  TYR85       0.1957
     72  OH        -0.6850   -1.4350   24.8730 O.3    85  TYR85      -0.2866
     73  N          3.2200    0.9460   21.2150 N.am   86  CYS86      -0.1968
     74  CA         2.2020    1.5530   20.3840 C.3    86  CYS86       0.1712
     75  C          0.8490    0.9460   20.7800 C.2    86  CYS86       0.2296
     76  O          0.4900   -0.1540   20.3400 O.2    86  CYS86      -0.2864
     77  CB         2.5370    1.3120   18.9090 C.3    86  CYS86       0.0983
     78  SG         4.0890    2.0990   18.3730 S.3    86  CYS86      -0.0798
     79  N         -2.2860   -0.4100   18.5910 N.3    89  GLY89      -0.1210
     80  CA        -2.1650   -1.6480   17.8360 C.3    89  GLY89       0.1956
     81  C         -1.7410   -1.4620   16.3840 C.2    89  GLY89       0.2611
     82  O         -1.1390   -0.4540   16.0260 O.2    89  GLY89      -0.2717
     83  N         -2.0500   -2.4730   15.5750 N.am   90  GLU90      -0.1979
     84  CA        -1.7370   -2.5190   14.1540 C.3    90  GLU90       0.1602
     85  C         -2.7870   -1.8020   13.3080 C.2    90  GLU90       0.2287
     86  O         -3.9840   -1.9040   13.5650 O.2    90  GLU90      -0.2864
     87  CB        -1.6720   -3.9760   13.6620 C.3    90  GLU90       0.0415
     88  CG        -0.5720   -4.8330   14.2710 C.3    90  GLU90       0.1163
     89  CD        -0.5960   -6.2870   13.7880 C.2    90  GLU90       0.3649
     90  OE1        0.1660   -7.0860   14.3820 O.co2  90  GLU90      -0.2457
     91  OE2       -1.3500   -6.6330   12.8310 O.co2  90  GLU90      -0.2457
     92  N          0.2110   -4.8610    8.8820 N.3   133  GLU133     -0.1245
     93  CA         0.7420   -5.5770   10.0400 C.3   133  GLU133      0.1567
     94  C          1.9890   -4.9050   10.6370 C.2   133  GLU133      0.2260
     95  O          2.2660   -5.0760   11.8140 O.2   133  GLU133     -0.2867
     96  CB         1.0950   -7.0190    9.6690 C.3   133  GLU133      0.0388
     97  CG        -0.0930   -7.8830    9.2260 C.3   133  GLU133      0.1160
     98  CD        -0.3350   -7.8700    7.7100 C.2   133  GLU133      0.3649
     99  OE1       -0.1150   -6.8280    7.0610 O.co2 133  GLU133     -0.2457
    100  OE2       -0.7890   -8.9070    7.1720 O.co2 133  GLU133     -0.2457
    101  N          2.1470    0.4530   13.0500 N.3   136  LEU136     -0.1245
    102  CA         1.5470    0.4660   14.3720 C.3   136  LEU136      0.1561
    103  C          1.0360    1.8710   14.6710 C.2   136  LEU136      0.2260
    104  O          1.4650    2.8370   14.0430 O.2   136  LEU136     -0.2867
    105  CB         2.5760    0.0330   15.4260 C.3   136  LEU136      0.0270
    106  CG         3.1940   -1.3690   15.2490 C.3   136  LEU136      0.0019
    107  CD1        4.1340   -1.6970   16.4350 C.3   136  LEU136      0.0001
    108  CD2        2.1140   -2.4430   15.0980 C.3   136  LEU136      0.0001
    109  N          7.2590   -0.3230   11.6750 N.3   146  SER146     -0.1217
    110  CA         7.6780   -1.3510   12.6070 C.3   146  SER146      0.1889
    111  C          8.3680   -2.5430   11.9040 C.2   146  SER146      0.2288
    112  O          8.0060   -2.9150   10.7660 O.2   146  SER146     -0.2866
    113  CB         6.4460   -1.8540   13.3820 C.3   146  SER146      0.2089
    114  OG         6.7280   -2.9900   14.1690 O.3   146  SER146     -0.2183
@<TRIPOS>BOND
     1    99    98   ar
     2   100    98   ar
     3    98    97    1
     4    92    93    1
     5    97    96    1
     6    96    93    1
     7    93    94    1
     8    94    95    2
     9   112   111    2
    10   109   110    1
    11   111   110    1
    12   110   113    1
    13    91    89   ar
    14   101   102    1
    15    85    86    2
    16    85    84    1
    17   113   114    1
    18    87    84    1
    19    87    88    1
    20    89    88    1
    21    89    90   ar
    22   104   103    2
    23    84    83    1
    24   102   103    1
    25   102   105    1
    26    13    14    1
    27    37    38    1
    28    20    22   ar
    29    20    18   ar
    30   108   106    1
    31    22    23   ar
    32   106   105    1
    33   106   107    1
    34    17    14    1
    35    17    18    1
    36    14    15    1
    37    83    81   am
    38    43    41    1
    39    18    19   ar
    40    82    81    2
    41    38    41    1
    42    38    39    1
    43    41    42    1
    44    40    39    2
    45    81    80    1
    46    23    24    1
    47    23    21   ar
    48    15    16    2
    49    19    21   ar
    50    80    79    1
    51    78    77    1
    52    60    58   ar
    53    10    11    1
    54    10     9    1
    55    77    74    1
    56    11    12    2
    57    51    49    1
    58    50    49    1
    59    31    29    1
    60    58    59   ar
    61    58    57    1
    62     4     3    2
    63    49    48    1
    64     9     3   am
    65    76    75    2
    66    74    75    1
    67    74    73    1
    68     3     2    1
    69    29    30    1
    70    29    26    1
    71    48    45    1
    72    56    57    1
    73    56    53    1
    74    55    54    2
    75    25    26    1
    76    73    63   am
    77    52    53    1
    78    52    46   am
    79    26    27    1
    80    45    46    1
    81    45    44    1
    82    53    54    1
    83    54    61   am
    84     5     2    1
    85     5     6    1
    86     2     1    1
    87    46    47    2
    88    63    64    2
    89    63    62    1
    90    28    27    2
    91    36    33    1
    92    61    62    1
    93    62    65    1
    94     7     6    1
    95     6     8    1
    96    67    69   ar
    97    67    66   ar
    98    35    34    2
    99    69    71   ar
   100    33    34    1
   101    33    32    1
   102    65    66    1
   103    66    68   ar
   104    71    72    1
   105    71    70   ar
   106    68    70   ar
