@<TRIPOS>MOLECULE
tmp/2x8eA00.pdb
 138 130 0 0 0
SMALL
GASTEIGER

@<TRIPOS>ATOM
      1  N          2.8490   -8.2560   29.1730 N.3     5  GLN5       -0.1245
      2  CA         2.1140   -9.1410   28.2460 C.3     5  GLN5        0.1566
      3  C          2.9160   -9.4000   26.9620 C.2     5  GLN5        0.2260
      4  O          4.0620   -8.9720   26.8640 O.2     5  GLN5       -0.2867
      5  CB         0.7090   -8.5810   27.9530 C.3     5  GLN5        0.0367
      6  CG         0.5730   -7.6770   26.7200 C.3     5  GLN5        0.0905
      7  CD        -0.6060   -6.7070   26.8140 C.2     5  GLN5        0.2608
      8  OE1       -0.9630   -6.2470   27.9000 O.2     5  GLN5       -0.2717
      9  NE2       -1.1950   -6.3730   25.6660 N.am    5  GLN5       -0.0878
     10  N          3.0790   -8.9360   22.8920 N.3     7  LEU7       -0.1231
     11  CA         2.4990   -8.0070   21.9100 C.3     7  LEU7        0.1693
     12  C          2.3840   -8.4980   20.4640 C.2     7  LEU7        0.2593
     13  O          1.4240   -8.1600   19.7770 O.2     7  LEU7       -0.2718
     14  CB         3.3010   -6.7000   21.8960 C.3     7  LEU7        0.0284
     15  CG         3.3940   -5.8980   23.1920 C.3     7  LEU7        0.0019
     16  CD1        4.1240   -4.5920   22.9360 C.3     7  LEU7        0.0001
     17  CD2        2.0220   -5.6350   23.7750 C.3     7  LEU7        0.0001
     18  N          3.3710   -9.2460   19.9850 N.am    8  GLY8       -0.1942
     19  CA         3.3770   -9.6810   18.5910 C.3     8  GLY8        0.2014
     20  C          4.5440  -10.5930   18.2550 C.2     8  GLY8        0.2638
     21  O          5.6530  -10.1270   18.0110 O.2     8  GLY8       -0.2714
     22  N          4.2860  -11.8990   18.2310 N.am    9  GLU9       -0.1977
     23  CA         5.3280  -12.9050   17.9980 C.3     9  GLU9        0.1602
     24  C          5.5840  -13.0910   16.5060 C.2     9  GLU9        0.2287
     25  O          5.4820  -12.1330   15.7330 O.2     9  GLU9       -0.2864
     26  CB         4.9250  -14.2380   18.6410 C.3     9  GLU9        0.0415
     27  CG         4.5750  -14.0930   20.1250 C.3     9  GLU9        0.1163
     28  CD         3.8990  -15.3330   20.6880 C.2     9  GLU9        0.3649
     29  OE1        3.8550  -16.3590   19.9600 O.co2   9  GLU9       -0.2457
     30  OE2        3.4520  -15.2550   21.8510 O.co2   9  GLU9       -0.2457
     31  N          7.8880   -9.3590   20.2270 N.3    15  VAL15      -0.1245
     32  CA         7.8840   -8.0960   20.9300 C.3    15  VAL15       0.1561
     33  C          6.9670   -8.3260   22.1250 C.2    15  VAL15       0.2260
     34  O          5.8310   -8.7560   21.9600 O.2    15  VAL15      -0.2867
     35  CB         7.4000   -6.9310   20.0550 C.3    15  VAL15       0.0252
     36  CG1        7.2370   -5.6670   20.8830 C.3    15  VAL15       0.0019
     37  CG2        8.3820   -6.6830   18.9400 C.3    15  VAL15       0.0019
     38  N          8.4960   -1.5370   24.6660 N.3    28  ALA28      -0.1245
     39  CA         8.5430   -2.8990   24.1060 C.3    28  ALA28       0.1562
     40  C          9.9340   -3.5190   24.0090 C.2    28  ALA28       0.2260
     41  O         10.9290   -2.8080   23.9470 O.2    28  ALA28      -0.2867
     42  CB         7.8810   -2.9100   22.7150 C.3    28  ALA28       0.0290
     43  N          9.6110    4.1600   14.7010 N.3    57  VAL57      -0.1245
     44  CA         9.6610    3.5590   16.0450 C.3    57  VAL57       0.1561
     45  C         11.0500    3.6780   16.6770 C.2    57  VAL57       0.2260
     46  O         11.9500    2.9340   16.3210 O.2    57  VAL57      -0.2867
     47  CB         9.2710    2.0510   16.0120 C.3    57  VAL57       0.0252
     48  CG1        9.4030    1.4180   17.3910 C.3    57  VAL57       0.0019
     49  CG2        7.8730    1.8650   15.4770 C.3    57  VAL57       0.0019
     50  N         12.6510   -1.0940   22.2800 N.3    73  LEU73      -0.1231
     51  CA        11.9800   -0.3130   21.2280 C.3    73  LEU73       0.1693
     52  C         10.7560    0.4670   21.7190 C.2    73  LEU73       0.2592
     53  O          9.9200   -0.0730   22.4330 O.2    73  LEU73      -0.2718
     54  CB        11.5340   -1.2690   20.1230 C.3    73  LEU73       0.0284
     55  CG        12.6540   -1.9360   19.3240 C.3    73  LEU73       0.0019
     56  CD1       12.1620   -3.2300   18.7120 C.3    73  LEU73       0.0001
     57  CD2       13.1990   -0.9820   18.2650 C.3    73  LEU73       0.0001
     58  N         10.6520    1.7290   21.3070 N.am   74  GLU74      -0.1966
     59  CA         9.5080    2.5990   21.6250 C.3    74  GLU74       0.1733
     60  C          8.1780    1.8540   21.5890 C.2    74  GLU74       0.2616
     61  O          7.8710    1.1820   20.6010 O.2    74  GLU74      -0.2715
     62  CB         9.4590    3.7850   20.6370 C.3    74  GLU74       0.0429
     63  CG         8.1690    4.6150   20.6390 C.3    74  GLU74       0.1163
     64  CD         8.1710    5.6960   19.5690 C.2    74  GLU74       0.3649
     65  OE1        8.2210    6.8870   19.9250 O.co2  74  GLU74      -0.2457
     66  OE2        8.1250    5.3680   18.3680 O.co2  74  GLU74      -0.2457
     67  N          7.3960    1.9910   22.6640 N.am   75  TYR75      -0.1960
     68  CA         6.0690    1.3770   22.7470 C.3    75  TYR75       0.1771
     69  C          4.9920    2.2380   22.0800 C.2    75  TYR75       0.2620
     70  O          4.8640    3.4180   22.3790 O.2    75  TYR75      -0.2715
     71  CB         5.6790    1.0980   24.1990 C.3    75  TYR75       0.0574
     72  CG         4.3080    0.4880   24.3320 C.ar   75  TYR75      -0.0198
     73  CD1        4.0550   -0.7880   23.8480 C.ar   75  TYR75      -0.0009
     74  CD2        3.2590    1.1940   24.9140 C.ar   75  TYR75      -0.0009
     75  CE1        2.7980   -1.3570   23.9510 C.ar   75  TYR75       0.0417
     76  CE2        2.0030    0.6350   25.0240 C.ar   75  TYR75       0.0417
     77  CZ         1.7760   -0.6390   24.5410 C.ar   75  TYR75       0.1957
     78  OH         0.5210   -1.1900   24.6440 O.3    75  TYR75      -0.2866
     79  N          4.2150    1.6140   21.1980 N.am   76  CYS76      -0.1954
     80  CA         3.2070    2.2920   20.3860 C.3    76  CYS76       0.1843
     81  C          1.7980    1.8200   20.7870 C.2    76  CYS76       0.2626
     82  O          1.2850    0.8320   20.2610 O.2    76  CYS76      -0.2714
     83  CB         3.4950    2.0040   18.9130 C.3    76  CYS76       0.0997
     84  SG         5.0350    2.7610   18.3460 S.3    76  CYS76      -0.0797
     85  N          1.1750    2.5490   21.7110 N.am   77  SER77      -0.1936
     86  CA         0.0550    2.0140   22.4910 C.3    77  SER77       0.2055
     87  C         -1.2650    2.0120   21.7250 C.2    77  SER77       0.2644
     88  O         -2.2570    1.4450   22.2040 O.2    77  SER77      -0.2714
     89  CB        -0.0830    2.7590   23.8330 C.3    77  SER77       0.2130
     90  OG        -0.5670    4.0850   23.6840 O.3    77  SER77      -0.2179
     91  N         -1.2680    2.6190   20.5350 N.am   78  GLY78      -0.1939
     92  CA        -2.4090    2.5330   19.6140 C.3    78  GLY78       0.2014
     93  C         -2.4740    1.2960   18.7300 C.2    78  GLY78       0.2639
     94  O         -3.3770    1.1810   17.9010 O.2    78  GLY78      -0.2714
     95  N         -1.5270    0.3760   18.8870 N.am   79  GLY79      -0.1939
     96  CA        -1.5220   -0.8710   18.1100 C.3    79  GLY79       0.2014
     97  C         -1.1540   -0.7020   16.6390 C.2    79  GLY79       0.2638
     98  O         -0.5220    0.2730   16.2430 O.2    79  GLY79      -0.2714
     99  N         -1.5740   -1.6590   15.8280 N.am   80  GLU80      -0.1977
    100  CA        -1.2530   -1.6680   14.4140 C.3    80  GLU80       0.1602
    101  C         -2.2880   -0.8930   13.6130 C.2    80  GLU80       0.2287
    102  O         -3.3950   -0.7020   14.0460 O.2    80  GLU80      -0.2864
    103  CB        -1.1580   -3.1140   13.9080 C.3    80  GLU80       0.0415
    104  CG        -0.0860   -3.9440   14.6170 C.3    80  GLU80       0.1163
    105  CD        -0.0070   -5.3770   14.1260 C.2    80  GLU80       0.3649
    106  OE1        0.6980   -6.1820   14.7580 O.co2  80  GLU80      -0.2457
    107  OE2       -0.6400   -5.7030   13.1060 O.co2  80  GLU80      -0.2457
    108  N          0.6280   -4.0670    9.0360 N.3   123  GLU123     -0.1231
    109  CA         1.2190   -4.7220   10.2040 C.3   123  GLU123      0.1699
    110  C          2.4960   -4.0030   10.7130 C.2   123  GLU123      0.2592
    111  O          2.7640   -3.9810   11.9080 O.2   123  GLU123     -0.2718
    112  CB         1.5760   -6.1810    9.8760 C.3   123  GLU123      0.0402
    113  CG         0.4080   -7.1030    9.4920 C.3   123  GLU123      0.1161
    114  CD         0.0980   -7.0980    7.9930 C.2   123  GLU123      0.3649
    115  OE1        0.2240   -6.0330    7.3510 O.co2 123  GLU123     -0.2457
    116  OE2       -0.3030   -8.1490    7.4510 O.co2 123  GLU123     -0.2457
    117  N          3.2890   -3.4410    9.8060 N.am  124  ASN124     -0.1974
    118  CA         4.5180   -2.7250   10.1810 C.3   124  ASN124      0.1688
    119  C          4.3340   -1.1950   10.2990 C.2   124  ASN124      0.2292
    120  O          5.3050   -0.4690   10.4760 O.2   124  ASN124     -0.2864
    121  CB         5.6750   -3.0680    9.2290 C.3   124  ASN124      0.1181
    122  CG         6.3370   -4.4210    9.5490 C.2   124  ASN124      0.2629
    123  OD1        6.1710   -4.9690   10.6440 O.2   124  ASN124     -0.2716
    124  ND2        7.1040   -4.9460    8.5940 N.am  124  ASN124     -0.0877
    125  N          2.8160    0.9010   13.0580 N.3   126  LEU126     -0.1245
    126  CA         2.2420    1.0240   14.4000 C.3   126  LEU126      0.1561
    127  C          1.7610    2.4470   14.6440 C.2   126  LEU126      0.2260
    128  O          1.9470    3.3050   13.8080 O.2   126  LEU126     -0.2867
    129  CB         3.2660    0.6420   15.4570 C.3   126  LEU126      0.0270
    130  CG         3.9010   -0.7390   15.2970 C.3   126  LEU126      0.0019
    131  CD1        4.8900   -0.9760   16.4180 C.3   126  LEU126      0.0001
    132  CD2        2.8490   -1.8500   15.2270 C.3   126  LEU126      0.0001
    133  N          7.8720    0.5040   11.8670 N.3   136  SER136     -0.1217
    134  CA         8.3450   -0.4890   12.8270 C.3   136  SER136      0.1889
    135  C          9.0690   -1.6550   12.1440 C.2   136  SER136      0.2288
    136  O          8.7220   -2.0420   11.0410 O.2   136  SER136     -0.2866
    137  CB         7.1410   -1.0330   13.5930 C.3   136  SER136      0.2089
    138  OG         7.4960   -1.9920   14.5930 O.3   136  SER136     -0.2183
@<TRIPOS>BOND
     1   115   114   ar
     2   116   114   ar
     3   114   113    1
     4   124   122   am
     5   108   109    1
     6   121   122    1
     7   121   118    1
     8   113   112    1
     9   122   123    2
    10   117   118    1
    11   117   110   am
    12   112   109    1
    13   118   119    1
    14   109   110    1
    15   119   120    2
    16   110   111    2
    17   136   135    2
    18   133   134    1
    19   135   134    1
    20   134   137    1
    21   125   126    1
    22   107   105   ar
    23   137   138    1
    24   101   102    2
    25   101   100    1
    26   128   127    2
    27   103   100    1
    28   103   104    1
    29   105   104    1
    30   105   106   ar
    31   126   127    1
    32   126   129    1
    33   100    99    1
    34    43    44    1
    35   132   130    1
    36   130   129    1
    37   130   131    1
    38    49    47    1
    39    25    24    2
    40    99    97   am
    41    47    44    1
    42    47    48    1
    43    44    45    1
    44    98    97    2
    45    46    45    2
    46    24    23    1
    47    97    96    1
    48    94    93    2
    49    23    22    1
    50    23    26    1
    51    21    20    2
    52    96    95    1
    53    22    20   am
    54    20    19    1
    55    57    55    1
    56    84    83    1
    57    66    64   ar
    58    19    18    1
    59    26    27    1
    60    56    55    1
    61    93    95   am
    62    93    92    1
    63    83    80    1
    64    37    35    1
    65    55    54    1
    66    64    65   ar
    67    64    63    1
    68    92    91    1
    69    13    12    2
    70    29    28   ar
    71    18    12   am
    72    35    36    1
    73    35    32    1
    74    54    51    1
    75    27    28    1
    76    31    32    1
    77    82    81    2
    78    80    81    1
    79    80    79    1
    80    12    11    1
    81    91    87   am
    82    61    60    2
    83    62    63    1
    84    62    59    1
    85    28    30   ar
    86    81    85   am
    87    32    33    1
    88    79    69   am
    89    51    52    1
    90    51    50    1
    91    58    59    1
    92    58    52   am
    93    60    59    1
    94    60    67   am
    95    85    86    1
    96    52    53    2
    97    87    88    2
    98    87    86    1
    99    14    11    1
   100    14    15    1
   101    11    10    1
   102    34    33    2
   103    69    70    2
   104    69    68    1
   105    86    89    1
   106    67    68    1
   107    42    39    1
   108    68    71    1
   109    16    15    1
   110    15    17    1
   111    90    89    1
   112    73    75   ar
   113    73    72   ar
   114    41    40    2
   115    75    77   ar
   116    40    39    1
   117    39    38    1
   118    71    72    1
   119    72    74   ar
   120    77    78    1
   121    77    76   ar
   122    74    76   ar
   123     9     7   am
   124     6     7    1
   125     6     5    1
   126     7     8    2
   127     4     3    2
   128     3     2    1
   129     5     2    1
   130     2     1    1
