@<TRIPOS>MOLECULE
tmp/2x8gA04.pdb
 101 94 0 0 0
SMALL
GASTEIGER

@<TRIPOS>ATOM
      1  N         58.0830  -12.5130   -2.7300 N.3   311  VAL311     -0.1245
      2  CA        58.3100  -11.0730   -2.6320 C.3   311  VAL311      0.1561
      3  C         58.4690  -10.4670   -4.0210 C.2   311  VAL311      0.2260
      4  O         59.4340  -10.7690   -4.7310 O.2   311  VAL311     -0.2867
      5  CB        59.5650  -10.7450   -1.7640 C.3   311  VAL311      0.0252
      6  CG1       59.7780   -9.2310   -1.6550 C.3   311  VAL311      0.0019
      7  CG2       59.4360  -11.3670   -0.3720 C.3   311  VAL311      0.0019
      8  N         58.8320   -7.0620   -4.8280 N.3   313  SER313     -0.1202
      9  CA        59.8970   -6.0610   -4.8410 C.3   313  SER313      0.2020
     10  C         60.6590   -6.0270   -3.5160 C.2   313  SER313      0.2619
     11  O         61.7170   -6.6460   -3.3910 O.2   313  SER313     -0.2717
     12  CB        59.3390   -4.6720   -5.1820 C.3   313  SER313      0.2103
     13  OG        58.2910   -4.3010   -4.2990 O.3   313  SER313     -0.2182
     14  N         60.1110   -5.3130   -2.5350 N.am  314  ILE314     -0.1965
     15  CA        60.7720   -5.1160   -1.2400 C.3   314  ILE314      0.1727
     16  C         59.8910   -5.5720   -0.0730 C.2   314  ILE314      0.2616
     17  O         58.6930   -5.7940   -0.2430 O.2   314  ILE314     -0.2715
     18  CB        61.1760   -3.6250   -1.0270 C.3   314  ILE314      0.0290
     19  CG1       59.9210   -2.7340   -0.9520 C.3   314  ILE314      0.0022
     20  CG2       62.1790   -3.1870   -2.1180 C.3   314  ILE314      0.0023
     21  CD1       60.1680   -1.2750   -0.5390 C.3   314  ILE314      0.0001
     22  N         60.4960   -5.6890    1.1080 N.am  315  LEU315     -0.1977
     23  CA        59.7680   -5.9710    2.3480 C.3   315  LEU315      0.1596
     24  C         59.2930   -4.6840    3.0020 C.2   315  LEU315      0.2287
     25  O         59.9910   -3.6730    2.9610 O.2   315  LEU315     -0.2864
     26  CB        60.6780   -6.6980    3.3410 C.3   315  LEU315      0.0297
     27  CG        61.3660   -7.9790    2.8810 C.3   315  LEU315      0.0022
     28  CD1       62.2010   -8.5610    4.0140 C.3   315  LEU315      0.0001
     29  CD2       60.3520   -8.9990    2.3730 C.3   315  LEU315      0.0001
     30  N         63.8000    1.0220    5.5870 N.3   321  GLN321     -0.1245
     31  CA        64.2440   -0.1030    4.7550 C.3   321  GLN321      0.1566
     32  C         65.4800   -0.8370    5.2770 C.2   321  GLN321      0.2260
     33  O         65.6430   -2.0370    5.0240 O.2   321  GLN321     -0.2867
     34  CB        64.4070    0.3170    3.2820 C.3   321  GLN321      0.0367
     35  CG        63.0640    0.5170    2.5540 C.3   321  GLN321      0.0905
     36  CD        62.2340   -0.7580    2.4870 C.2   321  GLN321      0.2608
     37  OE1       61.1570   -0.8560    3.0920 O.2   321  GLN321     -0.2717
     38  NE2       62.7410   -1.7470    1.7750 N.am  321  GLN321     -0.0878
     39  N         63.7360   -3.0300    7.7670 N.3   324  ALA324     -0.1231
     40  CA        63.0360   -4.0630    6.9990 C.3   324  ALA324      0.1694
     41  C         63.9770   -5.1750    6.5160 C.2   324  ALA324      0.2591
     42  O         63.6590   -6.3630    6.6620 O.2   324  ALA324     -0.2718
     43  CB        62.2610   -3.4430    5.8290 C.3   324  ALA324      0.0304
     44  N         65.1370   -4.8010    5.9680 N.am  325  GLU325     -0.1979
     45  CA        66.1430   -5.7910    5.5720 C.3   325  GLU325      0.1602
     46  C         66.5970   -6.6580    6.7540 C.2   325  GLU325      0.2287
     47  O         66.7210   -7.8820    6.6240 O.2   325  GLU325     -0.2864
     48  CB        67.3560   -5.1310    4.8920 C.3   325  GLU325      0.0415
     49  CG        68.3590   -6.1490    4.3390 C.3   325  GLU325      0.1163
     50  CD        69.5330   -5.5210    3.5990 C.2   325  GLU325      0.3649
     51  OE1       69.9800   -4.4240    3.9880 O.co2 325  GLU325     -0.2457
     52  OE2       70.0260   -6.1460    2.6350 O.co2 325  GLU325     -0.2457
     53  N         63.8950   -9.1620    7.6710 N.3   328  GLY328     -0.1210
     54  CA        63.9370  -10.2400    6.6800 C.3   328  GLY328      0.1956
     55  C         65.1170  -11.1850    6.8420 C.2   328  GLY328      0.2611
     56  O         64.9540  -12.4120    6.7640 O.2   328  GLY328     -0.2717
     57  N         66.3040  -10.6180    7.0630 N.am  329  ASP329     -0.1973
     58  CA        67.5270  -11.4050    7.2550 C.3   329  ASP329      0.1709
     59  C         67.4140  -12.3780    8.4240 C.2   329  ASP329      0.2293
     60  O         67.8250  -13.5360    8.3140 O.2   329  ASP329     -0.2864
     61  CB        68.7420  -10.4850    7.4460 C.3   329  ASP329      0.1436
     62  CG        69.2110   -9.8520    6.1440 C.2   329  ASP329      0.3671
     63  OD1       68.6300  -10.1450    5.0820 O.co2 329  ASP329     -0.2456
     64  OD2       70.1750   -9.0620    6.1820 O.co2 329  ASP329     -0.2456
     65  N         65.0860  -15.2090    7.3320 N.3   332  GLU332     -0.1245
     66  CA        65.7840  -16.0740    6.3720 C.3   332  GLU332      0.1567
     67  C         66.8170  -16.9830    7.0450 C.2   332  GLU332      0.2260
     68  O         66.9290  -18.1740    6.7130 O.2   332  GLU332     -0.2867
     69  CB        66.4440  -15.2330    5.2710 C.3   332  GLU332      0.0388
     70  CG        66.9250  -16.0460    4.0810 C.3   332  GLU332      0.1160
     71  CD        67.2760  -15.1740    2.8890 C.2   332  GLU332      0.3649
     72  OE1       68.1890  -14.3350    3.0090 O.co2 332  GLU332     -0.2457
     73  OE2       66.6400  -15.3380    1.8290 O.co2 332  GLU332     -0.2457
     74  N         62.5750  -17.2310    1.0280 N.3   338  PHE338     -0.1241
     75  CA        62.0660  -16.0820    0.2990 C.3   338  PHE338      0.1605
     76  C         62.2240  -16.2950   -1.2060 C.2   338  PHE338      0.2264
     77  O         63.3360  -16.4740   -1.6960 O.2   338  PHE338     -0.2867
     78  CB        62.7960  -14.8050    0.7400 C.3   338  PHE338      0.0534
     79  CG        62.4030  -14.3160    2.1160 C.ar  338  PHE338     -0.0203
     80  CD1       61.3590  -13.4040    2.2690 C.ar  338  PHE338     -0.0042
     81  CD2       63.0840  -14.7560    3.2520 C.ar  338  PHE338     -0.0042
     82  CE1       60.9820  -12.9450    3.5390 C.ar  338  PHE338     -0.0003
     83  CE2       62.7160  -14.3020    4.5270 C.ar  338  PHE338     -0.0003
     84  CZ        61.6640  -13.3930    4.6670 C.ar  338  PHE338     -0.0000
     85  N         62.3660  -14.4430   -4.1630 N.3   340  LYS340     -0.1231
     86  CA        62.6410  -13.0310   -4.3950 C.3   340  LYS340      0.1693
     87  C         62.3910  -12.6590   -5.8440 C.2   340  LYS340      0.2591
     88  O         62.6430  -13.4600   -6.7460 O.2   340  LYS340     -0.2718
     89  CB        64.0890  -12.7070   -3.9930 C.3   340  LYS340      0.0285
     90  CG        64.4090  -13.0850   -2.5400 C.3   340  LYS340      0.0035
     91  CD        65.8710  -12.8450   -2.1620 C.3   340  LYS340      0.0206
     92  CE        66.1260  -13.3140   -0.7300 C.3   340  LYS340      0.1093
     93  NZ        67.5020  -13.0250   -0.2310 N.3   340  LYS340     -0.1314
     94  N         61.8890  -11.4440   -6.0550 N.am  341  LEU341     -0.1980
     95  CA        61.5360  -10.9540   -7.3900 C.3   341  LEU341      0.1596
     96  C         60.7490  -12.0320   -8.1440 C.2   341  LEU341      0.2287
     97  O         61.1510  -12.4950   -9.2180 O.2   341  LEU341     -0.2864
     98  CB        62.7880  -10.5000   -8.1680 C.3   341  LEU341      0.0297
     99  CG        63.7130   -9.4710   -7.4940 C.3   341  LEU341      0.0022
    100  CD1       65.0710   -9.3880   -8.2050 C.3   341  LEU341      0.0001
    101  CD2       63.0640   -8.0900   -7.4030 C.3   341  LEU341      0.0001
@<TRIPOS>BOND
     1    97    96    2
     2   100    99    1
     3    98    99    1
     4    98    95    1
     5    96    95    1
     6    99   101    1
     7    95    94    1
     8    88    87    2
     9    94    87   am
    10    87    86    1
    11    12     9    1
    12    12    13    1
    13     9     8    1
    14     9    10    1
    15     4     3    2
    16    86    85    1
    17    86    89    1
    18     3     2    1
    19    89    90    1
    20    10    11    2
    21    10    14   am
    22     1     2    1
    23     2     5    1
    24    90    91    1
    25    14    15    1
    26    91    92    1
    27    20    18    1
    28     5     6    1
    29     5     7    1
    30    77    76    2
    31    15    18    1
    32    15    16    1
    33    76    75    1
    34    18    19    1
    35    19    21    1
    36    92    93    1
    37    17    16    2
    38    16    22   am
    39    75    78    1
    40    75    74    1
    41    78    79    1
    42    22    23    1
    43    38    36   am
    44    73    71   ar
    45    79    80   ar
    46    79    81   ar
    47    80    82   ar
    48    23    24    1
    49    23    26    1
    50    29    27    1
    51    36    35    1
    52    36    37    2
    53    35    34    1
    54    52    50   ar
    55    27    26    1
    56    27    28    1
    57    71    72   ar
    58    71    70    1
    59    25    24    2
    60    81    83   ar
    61    34    31    1
    62    82    84   ar
    63    50    51   ar
    64    50    49    1
    65    70    69    1
    66    49    48    1
    67    83    84   ar
    68    31    32    1
    69    31    30    1
    70    48    45    1
    71    33    32    2
    72    63    62   ar
    73    69    66    1
    74    45    44    1
    75    45    46    1
    76    43    40    1
    77    44    41   am
    78    62    64   ar
    79    62    61    1
    80    66    67    1
    81    66    65    1
    82    41    42    2
    83    41    40    1
    84    47    46    2
    85    54    55    1
    86    54    53    1
    87    68    67    2
    88    56    55    2
    89    55    57   am
    90    40    39    1
    91    57    58    1
    92    58    61    1
    93    58    59    1
    94    60    59    2
