@<TRIPOS>MOLECULE
tmp/2x8gA03.pdb
 101 95 0 0 0
SMALL
GASTEIGER

@<TRIPOS>ATOM
      1  N         33.1290   27.9930   20.4320 N.3     5  TRP5       -0.1241
      2  CA        33.1530   26.7460   21.1960 C.3     5  TRP5        0.1605
      3  C         31.7960   26.4390   21.8340 C.2     5  TRP5        0.2264
      4  O         31.3050   25.3120   21.7420 O.2     5  TRP5       -0.2867
      5  CB        34.2570   26.7690   22.2650 C.3     5  TRP5        0.0550
      6  CG        34.1640   25.6120   23.2240 C.ar    5  TRP5        0.0003
      7  CD1       34.6470   24.3480   23.0330 C.ar    5  TRP5        0.0946
      8  CD2       33.5200   25.6040   24.5060 C.ar    5  TRP5        0.0152
      9  NE1       34.3540   23.5600   24.1170 N.ar    5  TRP5       -0.2442
     10  CE2       33.6620   24.3020   25.0360 C.ar    5  TRP5        0.0810
     11  CE3       32.8380   26.5720   25.2580 C.ar    5  TRP5        0.0012
     12  CZ2       33.1520   23.9400   26.2870 C.ar    5  TRP5        0.0191
     13  CZ3       32.3260   26.2110   26.5020 C.ar    5  TRP5        0.0001
     14  CH2       32.4880   24.9060   27.0030 C.ar    5  TRP5        0.0015
     15  N         29.0050   25.4520   19.2340 N.3     8  LYS8       -0.1231
     16  CA        29.2170   24.0790   18.7690 C.3     8  LYS8        0.1693
     17  C         28.8020   23.0530   19.8250 C.2     8  LYS8        0.2592
     18  O         28.1300   22.0680   19.5130 O.2     8  LYS8       -0.2718
     19  CB        30.6870   23.8710   18.3720 C.3     8  LYS8        0.0285
     20  CG        31.0900   24.5730   17.0790 C.3     8  LYS8        0.0035
     21  CD        32.6110   24.6590   16.9210 C.3     8  LYS8        0.0206
     22  CE        33.2080   23.3620   16.3830 C.3     8  LYS8        0.1093
     23  NZ        34.6870   23.4710   16.2290 N.3     8  LYS8       -0.1314
     24  N         29.1980   23.3120   21.0710 N.am    9  THR9       -0.1953
     25  CA        28.9300   22.4250   22.2070 C.3     9  THR9        0.1897
     26  C         27.4290   22.2860   22.5000 C.2     9  THR9        0.2313
     27  O         26.9270   21.1760   22.6990 O.2     9  THR9       -0.2863
     28  CB        29.6960   22.9040   23.4620 C.3     9  THR9        0.1794
     29  OG1       31.1050   22.8450   23.2040 O.3     9  THR9       -0.2208
     30  CG2       29.3750   22.0420   24.6760 C.3     9  THR9        0.0378
     31  N         25.6130   20.4210   19.5660 N.3    12  SER12      -0.1217
     32  CA        25.9640   19.0120   19.3660 C.3    12  SER12       0.1889
     33  C         25.6530   18.0650   20.5350 C.2    12  SER12       0.2288
     34  O         25.2450   16.9290   20.3090 O.2    12  SER12      -0.2866
     35  CB        27.4360   18.8870   18.9670 C.3    12  SER12       0.2089
     36  OG        27.7210   17.5710   18.5380 O.3    12  SER12      -0.2183
     37  N         23.9420   12.2030   14.4620 N.3   247  LYS247     -0.1245
     38  CA        25.3300   12.0450   14.0450 C.3   247  LYS247      0.1561
     39  C         25.5560   10.6250   13.5570 C.2   247  LYS247      0.2260
     40  O         24.9840    9.6770   14.1010 O.2   247  LYS247     -0.2867
     41  CB        26.2930   12.3830   15.1920 C.3   247  LYS247      0.0271
     42  CG        26.1010   13.7790   15.8080 C.3   247  LYS247      0.0035
     43  CD        26.2370   14.8920   14.7670 C.3   247  LYS247      0.0206
     44  CE        26.4790   16.2600   15.4080 C.3   247  LYS247      0.1093
     45  NZ        25.2430   16.8450   15.9740 N.3   247  LYS247     -0.1314
     46  N         39.1710   16.8110   12.3120 N.3   415  ASP415     -0.1239
     47  CA        38.2770   16.3480   13.3730 C.3   415  ASP415      0.1674
     48  C         37.3510   15.2300   12.8910 C.2   415  ASP415      0.2266
     49  O         36.2540   15.0570   13.4120 O.2   415  ASP415     -0.2867
     50  CB        37.5310   17.5100   14.0630 C.3   415  ASP415      0.1410
     51  CG        36.4250   18.1200   13.2090 C.2   415  ASP415      0.3668
     52  OD1       36.6040   18.2670   11.9860 O.co2 415  ASP415     -0.2456
     53  OD2       35.3750   18.4800   13.7920 O.co2 415  ASP415     -0.2456
     54  N         30.8100   11.3500   10.1370 N.3   424  TYR424     -0.1241
     55  CA        32.2250   11.3030   10.4850 C.3   424  TYR424      0.1605
     56  C         32.7770    9.9340   10.1190 C.2   424  TYR424      0.2264
     57  O         32.0150    8.9730   10.0160 O.2   424  TYR424     -0.2867
     58  CB        32.4090   11.5870   11.9810 C.3   424  TYR424      0.0534
     59  CG        31.9930   12.9960   12.3690 C.ar  424  TYR424     -0.0201
     60  CD1       32.9440   14.0070   12.5140 C.ar  424  TYR424     -0.0009
     61  CD2       30.6510   13.3230   12.5600 C.ar  424  TYR424     -0.0009
     62  CE1       32.5730   15.3080   12.8460 C.ar  424  TYR424      0.0417
     63  CE2       30.2650   14.6250   12.8870 C.ar  424  TYR424      0.0417
     64  CZ        31.2340   15.6080   13.0280 C.ar  424  TYR424      0.1957
     65  OH        30.8620   16.8900   13.3590 O.3   424  TYR424     -0.2866
     66  N         36.5170   11.8500   19.3720 N.3   447  LEU447     -0.1245
     67  CA        35.3780   12.3350   18.5900 C.3   447  LEU447      0.1561
     68  C         34.1000   12.3580   19.4320 C.2   447  LEU447      0.2260
     69  O         33.3940   13.3780   19.4790 O.2   447  LEU447     -0.2867
     70  CB        35.1800   11.4910   17.3180 C.3   447  LEU447      0.0270
     71  CG        33.9390   11.7660   16.4480 C.3   447  LEU447      0.0019
     72  CD1       33.8810   13.2310   15.9860 C.3   447  LEU447      0.0001
     73  CD2       33.9200   10.8260   15.2490 C.3   447  LEU447      0.0001
     74  N         34.1430   15.2350   21.8020 N.3   450  ARG450     -0.1231
     75  CA        33.9250   16.5380   21.1630 C.3   450  ARG450      0.1694
     76  C         32.4440   16.7220   20.8240 C.2   450  ARG450      0.2591
     77  O         31.8720   17.7900   21.0710 O.2   450  ARG450     -0.2718
     78  CB        34.7950   16.7130   19.9100 C.3   450  ARG450      0.0321
     79  CG        36.3080   16.8430   20.1920 C.3   450  ARG450      0.0489
     80  CD        37.0650   17.3600   18.9570 C.3   450  ARG450      0.2205
     81  NE        36.7840   16.5580   17.7610 N.pl3 450  ARG450     -0.0865
     82  CZ        37.4250   15.4390   17.4300 C.cat 450  ARG450      0.5346
     83  NH1       38.4150   14.9730   18.1890 N.pl3 450  ARG450      0.1354
     84  NH2       37.0840   14.7880   16.3290 N.pl3 450  ARG450      0.1354
     85  N         31.8300   15.6740   20.2740 N.am  451  LEU451     -0.1980
     86  CA        30.4230   15.7060   19.8780 C.3   451  LEU451      0.1596
     87  C         29.4740   15.8780   21.0560 C.2   451  LEU451      0.2287
     88  O         28.5270   16.6750   20.9920 O.2   451  LEU451     -0.2864
     89  CB        30.0420   14.4270   19.1210 C.3   451  LEU451      0.0297
     90  CG        30.5620   14.2710   17.6940 C.3   451  LEU451      0.0022
     91  CD1       30.2980   12.8640   17.2080 C.3   451  LEU451      0.0001
     92  CD2       29.9160   15.2910   16.7620 C.3   451  LEU451      0.0001
     93  N         31.5050   18.4640   24.8310 N.3   454  GLY454     -0.1210
     94  CA        32.1710   19.7560   24.6400 C.3   454  GLY454      0.1956
     95  C         33.6920   19.7690   24.6610 C.2   454  GLY454      0.2611
     96  O         34.3050   20.8320   24.8300 O.2   454  GLY454     -0.2717
     97  N         34.3190   18.6040   24.4860 N.am  455  ALA455     -0.1979
     98  CA        35.7790   18.5510   24.4300 C.3   455  ALA455      0.1597
     99  C         36.2790   19.2690   23.1780 C.2   455  ALA455      0.2287
    100  O         35.5440   19.4050   22.2000 O.2   455  ALA455     -0.2864
    101  CB        36.2770   17.1100   24.4660 C.3   455  ALA455      0.0319
@<TRIPOS>BOND
     1    57    56    2
     2    56    55    1
     3    54    55    1
     4    55    58    1
     5    58    59    1
     6    52    51   ar
     7    46    47    1
     8    59    60   ar
     9    59    61   ar
    10    60    62   ar
    11    61    63   ar
    12    62    64   ar
    13    63    64   ar
    14    48    47    1
    15    48    49    2
    16    64    65    1
    17    51    53   ar
    18    51    50    1
    19    47    50    1
    20    39    38    1
    21    39    40    2
    22    38    37    1
    23    38    41    1
    24    43    44    1
    25    43    42    1
    26    41    42    1
    27    73    71    1
    28    44    45    1
    29    72    71    1
    30    23    22    1
    31    84    82    1
    32    22    21    1
    33    71    70    1
    34    92    90    1
    35    21    20    1
    36    20    19    1
    37    91    90    1
    38    70    67    1
    39    82    81    2
    40    82    83    1
    41    90    89    1
    42    81    80    1
    43    19    16    1
    44    36    35    1
    45    67    66    1
    46    67    68    1
    47    16    15    1
    48    16    17    1
    49    80    79    1
    50    35    32    1
    51    89    86    1
    52    32    31    1
    53    32    33    1
    54    68    69    2
    55    18    17    2
    56    17    24   am
    57    86    85    1
    58    86    87    1
    59    78    79    1
    60    78    75    1
    61    85    76   am
    62    34    33    2
    63     1     2    1
    64    76    77    2
    65    76    75    1
    66    88    87    2
    67    24    25    1
    68    75    74    1
    69     2     3    1
    70     2     5    1
    71     4     3    2
    72   100    99    2
    73    25    26    1
    74    25    28    1
    75     5     6    1
    76    26    27    2
    77     7     6   ar
    78     7     9   ar
    79    99    98    1
    80    29    28    1
    81     6     8   ar
    82    28    30    1
    83     9    10   ar
    84    98   101    1
    85    98    97    1
    86    97    95   am
    87     8    10   ar
    88     8    11   ar
    89    94    95    1
    90    94    93    1
    91    95    96    2
    92    10    12   ar
    93    11    13   ar
    94    12    14   ar
    95    13    14   ar
