@<TRIPOS>MOLECULE
tmp/2x8hA07.pdb
 109 102 0 0 0
SMALL
GASTEIGER

@<TRIPOS>ATOM
      1  N         35.5410  -18.4640    1.2850 N.3   139  ILE139     -0.1245
      2  CA        35.3530  -19.8400    1.7600 C.3   139  ILE139      0.1561
      3  C         34.3320  -19.9590    2.8990 C.2   139  ILE139      0.2260
      4  O         34.0140  -21.0650    3.3370 O.2   139  ILE139     -0.2867
      5  CB        36.6920  -20.5600    2.1130 C.3   139  ILE139      0.0252
      6  CG1       37.3800  -19.8900    3.3100 C.3   139  ILE139      0.0019
      7  CG2       37.6000  -20.6210    0.8830 C.3   139  ILE139      0.0019
      8  CD1       38.3500  -20.7920    4.0430 C.3   139  ILE139      0.0001
      9  N         39.3110  -18.8920   -5.2730 N.3   266  GLU266     -0.1231
     10  CA        38.8340  -20.2600   -5.0900 C.3   266  GLU266      0.1699
     11  C         39.6870  -21.0700   -4.1120 C.2   266  GLU266      0.2592
     12  O         39.1530  -21.8330   -3.3070 O.2   266  GLU266     -0.2718
     13  CB        38.7740  -21.0000   -6.4390 C.3   266  GLU266      0.0402
     14  CG        37.8070  -20.4070   -7.4740 C.3   266  GLU266      0.1161
     15  CD        38.3870  -19.2340   -8.2620 C.2   266  GLU266      0.3649
     16  OE1       39.5450  -18.8340   -8.0160 O.co2 266  GLU266     -0.2457
     17  OE2       37.6710  -18.7020   -9.1370 O.co2 266  GLU266     -0.2457
     18  N         41.0070  -20.9110   -4.1900 N.am  267  TYR267     -0.1976
     19  CA        41.9270  -21.8240   -3.5000 C.3   267  TYR267      0.1639
     20  C         42.8190  -21.1810   -2.4410 C.2   267  TYR267      0.2290
     21  O         43.3030  -21.8650   -1.5350 O.2   267  TYR267     -0.2864
     22  CB        42.7990  -22.5640   -4.5160 C.3   267  TYR267      0.0560
     23  CG        42.0290  -23.2120   -5.6460 C.ar  267  TYR267     -0.0198
     24  CD1       42.3800  -22.9710   -6.9730 C.ar  267  TYR267     -0.0009
     25  CD2       40.9480  -24.0640   -5.3900 C.ar  267  TYR267     -0.0009
     26  CE1       41.6770  -23.5600   -8.0240 C.ar  267  TYR267      0.0417
     27  CE2       40.2350  -24.6590   -6.4380 C.ar  267  TYR267      0.0417
     28  CZ        40.6090  -24.4020   -7.7490 C.ar  267  TYR267      0.1957
     29  OH        39.9190  -24.9800   -8.7910 O.3   267  TYR267     -0.2866
     30  N         43.8200  -18.4270    0.7000 N.3   269  ILE269     -0.1245
     31  CA        43.1980  -17.8760    1.9010 C.3   269  ILE269      0.1561
     32  C         43.8690  -16.5470    2.2460 C.2   269  ILE269      0.2260
     33  O         44.8820  -16.1830    1.6450 O.2   269  ILE269     -0.2867
     34  CB        43.2490  -18.8570    3.1130 C.3   269  ILE269      0.0252
     35  CG1       44.6920  -19.1270    3.5610 C.3   269  ILE269      0.0019
     36  CG2       42.5130  -20.1630    2.7920 C.3   269  ILE269      0.0019
     37  CD1       44.8040  -19.7720    4.9410 C.3   269  ILE269      0.0001
     38  N         42.1710  -26.6670    9.9400 N.3   279  TYR279     -0.1241
     39  CA        43.2770  -27.5650    9.6130 C.3   279  TYR279      0.1605
     40  C         44.6110  -26.8400    9.7350 C.2   279  TYR279      0.2264
     41  O         44.6730  -25.6120    9.6140 O.2   279  TYR279     -0.2867
     42  CB        43.1060  -28.1120    8.1910 C.3   279  TYR279      0.0534
     43  CG        42.9800  -27.0450    7.1210 C.ar  279  TYR279     -0.0201
     44  CD1       41.7390  -26.4970    6.7980 C.ar  279  TYR279     -0.0009
     45  CD2       44.1030  -26.5780    6.4400 C.ar  279  TYR279     -0.0009
     46  CE1       41.6200  -25.5130    5.8180 C.ar  279  TYR279      0.0417
     47  CE2       43.9950  -25.6010    5.4600 C.ar  279  TYR279      0.0417
     48  CZ        42.7540  -25.0740    5.1540 C.ar  279  TYR279      0.1957
     49  OH        42.6440  -24.1030    4.1870 O.3   279  TYR279     -0.2866
     50  N         44.3660  -26.4300   -8.0860 N.3   349  GLN349     -0.1245
     51  CA        44.0980  -27.3460   -6.9780 C.3   349  GLN349      0.1566
     52  C         44.5650  -28.7600   -7.3030 C.2   349  GLN349      0.2260
     53  O         44.2660  -29.2910   -8.3750 O.2   349  GLN349     -0.2867
     54  CB        42.6090  -27.3420   -6.6160 C.3   349  GLN349      0.0367
     55  CG        42.2720  -28.0610   -5.3100 C.3   349  GLN349      0.0905
     56  CD        40.8270  -27.8550   -4.8840 C.2   349  GLN349      0.2608
     57  OE1       39.8980  -28.0690   -5.6630 O.2   349  GLN349     -0.2717
     58  NE2       40.6340  -27.4340   -3.6410 N.am  349  GLN349     -0.0878
     59  N         44.5830  -31.0800   -4.4240 N.3   351  LYS351     -0.1231
     60  CA        43.8650  -31.8290   -3.3970 C.3   351  LYS351      0.1693
     61  C         42.9480  -30.8890   -2.6160 C.2   351  LYS351      0.2592
     62  O         43.3110  -29.7430   -2.3310 O.2   351  LYS351     -0.2718
     63  CB        44.8530  -32.5210   -2.4540 C.3   351  LYS351      0.0285
     64  CG        44.2560  -33.6110   -1.5810 C.3   351  LYS351      0.0035
     65  CD        45.3450  -34.4240   -0.8830 C.3   351  LYS351      0.0206
     66  CE        45.9820  -33.6500    0.2620 C.3   351  LYS351      0.1093
     67  NZ        47.0210  -34.4510    0.9780 N.3   351  LYS351     -0.1314
     68  N         41.7630  -31.3890   -2.2800 N.am  352  VAL352     -0.1966
     69  CA        40.7790  -30.6470   -1.4980 C.3   352  VAL352      0.1727
     70  C         41.1010  -30.8070   -0.0120 C.2   352  VAL352      0.2616
     71  O         41.6170  -31.8430    0.4070 O.2   352  VAL352     -0.2715
     72  CB        39.3350  -31.1510   -1.8000 C.3   352  VAL352      0.0290
     73  CG1       38.2950  -30.4170   -0.9580 C.3   352  VAL352      0.0023
     74  CG2       39.0140  -31.0030   -3.2890 C.3   352  VAL352      0.0023
     75  N         40.8120  -29.7690    0.7730 N.am  353  VAL353     -0.1977
     76  CA        40.9510  -29.8260    2.2300 C.3   353  VAL353      0.1596
     77  C         40.1410  -30.9960    2.7980 C.2   353  VAL353      0.2287
     78  O         38.9800  -31.1840    2.4360 O.2   353  VAL353     -0.2864
     79  CB        40.5150  -28.4880    2.8900 C.3   353  VAL353      0.0276
     80  CG1       40.1990  -28.6700    4.3790 C.3   353  VAL353      0.0022
     81  CG2       41.5900  -27.4280    2.6930 C.3   353  VAL353      0.0022
     82  N         44.6270  -29.2790    1.9830 N.3   361  GLY361     -0.1225
     83  CA        44.6710  -29.8370    0.6400 C.3   361  GLY361      0.1811
     84  C         46.0650  -29.6960    0.0620 C.2   361  GLY361      0.2280
     85  O         47.0650  -29.8040    0.7820 O.2   361  GLY361     -0.2866
     86  N         48.0590  -27.4480   -3.3990 N.3   363  LEU363     -0.1245
     87  CA        47.9430  -26.5080   -4.5000 C.3   363  LEU363      0.1561
     88  C         49.2270  -26.4700   -5.3100 C.2   363  LEU363      0.2260
     89  O         50.3180  -26.6800   -4.7740 O.2   363  LEU363     -0.2867
     90  CB        47.6340  -25.0920   -3.9900 C.3   363  LEU363      0.0270
     91  CG        46.3370  -24.7020   -3.2600 C.3   363  LEU363      0.0019
     92  CD1       45.0970  -25.3680   -3.8500 C.3   363  LEU363      0.0001
     93  CD2       46.4280  -24.9590   -1.7690 C.3   363  LEU363      0.0001
     94  N         50.7500  -26.7900    0.4390 N.3   380  GLU380     -0.1231
     95  CA        49.5130  -27.2230    1.0740 C.3   380  GLU380      0.1699
     96  C         48.5610  -26.0540    1.3140 C.2   380  GLU380      0.2592
     97  O         47.3460  -26.2150    1.2190 O.2   380  GLU380     -0.2718
     98  CB        49.8120  -27.9860    2.3640 C.3   380  GLU380      0.0402
     99  CG        50.4750  -29.3280    2.0880 C.3   380  GLU380      0.1161
    100  CD        50.8750  -30.0730    3.3360 C.2   380  GLU380      0.3649
    101  OE1       51.7410  -29.5710    4.0830 O.co2 380  GLU380     -0.2457
    102  OE2       50.3460  -31.1830    3.5500 O.co2 380  GLU380     -0.2457
    103  N         49.1200  -24.8790    1.5980 N.am  381  THR381     -0.1953
    104  CA        48.3250  -23.6690    1.8170 C.3   381  THR381      0.1897
    105  C         48.9610  -22.4670    1.1250 C.2   381  THR381      0.2313
    106  O         50.1830  -22.3050    1.1370 O.2   381  THR381     -0.2863
    107  CB        48.1530  -23.3740    3.3310 C.3   381  THR381      0.1794
    108  OG1       47.3680  -24.4100    3.9280 O.3   381  THR381     -0.2208
    109  CG2       47.4610  -22.0330    3.5710 C.3   381  THR381      0.0378
@<TRIPOS>BOND
     1    17    15   ar
     2    29    28    1
     3    53    52    2
     4    15    16   ar
     5    15    14    1
     6    50    51    1
     7    26    28   ar
     8    26    24   ar
     9    28    27   ar
    10    14    13    1
    11    52    51    1
    12    51    54    1
    13    24    23   ar
    14    54    55    1
    15    13    10    1
    16    27    25   ar
    17    57    56    2
    18    23    25   ar
    19    23    22    1
    20    55    56    1
    21    88    89    2
    22    88    87    1
    23     9    10    1
    24    10    11    1
    25    56    58   am
    26    22    19    1
    27    87    90    1
    28    87    86    1
    29    59    60    1
    30    18    11   am
    31    18    19    1
    32    11    12    2
    33    90    91    1
    34    92    91    1
    35    19    20    1
    36    60    61    1
    37    60    63    1
    38    74    72    1
    39    91    93    1
    40    61    62    2
    41    61    68   am
    42    63    64    1
    43    20    21    2
    44    68    69    1
    45    72    69    1
    46    72    73    1
    47    64    65    1
    48    69    70    1
    49    65    66    1
    50    70    71    2
    51    70    75   am
    52    84    83    1
    53    84    85    2
    54    66    67    1
    55    94    95    1
    56    83    82    1
    57    30    31    1
    58    75    76    1
    59     7     5    1
    60    95    96    1
    61    95    98    1
    62   105   106    2
    63   105   104    1
    64    97    96    2
    65     1     2    1
    66    96   103   am
    67   103   104    1
    68    33    32    2
    69     2     5    1
    70     2     3    1
    71   104   107    1
    72    31    32    1
    73    31    34    1
    74    99    98    1
    75    99   100    1
    76     5     6    1
    77    76    77    1
    78    76    79    1
    79    78    77    2
    80    81    79    1
    81    36    34    1
    82    79    80    1
    83     3     4    2
    84    34    35    1
    85     6     8    1
    86   107   109    1
    87   107   108    1
    88   100   102   ar
    89   100   101   ar
    90    35    37    1
    91    49    48    1
    92    48    47   ar
    93    48    46   ar
    94    47    45   ar
    95    46    44   ar
    96    45    43   ar
    97    44    43   ar
    98    43    42    1
    99    42    39    1
   100    39    40    1
   101    39    38    1
   102    41    40    2
