@<TRIPOS>MOLECULE
tmp/2x8hA01.pdb
 81 77 0 0 0
SMALL
GASTEIGER

@<TRIPOS>ATOM
      1  N         28.1800   -5.9840   11.0180 N.3   133  TYR133     -0.1227
      2  CA        27.9540   -7.1440   10.1750 C.3   133  TYR133      0.1736
      3  C         29.2830   -7.5870    9.5830 C.2   133  TYR133      0.2595
      4  O         30.0820   -6.7630    9.1200 O.2   133  TYR133     -0.2718
      5  CB        26.9460   -6.8250    9.0610 C.3   133  TYR133      0.0548
      6  CG        26.9440   -7.8240    7.9240 C.ar  133  TYR133     -0.0200
      7  CD1       26.4740   -9.1210    8.1130 C.ar  133  TYR133     -0.0009
      8  CD2       27.4060   -7.4670    6.6560 C.ar  133  TYR133     -0.0009
      9  CE1       26.4720  -10.0440    7.0750 C.ar  133  TYR133      0.0417
     10  CE2       27.4060   -8.3840    5.6080 C.ar  133  TYR133      0.0417
     11  CZ        26.9360   -9.6700    5.8270 C.ar  133  TYR133      0.1957
     12  OH        26.9300  -10.5870    4.8010 O.3   133  TYR133     -0.2866
     13  N         29.5140   -8.8940    9.6100 N.am  134  VAL134     -0.1980
     14  CA        30.7260   -9.4700    9.0560 C.3   134  VAL134      0.1595
     15  C         30.3590  -10.2770    7.8170 C.2   134  VAL134      0.2287
     16  O         29.7960  -11.3670    7.9200 O.2   134  VAL134     -0.2864
     17  CB        31.4680  -10.3480   10.0980 C.3   134  VAL134      0.0276
     18  CG1       32.6900  -11.0210    9.4740 C.3   134  VAL134      0.0022
     19  CG2       31.8670   -9.5110   11.3100 C.3   134  VAL134      0.0022
     20  N         33.3740  -16.4860    9.0360 N.3   142  THR142     -0.1218
     21  CA        32.7830  -15.3170    9.6840 C.3   142  THR142      0.1862
     22  C         33.1200  -15.3310   11.1770 C.2   142  THR142      0.2287
     23  O         33.6670  -16.3140   11.6870 O.2   142  THR142     -0.2866
     24  CB        31.2490  -15.2340    9.4730 C.3   142  THR142      0.1770
     25  OG1       30.7680  -13.9790    9.9800 O.3   142  THR142     -0.2211
     26  CG2       30.5340  -16.3790   10.1880 C.3   142  THR142      0.0375
     27  N         23.0790   -6.5480   15.0430 N.3   220  ASN220     -0.1225
     28  CA        23.8520   -7.3720   14.1240 C.3   220  ASN220      0.1785
     29  C         23.1960   -7.2880   12.7470 C.2   220  ASN220      0.2597
     30  O         22.4000   -8.1500   12.3570 O.2   220  ASN220     -0.2718
     31  CB        23.9490   -8.8190   14.6290 C.3   220  ASN220      0.1169
     32  CG        24.8440   -9.6920   13.7600 C.2   220  ASN220      0.2627
     33  OD1       25.7670   -9.2090   13.0960 O.2   220  ASN220     -0.2716
     34  ND2       24.5740  -10.9900   13.7650 N.am  220  ASN220     -0.0877
     35  N         23.5240   -6.2190   12.0270 N.am  221  ALA221     -0.1966
     36  CA        22.8600   -5.8880   10.7710 C.3   221  ALA221      0.1728
     37  C         23.7840   -5.1310    9.8270 C.2   221  ALA221      0.2616
     38  O         24.6770   -4.4020   10.2720 O.2   221  ALA221     -0.2715
     39  CB        21.6020   -5.0640   11.0470 C.3   221  ALA221      0.0334
     40  N         23.5660   -5.3050    8.5250 N.am  222  LYS222     -0.1977
     41  CA        24.2880   -4.5370    7.5170 C.3   222  LYS222      0.1596
     42  C         23.6590   -3.1540    7.3760 C.2   222  LYS222      0.2287
     43  O         22.4610   -3.0320    7.1130 O.2   222  LYS222     -0.2864
     44  CB        24.2840   -5.2580    6.1660 C.3   222  LYS222      0.0298
     45  CG        25.1440   -4.5800    5.1030 C.3   222  LYS222      0.0038
     46  CD        25.1340   -5.3460    3.7840 C.3   222  LYS222      0.0206
     47  CE        26.0360   -4.6650    2.7610 C.3   222  LYS222      0.1093
     48  NZ        26.1410   -5.4240    1.4750 N.3   222  LYS222     -0.1314
     49  N         19.6850   -4.2010    7.1650 N.3   234  THR234     -0.1203
     50  CA        19.2550   -5.5400    6.7710 C.3   234  THR234      0.1994
     51  C         19.6680   -6.5200    7.8670 C.2   234  THR234      0.2618
     52  O         20.8590   -6.6450    8.1690 O.2   234  THR234     -0.2717
     53  CB        19.8840   -5.9670    5.4200 C.3   234  THR234      0.1784
     54  OG1       19.6950   -4.9340    4.4440 O.3   234  THR234     -0.2211
     55  CG2       19.2570   -7.2660    4.9090 C.3   234  THR234      0.0376
     56  N         18.6940   -7.2010    8.4700 N.am  235  ASP235     -0.1959
     57  CA        18.9810   -8.1320    9.5710 C.3   235  ASP235      0.1840
     58  C         19.3040   -9.5520    9.0920 C.2   235  ASP235      0.2621
     59  O         19.4170   -9.7940    7.8890 O.2   235  ASP235     -0.2715
     60  CB        17.8640   -8.1170   10.6360 C.3   235  ASP235      0.1450
     61  CG        16.5270   -8.6570   10.1240 C.2   235  ASP235      0.3671
     62  OD1       16.4990   -9.4570    9.1650 O.co2 235  ASP235     -0.2456
     63  OD2       15.4890   -8.2840   10.7100 O.co2 235  ASP235     -0.2456
     64  N         19.4590  -10.4760   10.0410 N.am  236  LYS236     -0.1977
     65  CA        19.8260  -11.8700    9.7480 C.3   236  LYS236      0.1596
     66  C         18.7640  -12.6130    8.9330 C.2   236  LYS236      0.2287
     67  O         19.0760  -13.5760    8.2240 O.2   236  LYS236     -0.2864
     68  CB        20.1430  -12.6370   11.0420 C.3   236  LYS236      0.0298
     69  CG        18.9870  -12.7370   12.0370 C.3   236  LYS236      0.0038
     70  CD        19.4210  -13.3950   13.3370 C.3   236  LYS236      0.0206
     71  CE        18.2850  -13.4120   14.3510 C.3   236  LYS236      0.1093
     72  NZ        18.7140  -13.9720   15.6630 N.3   236  LYS236     -0.1314
     73  N         17.0660  -11.2160    6.5630 N.3   238  GLN238     -0.1245
     74  CA        16.9830  -10.4430    5.3140 C.3   238  GLN238      0.1566
     75  C         15.8920   -9.3620    5.3100 C.2   238  GLN238      0.2260
     76  O         15.5580   -8.8130    4.2590 O.2   238  GLN238     -0.2867
     77  CB        16.8560  -11.3640    4.0860 C.3   238  GLN238      0.0367
     78  CG        18.0790  -12.2390    3.8270 C.3   238  GLN238      0.0905
     79  CD        19.3400  -11.4300    3.5840 C.2   238  GLN238      0.2608
     80  OE1       20.2980  -11.5070    4.3570 O.2   238  GLN238     -0.2717
     81  NE2       19.3420  -10.6400    2.5140 N.am  238  GLN238     -0.0878
@<TRIPOS>BOND
     1    48    47    1
     2    81    79   am
     3    47    46    1
     4    79    78    1
     5    79    80    2
     6    46    45    1
     7    78    77    1
     8    77    74    1
     9    76    75    2
    10    54    53    1
    11    12    11    1
    12    55    53    1
    13    45    44    1
    14    75    74    1
    15    74    73    1
    16    53    50    1
    17    10    11   ar
    18    10     8   ar
    19    11     9   ar
    20    44    41    1
    21     8     6   ar
    22    50    49    1
    23    50    51    1
    24     9     7   ar
    25    43    42    2
    26    42    41    1
    27    41    40    1
    28    15    16    2
    29    15    14    1
    30    51    52    2
    31    51    56   am
    32    59    58    2
    33     6     7   ar
    34     6     5    1
    35    67    66    2
    36    56    57    1
    37    40    37   am
    38    66    65    1
    39    20    21    1
    40    14    13    1
    41    14    17    1
    42     5     2    1
    43    58    57    1
    44    58    64   am
    45     4     3    2
    46    62    61   ar
    47    24    21    1
    48    24    25    1
    49    24    26    1
    50    18    17    1
    51    57    60    1
    52     3    13   am
    53     3     2    1
    54    21    22    1
    55    65    64    1
    56    65    68    1
    57    37    38    2
    58    37    36    1
    59    17    19    1
    60    61    60    1
    61    61    63   ar
    62     2     1    1
    63    36    39    1
    64    36    35    1
    65    68    69    1
    66    22    23    2
    67    35    29   am
    68    69    70    1
    69    30    29    2
    70    29    28    1
    71    33    32    2
    72    70    71    1
    73    32    34   am
    74    32    31    1
    75    28    31    1
    76    28    27    1
    77    71    72    1
