@<TRIPOS>MOLECULE
tmp/2x8hA04.pdb
 93 90 0 0 0
SMALL
GASTEIGER

@<TRIPOS>ATOM
      1  N         30.6560   -9.7180    6.6480 N.3   135  GLU135     -0.1231
      2  CA        30.4540  -10.4270    5.3940 C.3   135  GLU135      0.1684
      3  C         31.4500  -11.5820    5.3500 C.2   135  GLU135      0.2434
      4  O         32.6450  -11.3730    5.5730 O.2   135  GLU135     -0.2733
      5  CB        30.6540   -9.4930    4.1960 C.3   135  GLU135      0.0402
      6  CG        30.3050  -10.1310    2.8520 C.3   135  GLU135      0.1161
      7  CD        30.5160   -9.2090    1.6610 C.2   135  GLU135      0.3649
      8  OE1       30.9140   -8.0370    1.8460 O.co2 135  GLU135     -0.2457
      9  OE2       30.2790   -9.6670    0.5230 O.co2 135  GLU135     -0.2457
     10  N         30.9590  -12.8070    5.0800 N.am  136  PRO136     -0.2718
     11  CA        31.8410  -13.9690    5.0920 C.3   136  PRO136      0.1535
     12  C         32.9040  -13.9030    3.9990 C.2   136  PRO136      0.2599
     13  O         32.6780  -13.3120    2.9400 O.2   136  PRO136     -0.2715
     14  CB        30.8830  -15.1450    4.8390 C.3   136  PRO136      0.0310
     15  CG        29.5260  -14.6230    5.1910 C.3   136  PRO136      0.0237
     16  CD        29.5640  -13.1860    4.7880 C.3   136  PRO136      0.0939
     17  N         34.0610  -14.4980    4.2730 N.am  137  THR137     -0.1938
     18  CA        35.1130  -14.6420    3.2760 C.3   137  THR137      0.2013
     19  C         34.6070  -15.5730    2.1660 C.2   137  THR137      0.2484
     20  O         33.6080  -16.2720    2.3640 O.2   137  THR137     -0.2729
     21  CB        36.3940  -15.2420    3.8950 C.3   137  THR137      0.1807
     22  OG1       36.1930  -16.6370    4.1560 O.3   137  THR137     -0.2208
     23  CG2       36.7680  -14.5160    5.1960 C.3   137  THR137      0.0379
     24  N         35.2840  -15.5840    1.0000 N.am  138  PRO138     -0.2726
     25  CA        34.8870  -16.4780   -0.0910 C.3   138  PRO138      0.1402
     26  C         34.6890  -17.9370    0.3280 C.2   138  PRO138      0.2269
     27  O         33.8040  -18.6050   -0.2030 O.2   138  PRO138     -0.2865
     28  CB        36.0510  -16.3510   -1.0750 C.3   138  PRO138      0.0296
     29  CG        36.4980  -14.9420   -0.9030 C.3   138  PRO138      0.0237
     30  CD        36.3520  -14.6560    0.5730 C.3   138  PRO138      0.0939
     31  N         38.9600   -4.8620    4.1580 N.3   255  ARG255     -0.1231
     32  CA        39.0880   -6.3160    4.0250 C.3   255  ARG255      0.1679
     33  C         40.2720   -6.6490    3.1110 C.2   255  ARG255      0.2434
     34  O         40.6900   -5.8050    2.3100 O.2   255  ARG255     -0.2733
     35  CB        37.7860   -6.9460    3.5000 C.3   255  ARG255      0.0321
     36  CG        36.5530   -6.7690    4.4050 C.3   255  ARG255      0.0489
     37  CD        36.6620   -7.5100    5.7480 C.3   255  ARG255      0.2205
     38  NE        36.6120   -8.9660    5.6070 N.pl3 255  ARG255     -0.0865
     39  CZ        35.4900   -9.6850    5.5760 C.cat 255  ARG255      0.5346
     40  NH1       34.3010   -9.0930    5.6700 N.pl3 255  ARG255      0.1354
     41  NH2       35.5540  -11.0050    5.4400 N.pl3 255  ARG255      0.1354
     42  N         40.8290   -7.8720    3.2310 N.am  256  PRO256     -0.2729
     43  CA        41.9900   -8.2530    2.4120 C.3   256  PRO256      0.1401
     44  C         41.7360   -8.1810    0.9030 C.2   256  PRO256      0.2269
     45  O         40.6370   -8.4970    0.4400 O.2   256  PRO256     -0.2865
     46  CB        42.2430   -9.7100    2.8230 C.3   256  PRO256      0.0296
     47  CG        41.6860   -9.8130    4.1960 C.3   256  PRO256      0.0237
     48  CD        40.4730   -8.9270    4.1960 C.3   256  PRO256      0.0939
     49  N         42.6920   -9.5260   -3.0130 N.3   258  TYR258     -0.1241
     50  CA        43.1640  -10.7100   -3.7310 C.3   258  TYR258      0.1605
     51  C         43.8140  -10.2710   -5.0440 C.2   258  TYR258      0.2264
     52  O         43.3240   -9.3450   -5.6940 O.2   258  TYR258     -0.2867
     53  CB        41.9970  -11.6390   -4.0690 C.3   258  TYR258      0.0534
     54  CG        41.4880  -12.5200   -2.9490 C.ar  258  TYR258     -0.0201
     55  CD1       41.8630  -13.8630   -2.8750 C.ar  258  TYR258     -0.0009
     56  CD2       40.6090  -12.0260   -1.9850 C.ar  258  TYR258     -0.0009
     57  CE1       41.3840  -14.6910   -1.8620 C.ar  258  TYR258      0.0417
     58  CE2       40.1230  -12.8480   -0.9620 C.ar  258  TYR258      0.0417
     59  CZ        40.5150  -14.1790   -0.9120 C.ar  258  TYR258      0.1957
     60  OH        40.0430  -15.0020    0.0860 O.3   258  TYR258     -0.2866
     61  N         40.8330  -16.5910   -5.5810 N.3   265  VAL265     -0.1245
     62  CA        39.6550  -16.5490   -4.7120 C.3   265  VAL265      0.1561
     63  C         39.1770  -17.9590   -4.3350 C.2   265  VAL265      0.2260
     64  O         38.7170  -18.1930   -3.2160 O.2   265  VAL265     -0.2867
     65  CB        38.5070  -15.7230   -5.3630 C.3   265  VAL265      0.0252
     66  CG1       37.2140  -15.8380   -4.5670 C.3   265  VAL265      0.0019
     67  CG2       38.9150  -14.2560   -5.4950 C.3   265  VAL265      0.0019
     68  N         41.9990  -13.2730    7.1890 N.3   272  ASP272     -0.1239
     69  CA        40.6060  -13.4770    7.6350 C.3   272  ASP272      0.1674
     70  C         40.2920  -14.9430    7.9560 C.2   272  ASP272      0.2266
     71  O         39.5290  -15.2340    8.8810 O.2   272  ASP272     -0.2867
     72  CB        39.6170  -13.0010    6.5670 C.3   272  ASP272      0.1410
     73  CG        39.4210  -11.4910    6.5500 C.2   272  ASP272      0.3668
     74  OD1       40.0730  -10.7590    7.3270 O.co2 272  ASP272     -0.2456
     75  OD2       38.5920  -11.0390    5.7350 O.co2 272  ASP272     -0.2456
     76  N         35.5780   -0.9140    1.5480 N.3   391  GLN391     -0.1245
     77  CA        34.4870   -1.3830    0.6940 C.3   391  GLN391      0.1566
     78  C         33.2320   -0.5360    0.8950 C.2   391  GLN391      0.2260
     79  O         32.1550   -1.0490    1.1910 O.2   391  GLN391     -0.2867
     80  CB        34.2220   -2.8770    0.9150 C.3   391  GLN391      0.0367
     81  CG        35.2300   -3.7760    0.1860 C.3   391  GLN391      0.0905
     82  CD        35.2110   -5.2230    0.6490 C.2   391  GLN391      0.2608
     83  OE1       34.4150   -5.6100    1.5010 O.2   391  GLN391     -0.2717
     84  NE2       36.0960   -6.0320    0.0780 N.am  391  GLN391     -0.0878
     85  N         29.5500   -0.7780   -0.4310 N.3   394  LYS394     -0.1245
     86  CA        28.6550   -1.6590    0.3190 C.3   394  LYS394      0.1561
     87  C         28.0140   -0.9390    1.5100 C.2   394  LYS394      0.2260
     88  O         27.1270   -1.4890    2.1670 O.2   394  LYS394     -0.2867
     89  CB        29.4160   -2.8960    0.8170 C.3   394  LYS394      0.0271
     90  CG        30.0770   -3.7250   -0.2780 C.3   394  LYS394      0.0035
     91  CD        30.9000   -4.8610    0.3120 C.3   394  LYS394      0.0206
     92  CE        31.5740   -5.6810   -0.7760 C.3   394  LYS394      0.1093
     93  NZ        32.3480   -6.8190   -0.2060 N.3   394  LYS394     -0.1314
@<TRIPOS>BOND
     1    52    51    2
     2    61    62    1
     3    67    65    1
     4    65    62    1
     5    65    66    1
     6    51    50    1
     7    62    63    1
     8    63    64    2
     9    53    50    1
    10    53    54    1
    11    50    49    1
    12    54    55   ar
    13    54    56   ar
    14    55    57   ar
    15    56    58   ar
    16    57    59   ar
    17    28    29    1
    18    28    25    1
    19    58    59   ar
    20    59    60    1
    21    29    30    1
    22    92    93    1
    23    92    91    1
    24    85    86    1
    25    90    91    1
    26    90    89    1
    27    27    26    2
    28    25    26    1
    29    25    24    1
    30    84    82   am
    31    81    82    1
    32    81    80    1
    33    86    89    1
    34    86    87    1
    35    45    44    2
    36     9     7   ar
    37    30    24    1
    38    82    83    2
    39    77    78    1
    40    77    80    1
    41    77    76    1
    42    78    79    2
    43    44    43    1
    44    24    19   am
    45    87    88    2
    46     7     8   ar
    47     7     6    1
    48    19    20    2
    49    19    18    1
    50    34    33    2
    51    43    46    1
    52    43    42    1
    53    46    47    1
    54     6     5    1
    55    13    12    2
    56    33    42   am
    57    33    32    1
    58    42    48    1
    59    18    21    1
    60    18    17    1
    61    35    32    1
    62    35    36    1
    63    21    22    1
    64    21    23    1
    65    12    17   am
    66    12    11    1
    67    32    31    1
    68    48    47    1
    69     5     2    1
    70    36    37    1
    71    16    10    1
    72    16    15    1
    73    14    11    1
    74    14    15    1
    75    10    11    1
    76    10     3   am
    77     3     2    1
    78     3     4    2
    79     2     1    1
    80    41    39    1
    81    39    38    2
    82    39    40    1
    83    38    37    1
    84    75    73   ar
    85    73    72    1
    86    73    74   ar
    87    72    69    1
    88    68    69    1
    89    69    70    1
    90    70    71    2
