@<TRIPOS>MOLECULE
tmp/2x8iA00.pdb
 131 123 0 0 0
SMALL
GASTEIGER

@<TRIPOS>ATOM
      1  N         -0.8850   -7.2610   42.1770 N.3    14  LEU14      -0.1231
      2  CA        -0.4280   -6.2130   41.2700 C.3    14  LEU14       0.1693
      3  C          0.5880   -6.7510   40.2580 C.2    14  LEU14       0.2593
      4  O          0.6340   -6.3100   39.1070 O.2    14  LEU14      -0.2718
      5  CB         0.1880   -5.0670   42.0740 C.3    14  LEU14       0.0284
      6  CG        -0.7860   -4.3240   42.9890 C.3    14  LEU14       0.0019
      7  CD1       -0.0450   -3.3370   43.8980 C.3    14  LEU14       0.0001
      8  CD2       -1.8590   -3.6150   42.1610 C.3    14  LEU14       0.0001
      9  N          1.4110   -7.6990   40.6880 N.am   15  GLY15      -0.1942
     10  CA         2.3770   -8.3180   39.7870 C.3    15  GLY15       0.2014
     11  C          3.0490   -9.5350   40.3820 C.2    15  GLY15       0.2639
     12  O          3.1040   -9.6840   41.6020 O.2    15  GLY15      -0.2714
     13  N          3.5600  -10.4010   39.5080 N.am   16  GLU16      -0.1963
     14  CA         4.2110  -11.6470   39.9150 C.3    16  GLU16       0.1733
     15  C          5.6220  -11.7230   39.3390 C.2    16  GLU16       0.2616
     16  O          5.8300  -11.4770   38.1470 O.2    16  GLU16      -0.2715
     17  CB         3.3920  -12.8520   39.4470 C.3    16  GLU16       0.0429
     18  CG         2.0840  -13.0440   40.2100 C.3    16  GLU16       0.1163
     19  CD         1.1870  -14.1140   39.6040 C.2    16  GLU16       0.3649
     20  OE1        1.3120  -14.3980   38.3920 O.co2  16  GLU16      -0.2457
     21  OE2        0.3440  -14.6740   40.3410 O.co2  16  GLU16      -0.2457
     22  N          6.5810  -12.0590   40.2000 N.am   17  GLY17      -0.1955
     23  CA         7.9810  -12.2320   39.8050 C.3    17  GLY17       0.1869
     24  C          8.4260  -13.6720   39.9960 C.2    17  GLY17       0.2309
     25  O          7.5960  -14.5630   40.2100 O.2    17  GLY17      -0.2863
     26  N          3.5980   -9.0940   44.3220 N.3    22  VAL22      -0.1245
     27  CA         3.2330   -7.8420   44.9720 C.3    22  VAL22       0.1561
     28  C          1.7140   -7.7600   45.0070 C.2    22  VAL22       0.2260
     29  O          1.0470   -7.9940   43.9950 O.2    22  VAL22      -0.2867
     30  CB         3.8040   -6.6190   44.2310 C.3    22  VAL22       0.0252
     31  CG1        3.4670   -5.3400   44.9800 C.3    22  VAL22       0.0019
     32  CG2        5.3050   -6.7550   44.0640 C.3    22  VAL22       0.0019
     33  N          1.3710   -1.1860   48.7490 N.3    35  ALA35      -0.1245
     34  CA         1.7660   -2.3670   48.0030 C.3    35  ALA35       0.1562
     35  C          2.6010   -3.2410   48.9260 C.2    35  ALA35       0.2260
     36  O          3.4730   -2.7440   49.6380 O.2    35  ALA35      -0.2867
     37  CB         2.5460   -1.9850   46.7590 C.3    35  ALA35       0.0290
     38  N          9.8910    4.5240   43.8500 N.3    60  VAL60      -0.1245
     39  CA         8.8270    3.9500   44.6720 C.3    60  VAL60       0.1561
     40  C          9.2460    4.0300   46.1370 C.2    60  VAL60       0.2260
     41  O         10.3130    3.5230   46.5130 O.2    60  VAL60      -0.2867
     42  CB         8.5390    2.4810   44.2890 C.3    60  VAL60       0.0252
     43  CG1        7.6910    1.7930   45.3540 C.3    60  VAL60       0.0019
     44  CG2        7.8610    2.4040   42.9170 C.3    60  VAL60       0.0019
     45  N          5.5060   -1.0000   50.4180 N.3    76  LEU76      -0.1231
     46  CA         5.8850   -0.0440   49.3990 C.3    76  LEU76       0.1693
     47  C          4.7270    0.8700   49.0410 C.2    76  LEU76       0.2592
     48  O          3.5510    0.5220   49.2100 O.2    76  LEU76      -0.2718
     49  CB         6.3240   -0.7940   48.1320 C.3    76  LEU76       0.0284
     50  CG         7.4270   -1.8380   48.3220 C.3    76  LEU76       0.0019
     51  CD1        7.5580   -2.7370   47.0930 C.3    76  LEU76       0.0001
     52  CD2        8.7330   -1.1490   48.6360 C.3    76  LEU76       0.0001
     53  N          5.0860    2.0430   48.5350 N.am   77  GLU77      -0.1966
     54  CA         4.1290    2.9930   47.9920 C.3    77  GLU77       0.1733
     55  C          3.2930    2.3300   46.9160 C.2    77  GLU77       0.2616
     56  O          3.8330    1.6990   45.9930 O.2    77  GLU77      -0.2715
     57  CB         4.8870    4.1820   47.4020 C.3    77  GLU77       0.0429
     58  CG         4.0840    5.1090   46.5240 C.3    77  GLU77       0.1163
     59  CD         4.8990    6.2800   46.0240 C.2    77  GLU77       0.3649
     60  OE1        4.2800    7.3030   45.6950 O.co2  77  GLU77      -0.2457
     61  OE2        6.1490    6.1830   45.9550 O.co2  77  GLU77      -0.2457
     62  N          1.9750    2.4560   47.0450 N.am   78  TYR78      -0.1960
     63  CA         1.0720    2.0200   45.9850 C.3    78  TYR78       0.1771
     64  C          1.0030    3.0920   44.8860 C.2    78  TYR78       0.2619
     65  O          0.6400    4.2520   45.1370 O.2    78  TYR78      -0.2715
     66  CB        -0.3270    1.6850   46.5310 C.3    78  TYR78       0.0574
     67  CG        -1.2970    1.3180   45.4280 C.ar   78  TYR78      -0.0198
     68  CD1       -1.0040    0.2880   44.5460 C.ar   78  TYR78      -0.0009
     69  CD2       -2.4840    2.0220   45.2430 C.ar   78  TYR78      -0.0009
     70  CE1       -1.8600   -0.0450   43.5180 C.ar   78  TYR78       0.0417
     71  CE2       -3.3540    1.6920   44.2120 C.ar   78  TYR78       0.0417
     72  CZ        -3.0310    0.6540   43.3510 C.ar   78  TYR78       0.1957
     73  OH        -3.8690    0.3090   42.3200 O.3    78  TYR78      -0.2866
     74  N          1.3730    2.6890   43.6720 N.am   79  CYS79      -0.1968
     75  CA         1.4200    3.5710   42.5170 C.3    79  CYS79       0.1712
     76  C          0.1620    3.3110   41.6990 C.2    79  CYS79       0.2296
     77  O          0.0760    2.3310   40.9510 O.2    79  CYS79      -0.2864
     78  CB         2.6880    3.2970   41.7120 C.3    79  CYS79       0.0983
     79  SG         4.1890    3.7000   42.6310 S.3    79  CYS79      -0.0798
     80  N         -0.5180    2.7170   37.7540 N.3    82  GLY82      -0.1210
     81  CA        -0.1640    1.4410   37.1390 C.3    82  GLY82       0.1956
     82  C          1.2480    1.3970   36.5750 C.2    82  GLY82       0.2611
     83  O          2.1540    2.0510   37.0860 O.2    82  GLY82      -0.2717
     84  N          1.4270    0.6020   35.5220 N.am   83  GLU83      -0.1979
     85  CA         2.7280    0.4050   34.8850 C.3    83  GLU83       0.1602
     86  C          2.8480    1.2340   33.6320 C.2    83  GLU83       0.2287
     87  O          1.8640    1.4210   32.9120 O.2    83  GLU83      -0.2864
     88  CB         2.8780   -1.0330   34.4220 C.3    83  GLU83       0.0415
     89  CG         2.8390   -2.0650   35.4840 C.3    83  GLU83       0.1163
     90  CD         2.9280   -3.4480   34.9000 C.2    83  GLU83       0.3649
     91  OE1        2.1840   -4.3210   35.3770 O.co2  83  GLU83      -0.2457
     92  OE2        3.7350   -3.6610   33.9660 O.co2  83  GLU83      -0.2457
     93  N          8.0980   -2.5150   32.9290 N.3   126  GLU126     -0.1231
     94  CA         7.5350   -3.2580   34.0530 C.3   126  GLU126      0.1699
     95  C          8.0040   -2.7140   35.4080 C.2   126  GLU126      0.2592
     96  O          7.3040   -2.8690   36.4200 O.2   126  GLU126     -0.2718
     97  CB         7.9230   -4.7390   33.9800 C.3   126  GLU126      0.0402
     98  CG         7.4620   -5.4710   32.7310 C.3   126  GLU126      0.1161
     99  CD         8.5080   -5.4960   31.6220 C.2   126  GLU126      0.3649
    100  OE1        9.2060   -4.4770   31.4200 O.co2 126  GLU126     -0.2457
    101  OE2        8.6170   -6.5360   30.9360 O.co2 126  GLU126     -0.2457
    102  N          9.1960   -2.1110   35.4280 N.am  127  ASN127     -0.1974
    103  CA         9.7800   -1.5530   36.6510 C.3   127  ASN127      0.1688
    104  C          9.7080   -0.0210   36.7080 C.2   127  ASN127      0.2292
    105  O         10.4110    0.6210   37.4870 O.2   127  ASN127     -0.2864
    106  CB        11.2230   -2.0300   36.7870 C.3   127  ASN127      0.1181
    107  CG        11.3140   -3.5050   37.1470 C.2   127  ASN127      0.2629
    108  OD1       10.3980   -4.0650   37.7650 O.2   127  ASN127     -0.2716
    109  ND2       12.4250   -4.1390   36.7700 N.am  127  ASN127     -0.0877
    110  N          6.6890    2.5400   37.3030 N.3   129  LEU129     -0.1245
    111  CA         5.2910    2.6630   37.6920 C.3   129  LEU129      0.1561
    112  C          4.8520    4.1250   37.6350 C.2   129  LEU129      0.2260
    113  O          5.6700    5.0330   37.4480 O.2   129  LEU129     -0.2867
    114  CB         5.0730    2.0870   39.1010 C.3   129  LEU129      0.0270
    115  CG         5.6100    0.6740   39.3320 C.3   129  LEU129      0.0019
    116  CD1        5.3390    0.2290   40.7670 C.3   129  LEU129      0.0001
    117  CD2        5.0270   -0.3020   38.3180 C.3   129  LEU129      0.0001
    118  N         10.9650    1.2650   40.1230 N.3   139  SER139     -0.1202
    119  CA        10.4730    0.2010   40.9810 C.3   139  SER139      0.2020
    120  C         11.3760   -1.0210   40.9420 C.2   139  SER139      0.2618
    121  O         12.0270   -1.2910   39.9290 O.2   139  SER139     -0.2717
    122  CB         9.0500   -0.1880   40.5410 C.3   139  SER139      0.2103
    123  OG         8.6280   -1.4150   41.1150 O.3   139  SER139     -0.2182
    124  N         11.4020   -1.7350   42.0660 N.am  140  ASP140     -0.1973
    125  CA        12.0350   -3.0520   42.2150 C.3   140  ASP140      0.1709
    126  C         13.5630   -2.9710   42.2390 C.2   140  ASP140      0.2293
    127  O         14.2150   -2.9430   41.1940 O.2   140  ASP140     -0.2864
    128  CB        11.5590   -4.0370   41.1470 C.3   140  ASP140      0.1436
    129  CG        11.8970   -5.4920   41.4950 C.2   140  ASP140      0.3671
    130  OD1       11.2950   -6.4000   40.8920 O.co2 140  ASP140     -0.2456
    131  OD2       12.7610   -5.7350   42.3690 O.co2 140  ASP140     -0.2456
@<TRIPOS>BOND
     1   101    99   ar
     2   100    99   ar
     3    99    98    1
     4    98    97    1
     5    87    86    2
     6    93    94    1
     7    86    85    1
     8    92    90   ar
     9    97    94    1
    10    94    95    1
    11    88    85    1
    12    88    89    1
    13    85    84    1
    14    90    91   ar
    15    90    89    1
    16    95   102   am
    17    95    96    2
    18   102   103    1
    19    84    82   am
    20    82    83    2
    21    82    81    1
    22   103   104    1
    23   103   106    1
    24   104   105    2
    25   109   107   am
    26   106   107    1
    27    81    80    1
    28   107   108    2
    29   110   111    1
    30   113   112    2
    31   112   111    1
    32   111   114    1
    33    16    15    2
    34   117   115    1
    35    20    19   ar
    36   114   115    1
    37     4     3    2
    38   115   116    1
    39    15    14    1
    40    15    22   am
    41    17    14    1
    42    17    18    1
    43    13    14    1
    44    13    11   am
    45    19    18    1
    46    19    21   ar
    47    10    11    1
    48    10     9    1
    49    23    24    1
    50    23    22    1
    51   121   120    2
    52    24    25    2
    53   118   119    1
    54     3     9   am
    55     3     2    1
    56    11    12    2
    57   122   119    1
    58   122   123    1
    59   130   129   ar
    60   120   119    1
    61   120   124   am
    62    77    76    2
    63   128   129    1
    64   128   125    1
    65   127   126    2
    66     2     5    1
    67     2     1    1
    68   129   131   ar
    69    76    75    1
    70    78    75    1
    71    78    79    1
    72   124   125    1
    73     5     6    1
    74     8     6    1
    75   125   126    1
    76    73    72    1
    77    75    74    1
    78    44    42    1
    79     6     7    1
    80    72    70   ar
    81    72    71   ar
    82    70    68   ar
    83    74    64   am
    84    38    39    1
    85    29    28    2
    86    32    30    1
    87    71    69   ar
    88    30    27    1
    89    30    31    1
    90    42    39    1
    91    42    43    1
    92    26    27    1
    93    68    67   ar
    94    39    40    1
    95    64    65    2
    96    64    63    1
    97    27    28    1
    98    69    67   ar
    99    67    66    1
   100    60    59   ar
   101    61    59   ar
   102    63    66    1
   103    63    62    1
   104    56    55    2
   105    59    58    1
   106    40    41    2
   107    58    57    1
   108    37    34    1
   109    55    62   am
   110    55    54    1
   111    51    50    1
   112    57    54    1
   113    54    53    1
   114    34    33    1
   115    34    35    1
   116    49    50    1
   117    49    46    1
   118    50    52    1
   119    53    47   am
   120    35    36    2
   121    47    48    2
   122    47    46    1
   123    46    45    1
