@<TRIPOS>MOLECULE
tmp/2x8jD00.pdb
 128 125 0 0 0
SMALL
GASTEIGER

@<TRIPOS>ATOM
      1  N         36.1780  -36.2040   -2.5230 N.3   171  VAL171     -0.1245
      2  CA        37.4370  -35.6010   -2.1280 C.3   171  VAL171      0.1561
      3  C         37.2260  -34.4780   -1.1210 C.2   171  VAL171      0.2260
      4  O         37.9940  -34.3320   -0.2160 O.2   171  VAL171     -0.2867
      5  CB        38.2180  -35.1580   -3.3370 C.3   171  VAL171      0.0252
      6  CG1       39.2630  -34.2500   -2.9850 C.3   171  VAL171      0.0019
      7  CG2       38.7750  -36.4490   -4.0820 C.3   171  VAL171      0.0019
      8  N         39.0580  -41.1980  -14.5140 N.3   189  ALA189     -0.1231
      9  CA        40.4980  -41.1080  -14.1740 C.3   189  ALA189      0.1694
     10  C         41.1150  -39.7330  -14.5520 C.2   189  ALA189      0.2592
     11  O         42.0990  -39.2910  -13.9670 O.2   189  ALA189     -0.2718
     12  CB        41.2870  -42.1800  -14.9140 C.3   189  ALA189      0.0304
     13  N         40.5830  -39.1030  -15.5980 N.am  190  ALA190     -0.1966
     14  CA        41.1060  -37.7800  -16.0380 C.3   190  ALA190      0.1728
     15  C         40.7560  -36.6380  -15.1280 C.2   190  ALA190      0.2616
     16  O         41.3000  -35.5750  -15.3670 O.2   190  ALA190     -0.2715
     17  CB        40.5750  -37.4280  -17.4500 C.3   190  ALA190      0.0334
     18  N         39.8300  -36.8010  -14.1900 N.am  191  TYR191     -0.1960
     19  CA        39.4800  -35.7050  -13.2450 C.3   191  TYR191      0.1771
     20  C         40.7210  -35.4290  -12.3510 C.2   191  TYR191      0.2620
     21  O         41.3660  -36.3280  -11.8870 O.2   191  TYR191     -0.2715
     22  CB        38.2630  -36.0350  -12.4590 C.3   191  TYR191      0.0574
     23  CG        36.9660  -36.0680  -13.2670 C.ar  191  TYR191     -0.0198
     24  CD1       36.6960  -35.0920  -14.2200 C.ar  191  TYR191     -0.0009
     25  CD2       36.0050  -37.0340  -13.0130 C.ar  191  TYR191     -0.0009
     26  CE1       35.5150  -35.1480  -14.9930 C.ar  191  TYR191      0.0417
     27  CE2       34.8110  -37.0760  -13.7540 C.ar  191  TYR191      0.0417
     28  CZ        34.5850  -36.1030  -14.7360 C.ar  191  TYR191      0.1957
     29  OH        33.3900  -36.0850  -15.4490 O.3   191  TYR191     -0.2866
     30  N         41.0860  -34.1560  -12.2260 N.am  192  ASN192     -0.1958
     31  CA        42.2260  -33.7880  -11.4570 C.3   192  ASN192      0.1819
     32  C         42.2120  -34.3460  -10.0160 C.2   192  ASN192      0.2621
     33  O         43.2930  -34.6520   -9.5140 O.2   192  ASN192     -0.2715
     34  CB        42.3360  -32.2710  -11.3480 C.3   192  ASN192      0.1195
     35  CG        43.5560  -31.8770  -10.5730 C.2   192  ASN192      0.2630
     36  OD1       44.6960  -31.9890  -11.1130 O.2   192  ASN192     -0.2716
     37  ND2       43.3450  -31.4220   -9.3670 N.am  192  ASN192     -0.0877
     38  N         41.0600  -34.4630   -9.4400 N.am  193  GLU193     -0.1963
     39  CA        40.8120  -34.8410   -8.0550 C.3   193  GLU193      0.1733
     40  C         41.1440  -36.3020   -7.7770 C.2   193  GLU193      0.2616
     41  O         41.4010  -36.7210   -6.6270 O.2   193  GLU193     -0.2715
     42  CB        39.3890  -34.5890   -7.7010 C.3   193  GLU193      0.0429
     43  CG        38.9570  -33.1040   -7.6930 C.3   193  GLU193      0.1163
     44  CD        38.5190  -32.5640   -8.9890 C.2   193  GLU193      0.3649
     45  OE1       38.4260  -33.3110   -9.9610 O.co2 193  GLU193     -0.2457
     46  OE2       38.3130  -31.3200   -9.0570 O.co2 193  GLU193     -0.2457
     47  N         41.0830  -37.1100   -8.8260 N.am  194  VAL194     -0.1963
     48  CA        41.2640  -38.5950   -8.6790 C.3   194  VAL194      0.1727
     49  C         42.7570  -38.9520   -8.6500 C.2   194  VAL194      0.2616
     50  O         43.5940  -38.3460   -9.3270 O.2   194  VAL194     -0.2715
     51  CB        40.5890  -39.2310   -9.9150 C.3   194  VAL194      0.0290
     52  CG1       40.9610  -40.5820  -10.1310 C.3   194  VAL194      0.0023
     53  CG2       39.0830  -39.1010   -9.7660 C.3   194  VAL194      0.0023
     54  N         43.1590  -39.9580   -7.8470 N.am  195  ILE195     -0.1963
     55  CA        44.4870  -40.5320   -7.9540 C.3   195  ILE195      0.1727
     56  C         44.5050  -41.5810   -9.0980 C.2   195  ILE195      0.2616
     57  O         43.8610  -42.6290   -9.0000 O.2   195  ILE195     -0.2715
     58  CB        44.8770  -41.2230   -6.6160 C.3   195  ILE195      0.0290
     59  CG1       44.7990  -40.2210   -5.4560 C.3   195  ILE195      0.0022
     60  CG2       46.1960  -41.9760   -6.7280 C.3   195  ILE195      0.0023
     61  CD1       44.9550  -40.8480   -4.0610 C.3   195  ILE195      0.0001
     62  N         45.1610  -41.1930  -10.1770 N.am  196  ALA196     -0.1977
     63  CA        45.1780  -42.0380  -11.4110 C.3   196  ALA196      0.1597
     64  C         46.4100  -42.8680  -11.4190 C.2   196  ALA196      0.2287
     65  O         47.5340  -42.4030  -11.2620 O.2   196  ALA196     -0.2864
     66  CB        45.1770  -41.0710  -12.6380 C.3   196  ALA196      0.0319
     67  N         46.5760  -41.2560  -20.0900 N.3   214  GLU214     -0.1231
     68  CA        46.0550  -40.5250  -18.9740 C.3   214  GLU214      0.1699
     69  C         47.1240  -39.7420  -18.1990 C.2   214  GLU214      0.2592
     70  O         48.3250  -40.0930  -18.2340 O.2   214  GLU214     -0.2718
     71  CB        45.3560  -41.5580  -18.0580 C.3   214  GLU214      0.0402
     72  CG        44.5560  -40.9150  -16.9220 C.3   214  GLU214      0.1161
     73  CD        43.6640  -39.7870  -17.4440 C.2   214  GLU214      0.3649
     74  OE1       42.5430  -40.1640  -17.9490 O.co2 214  GLU214     -0.2457
     75  OE2       44.1110  -38.5810  -17.3070 O.co2 214  GLU214     -0.2457
     76  N         46.7220  -38.6860  -17.4690 N.am  215  GLU215     -0.1966
     77  CA        47.6500  -37.9460  -16.5950 C.3   215  GLU215      0.1733
     78  C         47.7140  -38.7380  -15.2190 C.2   215  GLU215      0.2616
     79  O         46.7130  -38.8000  -14.4670 O.2   215  GLU215     -0.2715
     80  CB        47.0930  -36.5410  -16.3790 C.3   215  GLU215      0.0429
     81  CG        47.2350  -35.6780  -17.6220 C.3   215  GLU215      0.1163
     82  CD        46.4310  -34.3600  -17.5680 C.2   215  GLU215      0.3649
     83  OE1       45.6820  -34.1510  -16.6380 O.co2 215  GLU215     -0.2457
     84  OE2       46.6620  -33.4960  -18.4270 O.co2 215  GLU215     -0.2457
     85  N         48.8380  -39.4130  -15.0250 N.am  216  ILE216     -0.1963
     86  CA        48.8980  -40.3440  -13.8830 C.3   216  ILE216      0.1727
     87  C         49.7310  -39.7600  -12.7400 C.2   216  ILE216      0.2616
     88  O         50.6440  -38.9520  -12.9000 O.2   216  ILE216     -0.2715
     89  CB        49.3350  -41.7350  -14.2510 C.3   216  ILE216      0.0290
     90  CG1       50.6980  -41.7160  -14.8950 C.3   216  ILE216      0.0022
     91  CG2       48.2230  -42.4190  -15.1380 C.3   216  ILE216      0.0023
     92  CD1       51.2610  -43.1270  -15.1140 C.3   216  ILE216      0.0001
     93  N         49.3880  -40.2580  -11.5530 N.am  217  ASP217     -0.1971
     94  CA        50.0770  -39.8840  -10.3430 C.3   217  ASP217      0.1709
     95  C         51.1940  -40.8720   -9.8470 C.2   217  ASP217      0.2293
     96  O         52.2110  -40.4390   -9.2500 O.2   217  ASP217     -0.2864
     97  CB        49.0260  -39.7970   -9.2560 C.3   217  ASP217      0.1436
     98  CG        48.0850  -38.5840   -9.4120 C.2   217  ASP217      0.3671
     99  OD1       46.9090  -38.8810   -9.6280 O.co2 217  ASP217     -0.2456
    100  OD2       48.5990  -37.3910   -9.3250 O.co2 217  ASP217     -0.2456
    101  N         42.5380  -35.6520    3.0530 N.3   268  GLU268     -0.1231
    102  CA        42.8010  -36.2890    1.7240 C.3   268  GLU268      0.1699
    103  C         44.0060  -35.7310    0.9900 C.2   268  GLU268      0.2592
    104  O         44.7890  -36.4390    0.3740 O.2   268  GLU268     -0.2718
    105  CB        41.5740  -36.1780    0.8670 C.3   268  GLU268      0.0402
    106  CG        41.5490  -37.0950   -0.3720 C.3   268  GLU268      0.1161
    107  CD        42.1780  -36.4540   -1.5880 C.2   268  GLU268      0.3649
    108  OE1       42.2130  -35.2220   -1.5950 O.co2 268  GLU268     -0.2457
    109  OE2       42.5740  -37.1630   -2.5170 O.co2 268  GLU268     -0.2457
    110  N         44.1530  -34.4160    1.1070 N.am  269  THR269     -0.1953
    111  CA        45.3210  -33.7670    0.5190 C.3   269  THR269      0.1897
    112  C         46.6380  -34.2950    1.0740 C.2   269  THR269      0.2313
    113  O         47.6010  -34.5680    0.3800 O.2   269  THR269     -0.2863
    114  CB        45.2630  -32.1720    0.5770 C.3   269  THR269      0.1794
    115  OG1       44.2540  -31.7370   -0.3570 O.3   269  THR269     -0.2208
    116  CG2       46.6400  -31.4920    0.3140 C.3   269  THR269      0.0378
    117  N         47.3190  -37.9080    0.0530 N.3   272  TYR272     -0.1241
    118  CA        47.8560  -37.9240   -1.2690 C.3   272  TYR272      0.1605
    119  C         49.3990  -37.7030   -1.2500 C.2   272  TYR272      0.2264
    120  O         50.1940  -38.4150   -1.8740 O.2   272  TYR272     -0.2867
    121  CB        47.1230  -36.9380   -2.1560 C.3   272  TYR272      0.0534
    122  CG        47.8130  -36.7890   -3.5230 C.ar  272  TYR272     -0.0201
    123  CD1       47.6630  -37.7760   -4.5020 C.ar  272  TYR272     -0.0009
    124  CD2       48.5410  -35.6370   -3.8490 C.ar  272  TYR272     -0.0009
    125  CE1       48.3040  -37.5770   -5.6940 C.ar  272  TYR272      0.0417
    126  CE2       49.2540  -35.5040   -5.0220 C.ar  272  TYR272      0.0417
    127  CZ        49.0390  -36.4450   -5.9810 C.ar  272  TYR272      0.1957
    128  OH        49.6980  -36.3310   -7.2460 O.3   272  TYR272     -0.2866
@<TRIPOS>BOND
     1    67    68    1
     2    68    69    1
     3    68    71    1
     4    84    82   ar
     5    70    69    2
     6    69    76   am
     7    71    72    1
     8    74    73   ar
     9    81    82    1
    10    81    80    1
    11    82    83   ar
    12    76    77    1
    13    17    14    1
    14    73    75   ar
    15    73    72    1
    16    77    80    1
    17    77    78    1
    18    14    13    1
    19    14    15    1
    20    13    10   am
    21    29    28    1
    22    16    15    2
    23    78    85   am
    24    78    79    2
    25    91    89    1
    26    15    18   am
    27    92    90    1
    28    85    86    1
    29    26    28   ar
    30    26    24   ar
    31    12     9    1
    32    90    89    1
    33    28    27   ar
    34    10     9    1
    35    10    11    2
    36     8     9    1
    37    89    86    1
    38    24    23   ar
    39    18    19    1
    40    86    87    1
    41    27    25   ar
    42    23    25   ar
    43    23    22    1
    44    19    22    1
    45    19    20    1
    46    88    87    2
    47    87    93   am
    48    66    63    1
    49    20    30   am
    50    20    21    2
    51    30    31    1
    52    93    94    1
    53    31    34    1
    54    31    32    1
    55    64    63    1
    56    64    65    2
    57    63    62    1
    58    34    35    1
    59    36    35    2
    60    35    37   am
    61    94    95    1
    62    94    97    1
    63    62    56   am
    64    52    51    1
    65    32    33    2
    66    32    38   am
    67    45    44   ar
    68    51    53    1
    69    51    48    1
    70    95    96    2
    71    99    98   ar
    72    38    39    1
    73    98   100   ar
    74    98    97    1
    75    50    49    2
    76    56    57    2
    77    56    55    1
    78    46    44   ar
    79    44    43    1
    80    47    48    1
    81    47    40   am
    82    48    49    1
    83    49    54   am
    84    39    40    1
    85    39    42    1
    86    55    54    1
    87    55    58    1
    88    40    41    2
    89    42    43    1
    90   128   127    1
    91    60    58    1
    92    58    59    1
    93   127   125   ar
    94   127   126   ar
    95   125   123   ar
    96    59    61    1
    97   126   124   ar
    98   123   122   ar
    99     7     5    1
   100   124   122   ar
   101   122   121    1
   102     5     6    1
   103     5     2    1
   104     1     2    1
   105   109   107   ar
   106   121   118    1
   107     2     3    1
   108   120   119    2
   109   108   107   ar
   110   107   106    1
   111   118   119    1
   112   118   117    1
   113     3     4    2
   114   106   105    1
   115   115   114    1
   116   116   114    1
   117   104   103    2
   118   113   112    2
   119   111   114    1
   120   111   112    1
   121   111   110    1
   122   105   102    1
   123   103   110   am
   124   103   102    1
   125   102   101    1
