@<TRIPOS>MOLECULE
tmp/2x8mA04.pdb
 94 89 0 0 0
SMALL
GASTEIGER

@<TRIPOS>ATOM
      1  N        -44.4470   12.0420  -47.2640 N.3     7  PHE7       -0.1241
      2  CA       -44.4960   12.9390  -46.1260 C.3     7  PHE7        0.1605
      3  C        -45.8760   13.5680  -46.0740 C.2     7  PHE7        0.2264
      4  O        -46.4480   13.9050  -47.1080 O.2     7  PHE7       -0.2867
      5  CB       -43.4230   14.0190  -46.2650 C.3     7  PHE7        0.0534
      6  CG       -42.0450   13.5420  -45.9110 C.ar    7  PHE7       -0.0203
      7  CD1      -41.6410   13.4740  -44.5810 C.ar    7  PHE7       -0.0042
      8  CD2      -41.1600   13.1300  -46.9020 C.ar    7  PHE7       -0.0042
      9  CE1      -40.3700   12.9990  -44.2450 C.ar    7  PHE7       -0.0003
     10  CE2      -39.8880   12.6540  -46.5760 C.ar    7  PHE7       -0.0003
     11  CZ       -39.4940   12.5890  -45.2450 C.ar    7  PHE7       -0.0000
     12  N        -45.4100   16.7210  -38.8810 N.3    14  LYS14      -0.1245
     13  CA       -45.1260   16.0840  -40.1570 C.3    14  LYS14       0.1561
     14  C        -44.8230   14.6110  -39.9270 C.2    14  LYS14       0.2260
     15  O        -44.1120   14.2460  -38.9890 O.2    14  LYS14      -0.2867
     16  CB       -43.9530   16.7560  -40.8720 C.3    14  LYS14       0.0271
     17  CG       -43.8210   16.3110  -42.3280 C.3    14  LYS14       0.0035
     18  CD       -42.5940   16.8920  -43.0150 C.3    14  LYS14       0.0206
     19  CE       -42.6500   18.4150  -43.1340 C.3    14  LYS14       0.1093
     20  NZ       -43.6850   18.8770  -44.1050 N.3    14  LYS14      -0.1314
     21  N        -34.5800    8.0550  -46.2200 N.3    29  ILE29      -0.1231
     22  CA       -35.5380    8.2660  -47.2950 C.3    29  ILE29       0.1692
     23  C        -34.9810    9.1810  -48.3820 C.2    29  ILE29       0.2592
     24  O        -34.6880   10.3520  -48.1310 O.2    29  ILE29      -0.2718
     25  CB       -36.8300    8.8920  -46.7450 C.3    29  ILE29       0.0266
     26  CG1      -37.3840    8.0260  -45.6080 C.3    29  ILE29       0.0019
     27  CG2      -37.8640    9.0240  -47.8600 C.3    29  ILE29       0.0020
     28  CD1      -38.4760    8.6950  -44.8030 C.3    29  ILE29       0.0001
     29  N        -34.8240    8.6230  -49.5780 N.am   30  ASP30      -0.1974
     30  CA       -34.3420    9.3540  -50.7460 C.3    30  ASP30       0.1709
     31  C        -33.0610   10.1720  -50.5430 C.2    30  ASP30       0.2293
     32  O        -33.0210   11.3670  -50.8380 O.2    30  ASP30      -0.2864
     33  CB       -35.4700   10.2590  -51.2700 C.3    30  ASP30       0.1436
     34  CG       -35.1560   10.8650  -52.6320 C.2    30  ASP30       0.3671
     35  OD1      -34.3370   10.2800  -53.3740 O.co2  30  ASP30      -0.2456
     36  OD2      -35.7460   11.9180  -52.9650 O.co2  30  ASP30      -0.2456
     37  N        -31.6030   11.0710  -47.7370 N.3    32  LYS32      -0.1245
     38  CA       -31.5430   11.8270  -46.4860 C.3    32  LYS32       0.1561
     39  C        -32.0380   10.9600  -45.3300 C.2    32  LYS32       0.2260
     40  O        -32.8010   10.0060  -45.5310 O.2    32  LYS32      -0.2867
     41  CB       -32.3870   13.1040  -46.5740 C.3    32  LYS32       0.0271
     42  CG       -31.8610   14.1260  -47.5790 C.3    32  LYS32       0.0035
     43  CD       -32.7270   15.3870  -47.6200 C.3    32  LYS32       0.0206
     44  CE       -32.2230   16.3570  -48.6820 C.3    32  LYS32       0.1093
     45  NZ       -33.1640   17.4950  -48.9150 N.3    32  LYS32      -0.1314
     46  N        -33.9600   10.7040  -41.5490 N.3    34  TYR34      -0.1241
     47  CA       -34.9440   11.3330  -40.6780 C.3    34  TYR34       0.1605
     48  C        -35.1980   10.4790  -39.4450 C.2    34  TYR34       0.2264
     49  O        -34.8680    9.2900  -39.4190 O.2    34  TYR34      -0.2867
     50  CB       -36.2710   11.4990  -41.4320 C.3    34  TYR34       0.0534
     51  CG       -36.1600   12.2810  -42.7160 C.ar   34  TYR34      -0.0201
     52  CD1      -36.4510   13.6470  -42.7540 C.ar   34  TYR34      -0.0009
     53  CD2      -35.7740   11.6550  -43.8990 C.ar   34  TYR34      -0.0009
     54  CE1      -36.3630   14.3680  -43.9520 C.ar   34  TYR34       0.0417
     55  CE2      -35.6810   12.3630  -45.0970 C.ar   34  TYR34       0.0417
     56  CZ       -35.9780   13.7210  -45.1130 C.ar   34  TYR34       0.1957
     57  OH       -35.8910   14.4210  -46.2960 O.3    34  TYR34      -0.2866
     58  N        -42.0290   13.7860  -36.9510 N.3    42  MET42      -0.1245
     59  CA       -40.6820   14.0830  -37.4360 C.3    42  MET42       0.1570
     60  C        -39.9860   15.1280  -36.5640 C.2    42  MET42       0.2261
     61  O        -40.5530   16.1870  -36.2770 O.2    42  MET42      -0.2867
     62  CB       -40.7320   14.5690  -38.8850 C.3    42  MET42       0.0387
     63  CG       -39.3500   14.8390  -39.4830 C.3    42  MET42       0.0595
     64  SD       -39.3840   15.4520  -41.1820 S.3    42  MET42      -0.1393
     65  CE       -39.6380   17.2100  -40.8990 C.3    42  MET42       0.0692
     66  N        -34.1780   22.0810  -40.3450 N.3    80  GLN80      -0.1231
     67  CA       -35.5660   22.4430  -40.1180 C.3    80  GLN80       0.1698
     68  C        -36.4810   21.6380  -41.0330 C.2    80  GLN80       0.2592
     69  O        -37.6960   21.6360  -40.8540 O.2    80  GLN80      -0.2718
     70  CB       -35.7790   23.9450  -40.3330 C.3    80  GLN80       0.0381
     71  CG       -35.2100   24.8110  -39.2200 C.3    80  GLN80       0.0905
     72  CD       -35.7180   24.4130  -37.8430 C.2    80  GLN80       0.2608
     73  OE1      -35.1070   23.5940  -37.1500 O.2    80  GLN80      -0.2717
     74  NE2      -36.8470   24.9860  -37.4420 N.am   80  GLN80      -0.0878
     75  N        -35.8930   20.9570  -42.0110 N.am   81  ASP81      -0.1974
     76  CA       -36.6730   20.1250  -42.9180 C.3    81  ASP81       0.1709
     77  C        -36.6360   18.6760  -42.4200 C.2    81  ASP81       0.2293
     78  O        -37.1170   17.7610  -43.0890 O.2    81  ASP81      -0.2864
     79  CB       -36.1210   20.2180  -44.3430 C.3    81  ASP81       0.1436
     80  CG       -34.7060   19.6890  -44.4610 C.2    81  ASP81       0.3671
     81  OD1      -34.0390   19.5240  -43.4170 O.co2  81  ASP81      -0.2456
     82  OD2      -34.2560   19.4490  -45.5990 O.co2  81  ASP81      -0.2456
     83  N        -41.0560   18.8610  -35.8580 N.3   105  TYR105     -0.1241
     84  CA       -41.4940   19.7500  -36.9240 C.3   105  TYR105      0.1605
     85  C        -42.8910   20.2720  -36.5970 C.2   105  TYR105      0.2264
     86  O        -43.7880   19.4980  -36.2620 O.2   105  TYR105     -0.2867
     87  CB       -41.5210   19.0030  -38.2530 C.3   105  TYR105      0.0534
     88  CG       -41.8460   19.8780  -39.4390 C.ar  105  TYR105     -0.0201
     89  CD1      -40.8370   20.5100  -40.1600 C.ar  105  TYR105     -0.0009
     90  CD2      -43.1660   20.0820  -39.8350 C.ar  105  TYR105     -0.0009
     91  CE1      -41.1330   21.3220  -41.2500 C.ar  105  TYR105      0.0417
     92  CE2      -43.4750   20.8960  -40.9210 C.ar  105  TYR105      0.0417
     93  CZ       -42.4550   21.5110  -41.6240 C.ar  105  TYR105      0.1957
     94  OH       -42.7560   22.3110  -42.7020 O.3   105  TYR105     -0.2866
@<TRIPOS>BOND
     1    35    34   ar
     2    36    34   ar
     3    34    33    1
     4    33    30    1
     5    32    31    2
     6    30    31    1
     7    30    29    1
     8    29    23   am
     9    45    44    1
    10    44    43    1
    11    23    24    2
    12    23    22    1
    13    27    25    1
    14    37    38    1
    15    43    42    1
    16    42    41    1
    17    22    25    1
    18    22    21    1
    19     1     2    1
    20     4     3    2
    21     8    10   ar
    22     8     6   ar
    23    25    26    1
    24    10    11   ar
    25    41    38    1
    26    38    39    1
    27    57    56    1
    28     5     2    1
    29     5     6    1
    30     2     3    1
    31     6     7   ar
    32    26    28    1
    33    82    80   ar
    34    40    39    2
    35    11     9   ar
    36    56    55   ar
    37    56    54   ar
    38    55    53   ar
    39     7     9   ar
    40    80    79    1
    41    80    81   ar
    42    79    76    1
    43    20    19    1
    44    54    52   ar
    45    53    51   ar
    46    19    18    1
    47    78    77    2
    48    18    17    1
    49    76    77    1
    50    76    75    1
    51    52    51   ar
    52    51    50    1
    53    94    93    1
    54    17    16    1
    55    75    68   am
    56    93    91   ar
    57    93    92   ar
    58    46    47    1
    59    50    47    1
    60    91    89   ar
    61    64    65    1
    62    64    63    1
    63    68    69    2
    64    68    67    1
    65    92    90   ar
    66    16    13    1
    67    47    48    1
    68    66    67    1
    69    70    67    1
    70    70    71    1
    71    89    88   ar
    72    13    14    1
    73    13    12    1
    74    14    15    2
    75    90    88   ar
    76    63    62    1
    77    48    49    2
    78    88    87    1
    79    71    72    1
    80    62    59    1
    81    87    84    1
    82    72    74   am
    83    72    73    2
    84    59    58    1
    85    59    60    1
    86    84    85    1
    87    84    83    1
    88    85    86    2
    89    60    61    2
