@<TRIPOS>MOLECULE
tmp/2x8mA03.pdb
 96 95 0 0 0
SMALL
GASTEIGER

@<TRIPOS>ATOM
      1  N        -11.7370   24.3400  -17.0170 N.3   162  GLY162     -0.1210
      2  CA       -11.3260   24.1090  -15.6440 C.3   162  GLY162      0.1956
      3  C        -10.9550   22.6710  -15.3290 C.2   162  GLY162      0.2611
      4  O        -10.6300   21.8880  -16.2290 O.2   162  GLY162     -0.2717
      5  N        -10.9970   22.3300  -14.0430 N.am  163  TRP163     -0.1976
      6  CA       -10.6660   20.9840  -13.5870 C.3   163  TRP163      0.1640
      7  C        -11.6510   19.9950  -14.1820 C.2   163  TRP163      0.2290
      8  O        -12.8620   20.1480  -14.0230 O.2   163  TRP163     -0.2864
      9  CB       -10.7200   20.9080  -12.0660 C.3   163  TRP163      0.0576
     10  CG        -9.5020   21.4920  -11.4000 C.ar  163  TRP163      0.0006
     11  CD1       -9.4440   22.6210  -10.6330 C.ar  163  TRP163      0.0946
     12  CD2       -8.1730   20.9580  -11.4310 C.ar  163  TRP163      0.0152
     13  NE1       -8.1590   22.8210  -10.1800 N.ar  163  TRP163     -0.2442
     14  CE2       -7.3590   21.8140  -10.6550 C.ar  163  TRP163      0.0810
     15  CE3       -7.5910   19.8390  -12.0390 C.ar  163  TRP163      0.0012
     16  CZ2       -5.9930   21.5840  -10.4670 C.ar  163  TRP163      0.0191
     17  CZ3       -6.2300   19.6080  -11.8540 C.ar  163  TRP163      0.0001
     18  CH2       -5.4450   20.4800  -11.0710 C.ar  163  TRP163      0.0015
     19  N         -7.0230   13.4860  -13.9340 N.3   181  TRP181     -0.1241
     20  CA        -7.5300   14.8490  -13.8740 C.3   181  TRP181      0.1605
     21  C         -6.7510   15.7170  -14.8490 C.2   181  TRP181      0.2264
     22  O         -5.5460   15.5350  -15.0300 O.2   181  TRP181     -0.2867
     23  CB        -7.3650   15.4430  -12.4750 C.3   181  TRP181      0.0550
     24  CG        -8.4200   15.0300  -11.5060 C.ar  181  TRP181      0.0003
     25  CD1       -8.3500   14.0150  -10.5970 C.ar  181  TRP181      0.0946
     26  CD2       -9.7090   15.6300  -11.3410 C.ar  181  TRP181      0.0152
     27  NE1       -9.5150   13.9500   -9.8710 N.ar  181  TRP181     -0.2442
     28  CE2      -10.3670   14.9290  -10.3080 C.ar  181  TRP181      0.0810
     29  CE3      -10.3730   16.6950  -11.9690 C.ar  181  TRP181      0.0012
     30  CZ2      -11.6580   15.2540   -9.8840 C.ar  181  TRP181      0.0191
     31  CZ3      -11.6600   17.0200  -11.5500 C.ar  181  TRP181      0.0001
     32  CH2      -12.2880   16.2990  -10.5140 C.ar  181  TRP181      0.0015
     33  N         -6.6730   19.9810  -16.6290 N.3   183  TYR183     -0.1241
     34  CA        -7.1250   21.3470  -16.4170 C.3   183  TYR183      0.1605
     35  C         -7.1610   22.0560  -17.7650 C.2   183  TYR183      0.2264
     36  O         -6.1410   22.1590  -18.4490 O.2   183  TYR183     -0.2867
     37  CB        -6.2010   22.1150  -15.4730 C.3   183  TYR183      0.0534
     38  CG        -6.8320   23.4140  -15.0270 C.ar  183  TYR183     -0.0201
     39  CD1       -7.6620   23.4570  -13.9040 C.ar  183  TYR183     -0.0009
     40  CD2       -6.6610   24.5850  -15.7650 C.ar  183  TYR183     -0.0009
     41  CE1       -8.3080   24.6310  -13.5250 C.ar  183  TYR183      0.0417
     42  CE2       -7.3090   25.7730  -15.3950 C.ar  183  TYR183      0.0417
     43  CZ        -8.1280   25.7820  -14.2740 C.ar  183  TYR183      0.1957
     44  OH        -8.7610   26.9430  -13.8920 O.3   183  TYR183     -0.2866
     45  N         -2.5150   26.9890  -10.1060 N.3   197  VAL197     -0.1231
     46  CA        -3.9710   27.0890  -10.1670 C.3   197  VAL197      0.1692
     47  C         -4.5070   27.3500   -8.7620 C.2   197  VAL197      0.2592
     48  O         -4.1970   26.6110   -7.8280 O.2   197  VAL197     -0.2718
     49  CB        -4.5960   25.7740  -10.6960 C.3   197  VAL197      0.0266
     50  CG1       -6.1070   25.9160  -10.7980 C.3   197  VAL197      0.0020
     51  CG2       -3.9900   25.4150  -12.0470 C.3   197  VAL197      0.0020
     52  N         -5.3070   28.4030   -8.6270 N.am  198  ASN198     -0.1974
     53  CA        -5.8870   28.7690   -7.3420 C.3   198  ASN198      0.1688
     54  C         -4.8300   28.9050   -6.2520 C.2   198  ASN198      0.2292
     55  O         -5.0520   28.5090   -5.1080 O.2   198  ASN198     -0.2864
     56  CB        -6.9470   27.7500   -6.9220 C.3   198  ASN198      0.1181
     57  CG        -8.0900   27.6550   -7.9140 C.2   198  ASN198      0.2629
     58  OD1       -8.1110   28.3590   -8.9230 O.2   198  ASN198     -0.2716
     59  ND2       -9.0490   26.7810   -7.6300 N.am  198  ASN198     -0.0877
     60  N          0.6710   22.6110   -9.6520 N.3   202  TYR202     -0.1241
     61  CA         0.2700   21.2830  -10.0870 C.3   202  TYR202      0.1605
     62  C          1.1880   20.9560  -11.2560 C.2   202  TYR202      0.2264
     63  O          1.6670   21.8630  -11.9400 O.2   202  TYR202     -0.2867
     64  CB        -1.1900   21.2890  -10.5560 C.3   202  TYR202      0.0534
     65  CG        -2.1830   21.5800   -9.4510 C.ar  202  TYR202     -0.0201
     66  CD1       -2.7240   20.5500   -8.6810 C.ar  202  TYR202     -0.0009
     67  CD2       -2.5480   22.8940   -9.1500 C.ar  202  TYR202     -0.0009
     68  CE1       -3.6140   20.8190   -7.6300 C.ar  202  TYR202      0.0417
     69  CE2       -3.4280   23.1790   -8.1020 C.ar  202  TYR202      0.0417
     70  CZ        -3.9560   22.1430   -7.3480 C.ar  202  TYR202      0.1957
     71  OH        -4.8150   22.4310   -6.3120 O.3   202  TYR202     -0.2866
     72  N         -2.8040   15.2600  -14.4180 N.3   210  MET210     -0.1245
     73  CA        -2.3060   15.7930  -13.1570 C.3   210  MET210      0.1570
     74  C         -1.5260   14.7420  -12.3800 C.2   210  MET210      0.2261
     75  O         -2.0430   13.6710  -12.0720 O.2   210  MET210     -0.2867
     76  CB        -3.4770   16.2900  -12.3040 C.3   210  MET210      0.0387
     77  CG        -3.0650   16.8900  -10.9600 C.3   210  MET210      0.0595
     78  SD        -4.4690   17.1400   -9.8620 S.3   210  MET210     -0.1393
     79  CE        -4.6530   15.4540   -9.1910 C.3   210  MET210      0.0692
     80  N         -3.6130   12.7060   -3.4810 N.3   227  LYS227     -0.1231
     81  CA        -5.0030   12.7140   -3.9100 C.3   227  LYS227      0.1693
     82  C         -5.3860   13.9710   -4.6840 C.2   227  LYS227      0.2592
     83  O         -5.9920   13.8860   -5.7540 O.2   227  LYS227     -0.2718
     84  CB        -5.9280   12.5710   -2.6960 C.3   227  LYS227      0.0285
     85  CG        -7.3930   12.8850   -2.9780 C.3   227  LYS227      0.0035
     86  CD        -8.2270   12.8320   -1.6990 C.3   227  LYS227      0.0206
     87  CE        -9.6610   13.2900   -1.9410 C.3   227  LYS227      0.1093
     88  NZ       -10.3480   12.4470   -2.9620 N.3   227  LYS227     -0.1314
     89  N         -5.0160   15.1340   -4.1570 N.am  228  ASN228     -0.1974
     90  CA        -5.3940   16.3870   -4.7930 C.3   228  ASN228      0.1688
     91  C         -4.3920   17.0120   -5.7550 C.2   228  ASN228      0.2292
     92  O         -4.7090   17.9930   -6.4300 O.2   228  ASN228     -0.2864
     93  CB        -5.7980   17.3970   -3.7210 C.3   228  ASN228      0.1181
     94  CG        -6.9830   16.9180   -2.8980 C.2   228  ASN228      0.2629
     95  OD1       -7.9860   16.4570   -3.4460 O.2   228  ASN228     -0.2716
     96  ND2       -6.8770   17.0320   -1.5820 N.am  228  ASN228     -0.0877
@<TRIPOS>BOND
     1    36    35    2
     2    35    34    1
     3     1     2    1
     4    33    34    1
     5    34    37    1
     6     4     3    2
     7    40    42   ar
     8    40    38   ar
     9     2     3    1
    10    37    38    1
    11    42    43   ar
    12     3     5   am
    13    22    21    2
    14    38    39   ar
    15    21    20    1
    16    72    73    1
    17    43    44    1
    18    43    41   ar
    19     7     8    2
    20     7     6    1
    21     5     6    1
    22    19    20    1
    23    39    41   ar
    24    20    23    1
    25     6     9    1
    26    73    74    1
    27    73    76    1
    28    23    24    1
    29    74    75    2
    30    76    77    1
    31     9    10    1
    32    51    49    1
    33    15    17   ar
    34    15    12   ar
    35    29    31   ar
    36    29    26   ar
    37    63    62    2
    38    17    18   ar
    39    31    32   ar
    40    24    26   ar
    41    24    25   ar
    42    12    10   ar
    43    12    14   ar
    44    10    11   ar
    45    26    28   ar
    46    62    61    1
    47    18    16   ar
    48    77    78    1
    49    50    49    1
    50    49    46    1
    51    14    16   ar
    52    14    13   ar
    53    11    13   ar
    54    25    27   ar
    55    64    61    1
    56    64    65    1
    57    32    30   ar
    58    28    30   ar
    59    28    27   ar
    60    46    45    1
    61    46    47    1
    62    61    60    1
    63    78    79    1
    64    65    67   ar
    65    65    66   ar
    66    67    69   ar
    67    58    57    2
    68    47    52   am
    69    47    48    2
    70    66    68   ar
    71    52    53    1
    72    69    70   ar
    73    57    59   am
    74    57    56    1
    75    68    70   ar
    76    70    71    1
    77    53    56    1
    78    53    54    1
    79    92    91    2
    80    54    55    2
    81    91    90    1
    82    83    82    2
    83    90    89    1
    84    90    93    1
    85    82    89   am
    86    82    81    1
    87    81    80    1
    88    81    84    1
    89    93    94    1
    90    95    94    2
    91    85    84    1
    92    85    86    1
    93    88    87    1
    94    94    96   am
    95    87    86    1
