@<TRIPOS>MOLECULE
tmp/2x8sA00.pdb
 129 127 0 0 0
SMALL
GASTEIGER

@<TRIPOS>ATOM
      1  N         -6.9740   -1.3020   28.5420 N.3    73  TRP73      -0.1241
      2  CA        -5.7530   -2.1010   28.4840 C.3    73  TRP73       0.1605
      3  C         -6.0760   -3.6020   28.5820 C.2    73  TRP73       0.2264
      4  O         -7.2100   -4.0100   28.3170 O.2    73  TRP73      -0.2867
      5  CB        -4.7390   -1.5950   29.5130 C.3    73  TRP73       0.0550
      6  CG        -3.9760   -0.3950   28.9980 C.ar   73  TRP73       0.0003
      7  CD1       -4.3600    0.4490   27.9920 C.ar   73  TRP73       0.0946
      8  CD2       -2.7100    0.0860   29.4620 C.ar   73  TRP73       0.0152
      9  NE1       -3.4030    1.4220   27.7960 N.ar   73  TRP73      -0.2442
     10  CE2       -2.3820    1.2220   28.6890 C.ar   73  TRP73       0.0810
     11  CE3       -1.8150   -0.3390   30.4490 C.ar   73  TRP73       0.0012
     12  CZ2       -1.1970    1.9370   28.8740 C.ar   73  TRP73       0.0191
     13  CZ3       -0.6420    0.3800   30.6350 C.ar   73  TRP73       0.0001
     14  CH2       -0.3470    1.5040   29.8490 C.ar   73  TRP73       0.0015
     15  N         -1.3220    6.0870   30.3200 N.3    94  GLY94      -0.1210
     16  CA        -0.2990    5.6050   29.4110 C.3    94  GLY94       0.1956
     17  C          1.0720    6.2090   29.6140 C.2    94  GLY94       0.2612
     18  O          2.0750    5.6150   29.2130 O.2    94  GLY94      -0.2717
     19  N          1.1170    7.3870   30.2270 N.am   95  ASP95      -0.1959
     20  CA         2.3820    8.0700   30.4900 C.3    95  ASP95       0.1840
     21  C          2.7440    7.9810   31.9650 C.2    95  ASP95       0.2623
     22  O          3.7630    8.5160   32.3980 O.2    95  ASP95      -0.2715
     23  CB         2.2900    9.5370   30.0640 C.3    95  ASP95       0.1450
     24  CG         1.1770   10.2910   30.7820 C.2    95  ASP95       0.3671
     25  OD1        1.1060   11.5290   30.6340 O.co2  95  ASP95      -0.2456
     26  OD2        0.3700    9.6540   31.4950 O.co2  95  ASP95      -0.2456
     27  N          1.9020    7.2860   32.7200 N.am   96  SER96      -0.1936
     28  CA         1.9820    7.2480   34.1730 C.3    96  SER96       0.2040
     29  C          0.9630    6.2110   34.5900 C.2    96  SER96       0.2485
     30  O          0.0980    5.8530   33.7850 O.2    96  SER96      -0.2729
     31  CB         1.6030    8.6060   34.7570 C.3    96  SER96       0.2129
     32  OG         0.2840    8.9620   34.3590 O.3    96  SER96      -0.2179
     33  N          1.0570    5.7040   35.8300 N.am   97  PRO97      -0.2726
     34  CA         0.1330    4.6390   36.2590 C.3    97  PRO97       0.1402
     35  C         -1.1880    5.2100   36.7730 C.2    97  PRO97       0.2269
     36  O         -1.7030    4.7920   37.8120 O.2    97  PRO97      -0.2865
     37  CB         0.9010    3.9490   37.3870 C.3    97  PRO97       0.0296
     38  CG         1.7370    5.0560   37.9900 C.3    97  PRO97       0.0237
     39  CD         2.1030    5.9800   36.8380 C.3    97  PRO97       0.0939
     40  N          4.4630    5.1400   43.0650 N.3   136  ALA136     -0.1245
     41  CA         4.6580    4.2430   41.9260 C.3   136  ALA136      0.1562
     42  C          5.9560    3.4450   41.9490 C.2   136  ALA136      0.2260
     43  O          6.1220    2.5490   41.1350 O.2   136  ALA136     -0.2867
     44  CB         4.5260    4.9970   40.6040 C.3   136  ALA136      0.0290
     45  N          0.8010   -0.4690   39.0850 N.3   141  ASN141     -0.1240
     46  CA        -0.1410    0.0760   38.1360 C.3   141  ASN141      0.1653
     47  C         -1.2510   -0.9710   38.0700 C.2   141  ASN141      0.2266
     48  O         -0.9700   -2.1480   37.8380 O.2   141  ASN141     -0.2867
     49  CB         0.5410    0.2240   36.7760 C.3   141  ASN141      0.1155
     50  CG        -0.2820    1.0310   35.8030 C.2   141  ASN141      0.2627
     51  OD1       -1.3200    1.5890   36.1700 O.2   141  ASN141     -0.2716
     52  ND2        0.1790    1.1120   34.5610 N.am  141  ASN141     -0.0877
     53  N          1.9180   -3.8940   35.9780 N.3   161  SER161     -0.1202
     54  CA         2.7700   -3.5040   34.8640 C.3   161  SER161      0.2020
     55  C          3.7110   -2.4070   35.3080 C.2   161  SER161      0.2619
     56  O          3.2630   -1.3410   35.7330 O.2   161  SER161     -0.2717
     57  CB         1.9370   -2.9820   33.6940 C.3   161  SER161      0.2103
     58  OG         2.7950   -2.4120   32.7110 O.3   161  SER161     -0.2182
     59  N          5.0130   -2.6530   35.1810 N.am  162  TYR162     -0.1961
     60  CA         6.0180   -1.6520   35.5320 C.3   162  TYR162      0.1771
     61  C          5.7380   -1.1100   36.9480 C.2   162  TYR162      0.2620
     62  O          5.3910   -1.8810   37.8400 O.2   162  TYR162     -0.2715
     63  CB         6.0470   -0.5160   34.4880 C.3   162  TYR162      0.0574
     64  CG         6.5420   -0.8710   33.0810 C.ar  162  TYR162     -0.0198
     65  CD1        6.2290   -2.0840   32.4680 C.ar  162  TYR162     -0.0009
     66  CD2        7.2970    0.0460   32.3590 C.ar  162  TYR162     -0.0009
     67  CE1        6.6780   -2.3730   31.1740 C.ar  162  TYR162      0.0417
     68  CE2        7.7430   -0.2340   31.0780 C.ar  162  TYR162      0.0417
     69  CZ         7.4250   -1.4390   30.4900 C.ar  162  TYR162      0.1957
     70  OH         7.8770   -1.7030   29.2120 O.3   162  TYR162     -0.2866
     71  N          5.8930    0.1970   37.1560 N.am  163  SER163     -0.1950
     72  CA         5.6510    0.7890   38.4730 C.3   163  SER163      0.1924
     73  C          6.2650   -0.0300   39.6230 C.2   163  SER163      0.2314
     74  O          7.4450   -0.3790   39.5780 O.2   163  SER163     -0.2863
     75  CB         4.1530    1.0380   38.6770 C.3   163  SER163      0.2116
     76  OG         3.6820    2.0230   37.7550 O.3   163  SER163     -0.2180
     77  N          9.9760    0.7660   38.8820 N.3   193  HIS193     -0.1241
     78  CA         9.6940    0.9580   37.4690 C.3   193  HIS193      0.1621
     79  C         10.4930   -0.0220   36.6150 C.2   193  HIS193      0.2264
     80  O         11.0580    0.3510   35.5870 O.2   193  HIS193     -0.2867
     81  CB         9.9710    2.4040   37.0530 C.3   193  HIS193      0.0745
     82  CG         9.1810    3.4210   37.8160 C.ar  193  HIS193      0.0817
     83  ND1        7.8530    3.6800   37.5550 N.ar  193  HIS193     -0.2268
     84  CD2        9.5380    4.2550   38.8220 C.ar  193  HIS193      0.1154
     85  CE1        7.4240    4.6320   38.3660 C.ar  193  HIS193      0.1986
     86  NE2        8.4260    4.9980   39.1460 N.ar  193  HIS193     -0.2212
     87  N          5.7400   -6.9260   33.1400 N.3   197  GLU197     -0.1245
     88  CA         4.2880   -6.7590   33.1270 C.3   197  GLU197      0.1567
     89  C          3.5720   -8.0120   32.6460 C.2   197  GLU197      0.2260
     90  O          4.1990   -8.9670   32.1650 O.2   197  GLU197     -0.2867
     91  CB         3.9000   -5.5640   32.2510 C.3   197  GLU197      0.0388
     92  CG         4.1320   -5.8120   30.7460 C.3   197  GLU197      0.1160
     93  CD         3.8870   -4.5790   29.8960 C.2   197  GLU197      0.3649
     94  OE1        3.4230   -3.5510   30.4350 O.co2 197  GLU197     -0.2457
     95  OE2        4.1690   -4.6180   28.6800 O.co2 197  GLU197     -0.2457
     96  N         10.2480   -3.9380   26.7870 N.3   218  GLY218     -0.1210
     97  CA         9.1840   -3.1960   26.1690 C.3   218  GLY218      0.1956
     98  C          8.5170   -3.8700   24.9850 C.2   218  GLY218      0.2611
     99  O          9.1150   -4.5610   24.2660 O.2   218  GLY218     -0.2717
    100  N          7.2320   -3.6200   24.8370 N.am  219  LEU219     -0.1979
    101  CA         6.4520   -4.2710   23.8130 C.3   219  LEU219      0.1596
    102  C          6.7620   -3.9180   22.3510 C.2   219  LEU219      0.2287
    103  O          6.4610   -4.6610   21.5150 O.2   219  LEU219     -0.2864
    104  CB         4.9600   -4.0560   24.0400 C.3   219  LEU219      0.0297
    105  CG         4.4980   -2.5980   23.9680 C.3   219  LEU219      0.0022
    106  CD1        4.0020   -2.2830   22.5990 C.3   219  LEU219      0.0001
    107  CD2        3.4240   -2.2470   24.9590 C.3   219  LEU219      0.0001
    108  N         14.7640    4.3120   36.5670 N.3   257  PHE257     -0.1227
    109  CA        13.6010    3.9220   35.7680 C.3   257  PHE257      0.1736
    110  C         14.0070    2.9500   34.6620 C.2   257  PHE257      0.2595
    111  O         14.9970    3.1700   33.9630 O.2   257  PHE257     -0.2718
    112  CB        12.9640    5.1440   35.1020 C.3   257  PHE257      0.0547
    113  CG        12.2300    6.0490   36.0470 C.ar  257  PHE257     -0.0202
    114  CD1       12.9220    6.8580   36.9320 C.ar  257  PHE257     -0.0042
    115  CD2       10.8460    6.1080   36.0310 C.ar  257  PHE257     -0.0042
    116  CE1       12.2460    7.7000   37.7950 C.ar  257  PHE257     -0.0003
    117  CE2       10.1640    6.9480   36.8930 C.ar  257  PHE257     -0.0003
    118  CZ        10.8670    7.7450   37.7750 C.ar  257  PHE257     -0.0000
    119  N         13.2250    1.8880   34.4950 N.am  258  PHE258     -0.1976
    120  CA        13.4210    0.9480   33.3950 C.3   258  PHE258      0.1639
    121  C         14.8380    0.3860   33.3970 C.2   258  PHE258      0.2290
    122  O         15.4700    0.2570   32.3510 O.2   258  PHE258     -0.2864
    123  CB        13.0920    1.6170   32.0570 C.3   258  PHE258      0.0560
    124  CG        11.8880    2.5220   32.1160 C.ar  258  PHE258     -0.0200
    125  CD1       10.7010    2.0880   32.6840 C.ar  258  PHE258     -0.0042
    126  CD2       11.9500    3.8110   31.6110 C.ar  258  PHE258     -0.0042
    127  CE1        9.5940    2.9220   32.7420 C.ar  258  PHE258     -0.0003
    128  CE2       10.8450    4.6520   31.6700 C.ar  258  PHE258     -0.0003
    129  CZ         9.6670    4.2050   32.2340 C.ar  258  PHE258     -0.0000
@<TRIPOS>BOND
     1   103   102    2
     2   102   101    1
     3   106   105    1
     4   101   104    1
     5   101   100    1
     6   105   104    1
     7   105   107    1
     8    99    98    2
     9   100    98   am
    10    98    97    1
    11    97    96    1
    12     9     7   ar
    13     9    10   ar
    14     7     6   ar
    15     4     3    2
    16     2     1    1
    17     2     3    1
    18     2     5    1
    19    95    93   ar
    20    10    12   ar
    21    10     8   ar
    22    12    14   ar
    23     6     8   ar
    24     6     5    1
    25    70    69    1
    26    18    17    2
    27    16    17    1
    28    16    15    1
    29     8    11   ar
    30    17    19   am
    31    14    13   ar
    32    93    94   ar
    33    93    92    1
    34    23    20    1
    35    23    24    1
    36    19    20    1
    37    11    13   ar
    38    69    68   ar
    39    69    67   ar
    40    20    21    1
    41    25    24   ar
    42    92    91    1
    43    24    26   ar
    44    68    66   ar
    45    67    65   ar
    46   126   128   ar
    47   126   124   ar
    48   128   129   ar
    49    21    22    2
    50    21    27   am
    51   123   124    1
    52   123   120    1
    53   124   125   ar
    54    90    89    2
    55   129   127   ar
    56    91    88    1
    57   122   121    2
    58    66    64   ar
    59    65    64   ar
    60    89    88    1
    61   125   127   ar
    62    58    57    1
    63    27    28    1
    64    64    63    1
    65    88    87    1
    66   120   121    1
    67   120   119    1
    68    57    54    1
    69    30    29    2
    70   111   110    2
    71    28    29    1
    72    28    31    1
    73    32    31    1
    74    63    60    1
    75   119   110   am
    76    52    50   am
    77    29    33   am
    78   110   109    1
    79    54    55    1
    80    54    53    1
    81   112   109    1
    82   112   113    1
    83    59    55   am
    84    59    60    1
    85    55    56    2
    86    60    61    1
    87    80    79    2
    88   109   108    1
    89    50    51    2
    90    50    49    1
    91    33    34    1
    92    33    39    1
    93   115   113   ar
    94   115   117   ar
    95   113   114   ar
    96    34    35    1
    97    34    37    1
    98    79    78    1
    99    35    36    2
   100    49    46    1
   101    39    38    1
   102   117   118   ar
   103   114   116   ar
   104    61    71   am
   105    61    62    2
   106    81    78    1
   107    81    82    1
   108    71    72    1
   109    37    38    1
   110    78    77    1
   111    83    82   ar
   112    83    85   ar
   113    76    75    1
   114   118   116   ar
   115    82    84   ar
   116    48    47    2
   117    47    46    1
   118    46    45    1
   119    85    86   ar
   120    72    75    1
   121    72    73    1
   122    84    86   ar
   123    74    73    2
   124    44    41    1
   125    43    42    2
   126    41    42    1
   127    41    40    1
