@<TRIPOS>MOLECULE
tmp/2x8tB00.pdb
 102 97 0 0 0
SMALL
GASTEIGER

@<TRIPOS>ATOM
      1  N        -23.4760   -5.0240   75.9990 N.3    10  HIS10      -0.1226
      2  CA       -22.5770   -5.1970   74.8640 C.3    10  HIS10       0.1752
      3  C        -23.1830   -4.4860   73.6520 C.2    10  HIS10       0.2596
      4  O        -24.3980   -4.5480   73.4370 O.2    10  HIS10      -0.2718
      5  CB       -22.3810   -6.6980   74.5790 C.3    10  HIS10       0.0759
      6  CG       -21.0220   -7.0500   74.0550 C.ar   10  HIS10       0.0818
      7  ND1      -20.7710   -7.2270   72.7080 N.ar   10  HIS10      -0.2268
      8  CD2      -19.8500   -7.2860   74.6910 C.ar   10  HIS10       0.1154
      9  CE1      -19.4970   -7.5380   72.5390 C.ar   10  HIS10       0.1986
     10  NE2      -18.9160   -7.5880   73.7260 N.ar   10  HIS10      -0.2212
     11  N        -22.3440   -3.8010   72.8740 N.am   11  ASP11      -0.1974
     12  CA       -22.7980   -3.0810   71.6760 C.3    11  ASP11       0.1709
     13  C        -23.9120   -2.0730   71.9710 C.2    11  ASP11       0.2293
     14  O        -24.9870   -2.1200   71.3600 O.2    11  ASP11      -0.2864
     15  CB       -23.2550   -4.0970   70.6190 C.3    11  ASP11       0.1436
     16  CG       -22.3240   -5.2960   70.5320 C.2    11  ASP11       0.3671
     17  OD1      -21.1540   -5.1170   70.1580 O.co2  11  ASP11      -0.2456
     18  OD2      -22.7560   -6.4300   70.8510 O.co2  11  ASP11      -0.2456
     19  N        -26.6590   -6.1220   72.6760 N.3    26  SER26      -0.1217
     20  CA       -26.8720   -7.5260   72.3470 C.3    26  SER26       0.1889
     21  C        -27.5330   -8.2460   73.5170 C.2    26  SER26       0.2288
     22  O        -27.5910   -7.7170   74.6250 O.2    26  SER26      -0.2866
     23  CB       -25.5390   -8.2080   72.0050 C.3    26  SER26       0.2089
     24  OG       -25.0190   -7.6960   70.7950 O.3    26  SER26      -0.2183
     25  N        -28.2980  -10.4690   68.6250 N.3    73  TRP73      -0.1227
     26  CA       -27.1330   -9.5960   68.5160 C.3    73  TRP73       0.1737
     27  C        -27.5080   -8.1210   68.7150 C.2    73  TRP73       0.2595
     28  O        -28.5100   -7.8190   69.3430 O.2    73  TRP73      -0.2718
     29  CB       -26.3640   -9.8750   67.2130 C.3    73  TRP73       0.0564
     30  CG       -25.4860  -11.0940   67.3670 C.ar   73  TRP73       0.0003
     31  CD1      -25.5680  -12.0210   68.3600 C.ar   73  TRP73       0.0946
     32  CD2      -24.4150  -11.5230   66.5050 C.ar   73  TRP73       0.0152
     33  NE1      -24.6110  -12.9930   68.1830 N.ar   73  TRP73      -0.2442
     34  CE2      -23.8880  -12.7090   67.0540 C.ar   73  TRP73       0.0810
     35  CE3      -23.8420  -11.0080   65.3380 C.ar   73  TRP73       0.0012
     36  CZ2      -22.8220  -13.4000   66.4700 C.ar   73  TRP73       0.0191
     37  CZ3      -22.7770  -11.6970   64.7570 C.ar   73  TRP73       0.0001
     38  CH2      -22.2840  -12.8760   65.3240 C.ar   73  TRP73       0.0015
     39  N        -26.6900   -7.2040   68.2100 N.am   74  ALA74      -0.1980
     40  CA       -26.7640   -5.8050   68.6520 C.3    74  ALA74       0.1597
     41  C        -27.9880   -5.0420   68.1320 C.2    74  ALA74       0.2287
     42  O        -28.0610   -4.7090   66.9520 O.2    74  ALA74      -0.2864
     43  CB       -25.4710   -5.0660   68.2720 C.3    74  ALA74       0.0319
     44  N        -26.7560   -7.9290   60.3720 N.3   143  VAL143     -0.1231
     45  CA       -26.7070   -7.6260   61.7960 C.3   143  VAL143      0.1692
     46  C        -26.2420   -6.1800   62.0040 C.2   143  VAL143      0.2592
     47  O        -25.9320   -5.4750   61.0360 O.2   143  VAL143     -0.2718
     48  CB       -25.7310   -8.5870   62.5280 C.3   143  VAL143      0.0266
     49  CG1      -26.1650  -10.0390   62.3430 C.3   143  VAL143      0.0020
     50  CG2      -24.3150   -8.3930   61.9920 C.3   143  VAL143      0.0020
     51  N        -26.2150   -5.7370   63.2620 N.am  144  ASP144     -0.1974
     52  CA       -25.6620   -4.4290   63.6260 C.3   144  ASP144      0.1709
     53  C        -26.3630   -3.2220   62.9970 C.2   144  ASP144      0.2293
     54  O        -25.7100   -2.3340   62.4560 O.2   144  ASP144     -0.2864
     55  CB       -24.1560   -4.3750   63.3050 C.3   144  ASP144      0.1436
     56  CG       -23.3090   -5.1290   64.3210 C.2   144  ASP144      0.3671
     57  OD1      -23.7910   -5.3650   65.4400 O.co2 144  ASP144     -0.2456
     58  OD2      -22.1540   -5.4890   64.0100 O.co2 144  ASP144     -0.2456
     59  N        -21.6720   -6.5050   59.3360 N.3   161  SER161     -0.1217
     60  CA       -20.5500   -6.9890   60.1260 C.3   161  SER161      0.1889
     61  C        -19.7600   -7.9930   59.3020 C.2   161  SER161      0.2288
     62  O        -20.3140   -9.0010   58.8560 O.2   161  SER161     -0.2866
     63  CB       -21.0420   -7.6740   61.4000 C.3   161  SER161      0.2089
     64  OG       -19.9780   -8.3610   62.0230 O.3   161  SER161     -0.2183
     65  N        -17.3540   -3.7060   61.5800 N.3   197  GLU197     -0.1231
     66  CA       -18.7350   -3.9520   61.9530 C.3   197  GLU197      0.1699
     67  C        -19.2700   -2.8060   62.8050 C.2   197  GLU197      0.2592
     68  O        -18.5530   -1.8540   63.0990 O.2   197  GLU197     -0.2718
     69  CB       -18.8170   -5.2730   62.7220 C.3   197  GLU197      0.0402
     70  CG       -18.0890   -5.2530   64.0800 C.3   197  GLU197      0.1161
     71  CD       -18.1110   -6.6040   64.7760 C.2   197  GLU197      0.3649
     72  OE1      -18.5640   -7.5960   64.1560 O.co2 197  GLU197     -0.2457
     73  OE2      -17.6620   -6.6820   65.9380 O.co2 197  GLU197     -0.2457
     74  N        -20.5400   -2.8980   63.1850 N.am  198  GLY198     -0.1957
     75  CA       -21.1190   -1.9620   64.1230 C.3   198  GLY198      0.1869
     76  C        -21.2360   -0.5200   63.6430 C.2   198  GLY198      0.2309
     77  O        -20.9570    0.4090   64.3990 O.2   198  GLY198     -0.2863
     78  N        -13.7230   -8.1510   68.8070 N.3   219  LEU219     -0.1245
     79  CA       -14.1700   -7.5440   70.0600 C.3   219  LEU219      0.1561
     80  C        -13.5240   -8.1430   71.3070 C.2   219  LEU219      0.2260
     81  O        -13.5570   -7.5370   72.3820 O.2   219  LEU219     -0.2867
     82  CB       -15.7090   -7.5540   70.1750 C.3   219  LEU219      0.0270
     83  CG       -16.5570   -8.8200   70.3750 C.3   219  LEU219      0.0019
     84  CD1      -16.6770   -9.6330   69.0980 C.3   219  LEU219      0.0001
     85  CD2      -16.0930   -9.6870   71.5470 C.3   219  LEU219      0.0001
     86  N         -9.9370   -4.6200   68.8720 N.3   225  TYR225     -0.1241
     87  CA       -11.1040   -3.7650   68.6330 C.3   225  TYR225      0.1605
     88  C        -10.7230   -2.2900   68.8130 C.2   225  TYR225      0.2264
     89  O        -10.0190   -1.9320   69.7590 O.2   225  TYR225     -0.2867
     90  CB       -12.2100   -4.1300   69.6190 C.3   225  TYR225      0.0534
     91  CG       -13.6100   -4.2760   69.0470 C.ar  225  TYR225     -0.0201
     92  CD1      -13.8270   -4.8910   67.8100 C.ar  225  TYR225     -0.0009
     93  CD2      -14.7240   -3.8530   69.7810 C.ar  225  TYR225     -0.0009
     94  CE1      -15.1200   -5.0590   67.3140 C.ar  225  TYR225      0.0417
     95  CE2      -16.0000   -4.0210   69.3000 C.ar  225  TYR225      0.0417
     96  CZ       -16.1940   -4.6310   68.0620 C.ar  225  TYR225      0.1957
     97  OH       -17.4610   -4.8170   67.5750 O.3   225  TYR225     -0.2866
     98  N        -17.8470   -0.9730   69.2850 N.3   291  ALA291     -0.1245
     99  CA       -19.2740   -1.2060   69.1100 C.3   291  ALA291      0.1562
    100  C        -20.0730    0.0290   69.5240 C.2   291  ALA291      0.2260
    101  O        -21.0840   -0.0780   70.2060 O.2   291  ALA291     -0.2867
    102  CB       -19.7090   -2.4360   69.9160 C.3   291  ALA291      0.0290
@<TRIPOS>BOND
     1    62    61    2
     2    61    60    1
     3    59    60    1
     4    60    63    1
     5    44    45    1
     6    47    46    2
     7    63    64    1
     8    65    66    1
     9    45    46    1
    10    45    48    1
    11    66    69    1
    12    66    67    1
    13    50    48    1
    14    46    51   am
    15    49    48    1
    16    54    53    2
    17    69    70    1
    18    67    68    2
    19    67    74   am
    20    53    52    1
    21    74    75    1
    22    51    52    1
    23    55    52    1
    24    55    56    1
    25    76    75    1
    26    76    77    2
    27    58    56   ar
    28    70    71    1
    29    72    71   ar
    30    56    57   ar
    31    37    38   ar
    32    37    35   ar
    33    71    73   ar
    34    38    36   ar
    35    35    32   ar
    36    36    34   ar
    37    32    34   ar
    38    32    30   ar
    39    42    41    2
    40    34    33   ar
    41    29    30    1
    42    29    26    1
    43    94    92   ar
    44    94    96   ar
    45    30    31   ar
    46    97    96    1
    47    92    91   ar
    48    96    95   ar
    49    41    40    1
    50    33    31   ar
    51    39    40    1
    52    39    27   am
    53    43    40    1
    54    26    25    1
    55    26    27    1
    56    87    88    1
    57    87    86    1
    58    87    90    1
    59    27    28    2
    60    78    79    1
    61    88    89    2
    62    91    90    1
    63    91    93   ar
    64    84    83    1
    65    99    98    1
    66    99   100    1
    67    99   102    1
    68    95    93   ar
    69   100   101    2
    70    79    82    1
    71    79    80    1
    72    17    16   ar
    73    82    83    1
    74    83    85    1
    75    16    15    1
    76    16    18   ar
    77    15    12    1
    78    24    23    1
    79    80    81    2
    80    14    13    2
    81    12    13    1
    82    12    11    1
    83    23    20    1
    84    20    19    1
    85    20    21    1
    86     9     7   ar
    87     9    10   ar
    88     7     6   ar
    89    11     3   am
    90     4     3    2
    91    21    22    2
    92     3     2    1
    93    10     8   ar
    94     6     5    1
    95     6     8   ar
    96     5     2    1
    97     2     1    1
