@<TRIPOS>MOLECULE
tmp/2x8tA00.pdb
 109 109 0 0 0
SMALL
GASTEIGER

@<TRIPOS>ATOM
      1  N          4.9170    1.6650   27.4530 N.3    73  TRP73      -0.1241
      2  CA         3.7360    2.4980   27.3020 C.3    73  TRP73       0.1605
      3  C          4.1110    3.9770   27.4240 C.2    73  TRP73       0.2264
      4  O          5.2580    4.3510   27.1620 O.2    73  TRP73      -0.2867
      5  CB         2.6410    2.0370   28.2630 C.3    73  TRP73       0.0550
      6  CG         1.9240    0.8290   27.7180 C.ar   73  TRP73       0.0003
      7  CD1        2.3050    0.0690   26.6480 C.ar   73  TRP73       0.0946
      8  CD2        0.7120    0.2410   28.2150 C.ar   73  TRP73       0.0152
      9  NE1        1.4010   -0.9440   26.4380 N.ar   73  TRP73      -0.2442
     10  CE2        0.4190   -0.8660   27.3910 C.ar   73  TRP73       0.0810
     11  CE3       -0.1480    0.5410   29.2780 C.ar   73  TRP73       0.0012
     12  CZ2       -0.7010   -1.6690   27.5940 C.ar   73  TRP73       0.0191
     13  CZ3       -1.2650   -0.2610   29.4750 C.ar   73  TRP73       0.0001
     14  CH2       -1.5290   -1.3480   28.6360 C.ar   73  TRP73       0.0015
     15  N          3.5510   -2.4840   30.4620 N.3    92  CYS92      -0.1235
     16  CA         2.3840   -3.1950   30.9750 C.3    92  CYS92       0.1677
     17  C          2.1060   -4.3930   30.0910 C.2    92  CYS92       0.2270
     18  O          2.2140   -4.3090   28.8670 O.2    92  CYS92      -0.2867
     19  CB         1.1650   -2.2660   30.9840 C.3    92  CYS92       0.0956
     20  SG        -0.3800   -3.0790   31.4130 S.3    92  CYS92      -0.0801
     21  N         -0.6510   -5.7000   29.3160 N.3    94  GLY94      -0.1210
     22  CA        -1.6760   -5.2920   28.3740 C.3    94  GLY94       0.1956
     23  C         -3.0450   -5.8880   28.6260 C.2    94  GLY94       0.2612
     24  O         -4.0510   -5.2690   28.2930 O.2    94  GLY94      -0.2717
     25  N         -3.0820   -7.0830   29.2070 N.am   95  ASP95      -0.1959
     26  CA        -4.3410   -7.7730   29.4820 C.3    95  ASP95       0.1840
     27  C         -4.6680   -7.6620   30.9640 C.2    95  ASP95       0.2623
     28  O         -5.7190   -8.1140   31.4220 O.2    95  ASP95      -0.2715
     29  CB        -4.2490   -9.2510   29.0650 C.3    95  ASP95       0.1450
     30  CG        -3.1440  -10.0100   29.8110 C.2    95  ASP95       0.3671
     31  OD1       -2.3850   -9.3870   30.5860 O.co2  95  ASP95      -0.2456
     32  OD2       -3.0290  -11.2420   29.6210 O.co2  95  ASP95      -0.2456
     33  N         -3.7450   -7.0550   31.7030 N.am   96  SER96      -0.1936
     34  CA        -3.8540   -6.8820   33.1470 C.3    96  SER96       0.2040
     35  C         -2.8160   -5.8380   33.5590 C.2    96  SER96       0.2485
     36  O         -1.9010   -5.5490   32.7910 O.2    96  SER96      -0.2729
     37  CB        -3.5880   -8.2060   33.8590 C.3    96  SER96       0.2129
     38  OG        -2.2830   -8.6690   33.5600 O.3    96  SER96      -0.2179
     39  N         -2.9580   -5.2570   34.7640 N.am   97  PRO97      -0.2726
     40  CA        -2.0420   -4.1970   35.2190 C.3    97  PRO97       0.1402
     41  C         -0.7270   -4.7700   35.7420 C.2    97  PRO97       0.2269
     42  O         -0.2560   -4.3800   36.8100 O.2    97  PRO97      -0.2865
     43  CB        -2.7900   -3.5420   36.3820 C.3    97  PRO97       0.0296
     44  CG        -3.9510   -4.4360   36.7100 C.3    97  PRO97       0.0237
     45  CD        -3.9680   -5.6060   35.7800 C.3    97  PRO97       0.0939
     46  N         -2.7400    0.9620   38.0600 N.3   141  ASN141     -0.1240
     47  CA        -1.8140    0.4010   37.1120 C.3   141  ASN141      0.1653
     48  C         -0.6970    1.4330   37.0200 C.2   141  ASN141      0.2266
     49  O         -0.9610    2.6040   36.7530 O.2   141  ASN141     -0.2867
     50  CB        -2.4980    0.2190   35.7610 C.3   141  ASN141      0.1155
     51  CG        -1.6690   -0.6040   34.8070 C.2   141  ASN141      0.2627
     52  OD1       -0.5830   -1.0650   35.1670 O.2   141  ASN141     -0.2716
     53  ND2       -2.1570   -0.7740   33.5750 N.am  141  ASN141     -0.0877
     54  N         -3.9180    4.3520   35.0200 N.3   161  SER161     -0.1202
     55  CA        -4.7680    4.0030   33.8870 C.3   161  SER161      0.2020
     56  C         -5.7050    2.8840   34.3000 C.2   161  SER161      0.2619
     57  O         -5.2450    1.8100   34.7130 O.2   161  SER161     -0.2717
     58  CB        -3.9210    3.5190   32.7200 C.3   161  SER161      0.2103
     59  OG        -4.7420    2.8820   31.7620 O.3   161  SER161     -0.2182
     60  N         -7.0020    3.1200   34.1610 N.am  162  TYR162     -0.1961
     61  CA        -7.9980    2.1610   34.5580 C.3   162  TYR162      0.1771
     62  C         -7.6930    1.6310   35.9560 C.2   162  TYR162      0.2620
     63  O         -7.3800    2.4030   36.8020 O.2   162  TYR162     -0.2715
     64  CB        -8.0950    0.9860   33.5760 C.3   162  TYR162      0.0574
     65  CG        -8.5910    1.3090   32.1860 C.ar  162  TYR162     -0.0198
     66  CD1       -9.4250    0.4450   31.5130 C.ar  162  TYR162     -0.0009
     67  CD2       -8.1870    2.4290   31.5410 C.ar  162  TYR162     -0.0009
     68  CE1       -9.8460    0.7010   30.2590 C.ar  162  TYR162      0.0417
     69  CE2       -8.6160    2.7110   30.2740 C.ar  162  TYR162      0.0417
     70  CZ        -9.4440    1.8420   29.6270 C.ar  162  TYR162      0.1957
     71  OH        -9.8660    2.0600   28.3410 O.3   162  TYR162     -0.2866
     72  N         -7.7990    0.3100   36.1310 N.am  163  SER163     -0.1950
     73  CA        -7.6150   -0.2760   37.4660 C.3   163  SER163      0.1924
     74  C         -8.2020    0.5800   38.6080 C.2   163  SER163      0.2314
     75  O         -9.3650    1.0020   38.5570 O.2   163  SER163     -0.2863
     76  CB        -6.1400   -0.5790   37.7200 C.3   163  SER163      0.2116
     77  OG        -5.6850   -1.5500   36.7810 O.3   163  SER163     -0.2180
     78  N        -11.8820   -0.2440   37.8730 N.3   193  HIS193     -0.1241
     79  CA       -11.6280   -0.3800   36.4460 C.3   193  HIS193      0.1621
     80  C        -12.4560    0.6190   35.6270 C.2   193  HIS193      0.2264
     81  O        -13.0750    0.2540   34.6290 O.2   193  HIS193     -0.2867
     82  CB       -11.9200   -1.8130   36.0050 C.3   193  HIS193      0.0745
     83  CG       -11.1500   -2.8420   36.7710 C.ar  193  HIS193      0.0817
     84  ND1       -9.8300   -3.1380   36.5010 N.ar  193  HIS193     -0.2268
     85  CD2      -11.4980   -3.6170   37.8260 C.ar  193  HIS193      0.1154
     86  CE1       -9.4050   -4.0630   37.3410 C.ar  193  HIS193      0.1986
     87  NE2      -10.4010   -4.3730   38.1570 N.ar  193  HIS193     -0.2212
     88  N        -16.7300   -3.7380   35.7360 N.3   257  PHE257     -0.1227
     89  CA       -15.5650   -3.2820   34.9770 C.3   257  PHE257      0.1736
     90  C        -16.0100   -2.3410   33.8540 C.2   257  PHE257      0.2595
     91  O        -17.0510   -2.5480   33.2420 O.2   257  PHE257     -0.2718
     92  CB       -14.8360   -4.4670   34.3360 C.3   257  PHE257      0.0547
     93  CG       -14.4810   -5.5600   35.3000 C.ar  257  PHE257     -0.0202
     94  CD1      -15.4530   -6.4290   35.7770 C.ar  257  PHE257     -0.0042
     95  CD2      -13.1730   -5.7270   35.7220 C.ar  257  PHE257     -0.0042
     96  CE1      -15.1270   -7.4390   36.6680 C.ar  257  PHE257     -0.0003
     97  CE2      -12.8400   -6.7370   36.6110 C.ar  257  PHE257     -0.0003
     98  CZ       -13.8200   -7.5940   37.0860 C.ar  257  PHE257     -0.0000
     99  N        -15.2110   -1.3150   33.5820 N.am  258  PHE258     -0.1976
    100  CA       -15.4650   -0.4030   32.4710 C.3   258  PHE258      0.1639
    101  C        -16.8760    0.1750   32.4980 C.2   258  PHE258      0.2290
    102  O        -17.5360    0.2580   31.4640 O.2   258  PHE258     -0.2864
    103  CB       -15.2270   -1.0880   31.1290 C.3   258  PHE258      0.0560
    104  CG       -13.9760   -1.9140   31.0770 C.ar  258  PHE258     -0.0200
    105  CD1      -12.8190   -1.5040   31.7300 C.ar  258  PHE258     -0.0042
    106  CD2      -13.9470   -3.0910   30.3450 C.ar  258  PHE258     -0.0042
    107  CE1      -11.6600   -2.2700   31.6720 C.ar  258  PHE258     -0.0003
    108  CE2      -12.7880   -3.8620   30.2830 C.ar  258  PHE258     -0.0003
    109  CZ       -11.6480   -3.4490   30.9450 C.ar  258  PHE258     -0.0000
@<TRIPOS>BOND
     1     9     7   ar
     2     9    10   ar
     3     7     6   ar
     4     4     3    2
     5     2     3    1
     6     2     1    1
     7     2     5    1
     8    10    12   ar
     9    10     8   ar
    10    12    14   ar
    11     6     8   ar
    12     6     5    1
    13     8    11   ar
    14    24    23    2
    15    71    70    1
    16    22    23    1
    17    22    21    1
    18    23    25   am
    19    14    13   ar
    20    18    17    2
    21    29    26    1
    22    29    30    1
    23    25    26    1
    24    11    13   ar
    25    26    27    1
    26    32    30   ar
    27    70    68   ar
    28    70    69   ar
    29    30    31   ar
    30    17    16    1
    31    68    66   ar
    32    69    67   ar
    33   108   106   ar
    34   108   109   ar
    35   106   104   ar
    36    15    16    1
    37   109   107   ar
    38    27    28    2
    39    27    33   am
    40    16    19    1
    41    19    20    1
    42   104   103    1
    43   104   105   ar
    44   103   100    1
    45   102   101    2
    46    66    65   ar
    47    67    65   ar
    48   107   105   ar
    49    33    34    1
    50    59    58    1
    51    65    64    1
    52   100   101    1
    53   100    99    1
    54    58    55    1
    55    36    35    2
    56    34    35    1
    57    34    37    1
    58    91    90    2
    59    35    39   am
    60    38    37    1
    61    53    51   am
    62    64    61    1
    63    99    90   am
    64    90    89    1
    65    55    56    1
    66    55    54    1
    67    60    56   am
    68    60    61    1
    69    56    57    2
    70    92    89    1
    71    92    93    1
    72    61    62    1
    73    81    80    2
    74    39    40    1
    75    39    45    1
    76    51    52    2
    77    51    50    1
    78    89    88    1
    79    40    41    1
    80    40    43    1
    81    93    95   ar
    82    93    94   ar
    83    80    79    1
    84    95    97   ar
    85    41    42    2
    86    50    47    1
    87    94    96   ar
    88    45    44    1
    89    62    72   am
    90    62    63    2
    91    82    79    1
    92    82    83    1
    93    72    73    1
    94    43    44    1
    95    79    78    1
    96    84    83   ar
    97    84    86   ar
    98    97    98   ar
    99    96    98   ar
   100    49    48    2
   101    83    85   ar
   102    77    76    1
   103    48    47    1
   104    47    46    1
   105    86    87   ar
   106    73    76    1
   107    73    74    1
   108    85    87   ar
   109    75    74    2
