@<TRIPOS>MOLECULE
tmp/2x8uB00.pdb
 132 125 0 0 0
SMALL
GASTEIGER

@<TRIPOS>ATOM
      1  N         -6.3180   19.8180  -21.4770 N.3    52  TYR52      -0.1241
      2  CA        -5.5890   20.3110  -22.6430 C.3    52  TYR52       0.1605
      3  C         -4.5080   19.3280  -23.0970 C.2    52  TYR52       0.2264
      4  O         -3.4940   19.7270  -23.6800 O.2    52  TYR52      -0.2867
      5  CB        -5.0000   21.7000  -22.3620 C.3    52  TYR52       0.0534
      6  CG        -6.0680   22.7660  -22.1390 C.ar   52  TYR52      -0.0201
      7  CD1       -7.1860   22.8460  -22.9670 C.ar   52  TYR52      -0.0009
      8  CD2       -5.9480   23.6950  -21.1150 C.ar   52  TYR52      -0.0009
      9  CE1       -8.1670   23.8170  -22.7660 C.ar   52  TYR52       0.0417
     10  CE2       -6.9200   24.6810  -20.9130 C.ar   52  TYR52       0.0417
     11  CZ        -8.0250   24.7300  -21.7400 C.ar   52  TYR52       0.1957
     12  OH        -8.9960   25.6760  -21.5430 O.3    52  TYR52      -0.2866
     13  N          7.3040   28.1200  -16.5280 N.3   112  THR112     -0.1203
     14  CA         5.8790   27.9970  -16.8770 C.3   112  THR112      0.1994
     15  C          5.5600   28.8430  -18.1150 C.2   112  THR112      0.2618
     16  O          6.2610   29.8190  -18.4280 O.2   112  THR112     -0.2717
     17  CB         4.9410   28.4840  -15.7360 C.3   112  THR112      0.1784
     18  OG1        5.1890   29.8650  -15.4540 O.3   112  THR112     -0.2211
     19  CG2        5.0940   27.6640  -14.4450 C.3   112  THR112      0.0376
     20  N          4.4990   28.4690  -18.8240 N.am  113  GLY113     -0.1942
     21  CA         3.9450   29.3030  -19.8950 C.3   113  GLY113      0.2014
     22  C          3.5180   30.6710  -19.3730 C.2   113  GLY113      0.2638
     23  O          3.7160   31.6850  -20.0450 O.2   113  GLY113     -0.2714
     24  N          2.9470   30.6950  -18.1650 N.am  114  TYR114     -0.1973
     25  CA         2.5820   31.9450  -17.5090 C.3   114  TYR114      0.1639
     26  C          3.7940   32.8870  -17.4410 C.2   114  TYR114      0.2290
     27  O          3.7140   34.0550  -17.8360 O.2   114  TYR114     -0.2864
     28  CB         2.0240   31.6720  -16.1070 C.3   114  TYR114      0.0560
     29  CG         1.6190   32.9230  -15.3790 C.ar  114  TYR114     -0.0198
     30  CD1        0.3170   33.4140  -15.4730 C.ar  114  TYR114     -0.0009
     31  CD2        2.5410   33.6350  -14.6150 C.ar  114  TYR114     -0.0009
     32  CE1       -0.0550   34.5710  -14.8210 C.ar  114  TYR114      0.0417
     33  CE2        2.1760   34.7990  -13.9680 C.ar  114  TYR114      0.0417
     34  CZ         0.8780   35.2620  -14.0720 C.ar  114  TYR114      0.1957
     35  OH         0.5050   36.4100  -13.4280 O.3   114  TYR114     -0.2866
     36  N          4.9870   34.3030  -20.9940 N.3   117  ASN117     -0.1240
     37  CA         4.2240   35.4960  -21.3960 C.3   117  ASN117      0.1653
     38  C          4.5350   36.7020  -20.5140 C.2   117  ASN117      0.2266
     39  O          4.8130   37.7860  -21.0130 O.2   117  ASN117     -0.2867
     40  CB         2.7100   35.2140  -21.3990 C.3   117  ASN117      0.1155
     41  CG         2.2350   34.5640  -22.7010 C.2   117  ASN117      0.2627
     42  OD1        2.7380   34.8640  -23.7760 O.2   117  ASN117     -0.2716
     43  ND2        1.2570   33.6910  -22.6020 N.am  117  ASN117     -0.0877
     44  N         -5.5220   36.0970  -23.1160 N.3   138  HIS138     -0.1241
     45  CA        -5.2720   35.3000  -21.9100 C.3   138  HIS138      0.1621
     46  C         -4.7330   36.1560  -20.7480 C.2   138  HIS138      0.2264
     47  O         -4.0040   37.1330  -20.9630 O.2   138  HIS138     -0.2867
     48  CB        -4.2690   34.1900  -22.2440 C.3   138  HIS138      0.0745
     49  CG        -4.1540   33.1280  -21.2020 C.ar  138  HIS138      0.0817
     50  ND1       -3.2200   33.1800  -20.1900 N.ar  138  HIS138     -0.2268
     51  CD2       -4.8200   31.9590  -21.0410 C.ar  138  HIS138      0.1154
     52  CE1       -3.3350   32.1020  -19.4320 C.ar  138  HIS138      0.1986
     53  NE2       -4.2990   31.3450  -19.9290 N.ar  138  HIS138     -0.2212
     54  N         -2.4430   35.7550  -18.6060 N.3   140  SER140     -0.1202
     55  CA        -0.9820   35.8380  -18.5150 C.3   140  SER140      0.2020
     56  C         -0.4030   36.9220  -19.4210 C.2   140  SER140      0.2618
     57  O          0.6280   37.5250  -19.1130 O.2   140  SER140     -0.2717
     58  CB        -0.3300   34.4900  -18.8510 C.3   140  SER140      0.2103
     59  OG        -0.5120   34.1370  -20.2140 O.3   140  SER140     -0.2182
     60  N         -1.0580   37.1540  -20.5490 N.am  141  ILE141     -0.1979
     61  CA        -0.6720   38.2310  -21.4440 C.3   141  ILE141      0.1595
     62  C         -1.0010   39.5770  -20.7840 C.2   141  ILE141      0.2287
     63  O         -0.1730   40.4830  -20.7770 O.2   141  ILE141     -0.2864
     64  CB        -1.3930   38.0920  -22.7950 C.3   141  ILE141      0.0276
     65  CG1       -0.8480   36.8760  -23.5470 C.3   141  ILE141      0.0022
     66  CG2       -1.2480   39.3590  -23.6270 C.3   141  ILE141      0.0022
     67  CD1       -1.7190   36.4410  -24.6980 C.3   141  ILE141      0.0001
     68  N         -3.0200   35.6340  -30.2000 N.3   181  GLU181     -0.1245
     69  CA        -3.1200   34.2070  -29.9310 C.3   181  GLU181      0.1567
     70  C         -3.6330   33.5260  -31.1920 C.2   181  GLU181      0.2260
     71  O         -4.4570   34.0890  -31.9200 O.2   181  GLU181     -0.2867
     72  CB        -4.0670   33.9470  -28.7660 C.3   181  GLU181      0.0388
     73  CG        -3.6080   34.5180  -27.4370 C.3   181  GLU181      0.1160
     74  CD        -4.6280   34.3220  -26.3230 C.2   181  GLU181      0.3649
     75  OE1       -4.9050   33.1800  -25.9120 O.co2 181  GLU181     -0.2457
     76  OE2       -5.1410   35.3250  -25.8390 O.co2 181  GLU181     -0.2457
     77  N          1.0380   33.7300  -29.3690 N.3   210  ASP210     -0.1239
     78  CA         0.9070   32.5840  -28.4760 C.3   210  ASP210      0.1674
     79  C          0.3210   31.4060  -29.2190 C.2   210  ASP210      0.2266
     80  O         -0.7730   31.5050  -29.7730 O.2   210  ASP210     -0.2867
     81  CB        -0.0030   32.9030  -27.2920 C.3   210  ASP210      0.1410
     82  CG         0.7590   33.1220  -26.0350 C.2   210  ASP210      0.3668
     83  OD1        0.6950   32.2450  -25.1240 O.co2 210  ASP210     -0.2456
     84  OD2        1.4600   34.1540  -25.9840 O.co2 210  ASP210     -0.2456
     85  N         -0.1350   28.1870  -27.7840 N.3   212  ALA212     -0.1231
     86  CA        -0.2990   27.1880  -26.7350 C.3   212  ALA212      0.1694
     87  C         -1.3730   26.1600  -27.0970 C.2   212  ALA212      0.2592
     88  O         -1.2750   25.0120  -26.6730 O.2   212  ALA212     -0.2718
     89  CB        -0.6260   27.8560  -25.4140 C.3   212  ALA212      0.0304
     90  N         -2.3770   26.5700  -27.8820 N.am  213  HIS213     -0.1976
     91  CA        -3.5640   25.7490  -28.1600 C.3   213  HIS213      0.1656
     92  C         -3.6500   25.1530  -29.5650 C.2   213  HIS213      0.2291
     93  O         -4.7190   24.7000  -29.9890 O.2   213  HIS213     -0.2864
     94  CB        -4.8360   26.5480  -27.8750 C.3   213  HIS213      0.0771
     95  CG        -5.1440   26.6760  -26.4170 C.ar  213  HIS213      0.0820
     96  ND1       -5.6430   25.6290  -25.6730 N.ar  213  HIS213     -0.2267
     97  CD2       -5.0110   27.7190  -25.5610 C.ar  213  HIS213      0.1154
     98  CE1       -5.8180   26.0250  -24.4250 C.ar  213  HIS213      0.1986
     99  NE2       -5.4360   27.2860  -24.3300 N.ar  213  HIS213     -0.2212
    100  N          3.7540   26.6390  -24.4320 N.3   241  THR241     -0.1218
    101  CA         3.7650   25.9570  -23.1500 C.3   241  THR241      0.1862
    102  C          4.1590   24.4850  -23.3240 C.2   241  THR241      0.2287
    103  O          4.0440   23.9130  -24.4060 O.2   241  THR241     -0.2866
    104  CB         2.3760   26.0580  -22.4480 C.3   241  THR241      0.1770
    105  OG1        2.4260   25.4160  -21.1700 O.3   241  THR241     -0.2211
    106  CG2        1.2610   25.4060  -23.3040 C.3   241  THR241      0.0375
    107  N          2.6800   22.5280  -21.0120 N.3   243  SER243     -0.1202
    108  CA         1.6460   21.9480  -20.1520 C.3   243  SER243      0.2020
    109  C          0.4020   21.4690  -20.8830 C.2   243  SER243      0.2618
    110  O         -0.5330   20.9600  -20.2440 O.2   243  SER243     -0.2717
    111  CB         1.2310   22.9370  -19.0520 C.3   243  SER243      0.2103
    112  OG         0.3160   23.8980  -19.5480 O.3   243  SER243     -0.2182
    113  N          0.3560   21.6360  -22.1980 N.am  244  LYS244     -0.1979
    114  CA        -0.8130   21.2030  -22.9560 C.3   244  LYS244      0.1596
    115  C         -0.4190   20.0300  -23.8570 C.2   244  LYS244      0.2287
    116  O         -0.2180   18.9290  -23.3370 O.2   244  LYS244     -0.2864
    117  CB        -1.4440   22.4060  -23.6610 C.3   244  LYS244      0.0298
    118  CG        -1.8960   23.4450  -22.6110 C.3   244  LYS244      0.0038
    119  CD        -2.3490   24.7660  -23.1490 C.3   244  LYS244      0.0206
    120  CE        -2.7450   25.7000  -21.9760 C.3   244  LYS244      0.1093
    121  NZ        -2.4380   27.1030  -22.3030 N.3   244  LYS244     -0.1314
    122  N          5.1290   20.4340  -17.8130 N.3   249  VAL249     -0.1231
    123  CA         4.9980   21.7690  -17.2460 C.3   249  VAL249      0.1692
    124  C          6.1700   22.5780  -17.7950 C.2   249  VAL249      0.2592
    125  O          7.2120   22.0130  -18.1050 O.2   249  VAL249     -0.2718
    126  CB         4.9750   21.7180  -15.6910 C.3   249  VAL249      0.0266
    127  CG1        6.3680   21.4820  -15.1070 C.3   249  VAL249      0.0020
    128  CG2        4.3710   22.9570  -15.1390 C.3   249  VAL249      0.0020
    129  N          5.9730   23.8800  -17.9770 N.am  250  GLY250     -0.1957
    130  CA         7.0030   24.7410  -18.5460 C.3   250  GLY250      0.1869
    131  C          6.4630   25.6900  -19.5940 C.2   250  GLY250      0.2309
    132  O          5.3160   25.5520  -20.0470 O.2   250  GLY250     -0.2863
@<TRIPOS>BOND
     1    71    70    2
     2    70    69    1
     3    68    69    1
     4    93    92    2
     5    69    72    1
     6    80    79    2
     7    92    91    1
     8    77    78    1
     9    79    78    1
    10    72    73    1
    11    78    81    1
    12    91    90    1
    13    91    94    1
    14    90    87   am
    15    94    95    1
    16    85    86    1
    17    73    74    1
    18    81    82    1
    19    87    86    1
    20    87    88    2
    21    86    89    1
    22    95    96   ar
    23    95    97   ar
    24    74    75   ar
    25    74    76   ar
    26    82    84   ar
    27    82    83   ar
    28    96    98   ar
    29    97    99   ar
    30    67    65    1
    31   100   101    1
    32    98    99   ar
    33   103   102    2
    34   115   116    2
    35   115   114    1
    36    42    41    2
    37     4     3    2
    38   117   114    1
    39   117   118    1
    40    66    64    1
    41    65    64    1
    42   102   101    1
    43   106   104    1
    44   101   104    1
    45   119   118    1
    46   119   120    1
    47    44    45    1
    48     3     2    1
    49     7     9   ar
    50     7     6   ar
    51   114   113    1
    52    64    61    1
    53     9    11   ar
    54    41    43   am
    55    41    40    1
    56     2     5    1
    57     2     1    1
    58   104   105    1
    59     5     6    1
    60   121   120    1
    61    48    45    1
    62    48    49    1
    63   113   109   am
    64     6     8   ar
    65    45    46    1
    66    11    12    1
    67    11    10   ar
    68    61    62    1
    69    61    60    1
    70    40    37    1
    71    37    36    1
    72    37    38    1
    73    49    51   ar
    74    49    50   ar
    75     8    10   ar
    76    51    53   ar
    77    39    38    2
    78   107   108    1
    79    47    46    2
    80   109   110    2
    81   109   108    1
    82    62    63    2
    83    60    56   am
    84    59    58    1
    85    50    52   ar
    86   108   111    1
    87   132   131    2
    88    23    22    2
    89    53    52   ar
    90    21    22    1
    91    21    20    1
    92   131   130    1
    93   112   111    1
    94    56    57    2
    95    56    55    1
    96    22    24   am
    97    58    55    1
    98    20    15   am
    99    54    55    1
   100   130   129    1
   101    16    15    2
   102    24    25    1
   103    15    14    1
   104   125   124    2
   105   129   124   am
   106    27    26    2
   107   122   123    1
   108   124   123    1
   109    25    26    1
   110    25    28    1
   111   123   126    1
   112    14    13    1
   113    14    17    1
   114    28    29    1
   115    17    18    1
   116    17    19    1
   117   126   128    1
   118   126   127    1
   119    30    29   ar
   120    30    32   ar
   121    29    31   ar
   122    32    34   ar
   123    31    33   ar
   124    34    33   ar
   125    34    35    1
