@<TRIPOS>MOLECULE
tmp/2x8yA00.pdb
 132 128 0 0 0
SMALL
GASTEIGER

@<TRIPOS>ATOM
      1  N        -10.0880   38.1330    6.2890 N.3   246  GLN246     -0.1231
      2  CA       -10.1910   37.6790    7.6790 C.3   246  GLN246      0.1698
      3  C         -8.8440   37.6620    8.3950 C.2   246  GLN246      0.2592
      4  O         -8.7900   37.8070    9.6180 O.2   246  GLN246     -0.2718
      5  CB       -10.8720   36.3140    7.7610 C.3   246  GLN246      0.0381
      6  CG       -10.0810   35.1460    7.1920 C.3   246  GLN246      0.0905
      7  CD       -10.9010   33.8810    7.1720 C.2   246  GLN246      0.2608
      8  OE1      -11.8550   33.7630    6.4050 O.2   246  GLN246     -0.2717
      9  NE2      -10.5470   32.9290    8.0330 N.am  246  GLN246     -0.0878
     10  N         -7.7770   37.4550    7.6230 N.am  247  GLN247     -0.1979
     11  CA        -6.4040   37.5420    8.1160 C.3   247  GLN247      0.1601
     12  C         -5.5430   38.1970    7.0370 C.2   247  GLN247      0.2287
     13  O         -5.7420   37.9510    5.8430 O.2   247  GLN247     -0.2864
     14  CB        -5.8570   36.1610    8.5220 C.3   247  GLN247      0.0394
     15  CG        -5.6930   35.1420    7.3930 C.3   247  GLN247      0.0908
     16  CD        -5.1360   33.8090    7.8750 C.2   247  GLN247      0.2608
     17  OE1       -4.0130   33.4330    7.5380 O.2   247  GLN247     -0.2717
     18  NE2       -5.9190   33.0940    8.6760 N.am  247  GLN247     -0.0878
     19  N        -12.4320   22.6180    2.1630 N.3   318  HIS318     -0.1226
     20  CA       -12.2540   23.3490    3.4200 C.3   318  HIS318      0.1752
     21  C        -11.8460   22.3770    4.5250 C.2   318  HIS318      0.2595
     22  O        -12.5550   21.4020    4.7910 O.2   318  HIS318     -0.2718
     23  CB       -13.4950   24.1550    3.8210 C.3   318  HIS318      0.0759
     24  CG       -13.2540   25.0540    4.9940 C.ar  318  HIS318      0.0818
     25  ND1      -12.8410   26.3620    4.8570 N.ar  318  HIS318     -0.2268
     26  CD2      -13.3190   24.8180    6.3250 C.ar  318  HIS318      0.1154
     27  CE1      -12.6790   26.8980    6.0540 C.ar  318  HIS318      0.1986
     28  NE2      -12.9640   25.9820    6.9620 N.ar  318  HIS318     -0.2212
     29  N        -10.6960   22.6430    5.1460 N.am  319  ALA319     -0.1980
     30  CA       -10.0750   21.7170    6.1040 C.3   319  ALA319      0.1597
     31  C        -10.9920   21.3770    7.2820 C.2   319  ALA319      0.2287
     32  O        -11.6620   22.2600    7.8280 O.2   319  ALA319     -0.2864
     33  CB        -8.7460   22.2820    6.6030 C.3   319  ALA319      0.0319
     34  N         -2.3600   25.3290    9.8880 N.3   345  THR345     -0.1218
     35  CA        -3.6500   24.6680    9.6670 C.3   345  THR345      0.1862
     36  C         -3.6020   23.1750   10.0250 C.2   345  THR345      0.2287
     37  O         -4.5500   22.6450   10.6150 O.2   345  THR345     -0.2866
     38  CB        -4.1500   24.8580    8.2150 C.3   345  THR345      0.1770
     39  OG1       -4.2560   26.2570    7.9300 O.3   345  THR345     -0.2211
     40  CG2       -5.5200   24.2140    8.0160 C.3   345  THR345      0.0375
     41  N         -3.7470   23.0980   13.7610 N.3   348  HIS348     -0.1226
     42  CA        -5.1170   23.4310   14.1530 C.3   348  HIS348      0.1752
     43  C         -6.0300   22.2020   14.0860 C.2   348  HIS348      0.2595
     44  O         -6.7190   21.8840   15.0530 O.2   348  HIS348     -0.2718
     45  CB        -5.6890   24.5530   13.2760 C.3   348  HIS348      0.0759
     46  CG        -7.1400   24.8260   13.5300 C.ar  348  HIS348      0.0818
     47  ND1       -7.5690   25.7630   14.4420 N.ar  348  HIS348     -0.2268
     48  CD2       -8.2580   24.2620   13.0150 C.ar  348  HIS348      0.1154
     49  CE1       -8.8890   25.7770   14.4690 C.ar  348  HIS348      0.1986
     50  NE2       -9.3330   24.8710   13.6170 N.ar  348  HIS348     -0.2212
     51  N         -6.0350   21.5270   12.9400 N.am  349  GLU349     -0.1979
     52  CA        -6.8930   20.3600   12.7300 C.3   349  GLU349      0.1602
     53  C         -6.5170   19.1970   13.6400 C.2   349  GLU349      0.2287
     54  O         -7.3910   18.4760   14.1280 O.2   349  GLU349     -0.2864
     55  CB        -6.8760   19.9170   11.2630 C.3   349  GLU349      0.0415
     56  CG        -7.4130   20.9530   10.2720 C.3   349  GLU349      0.1163
     57  CD        -8.8290   21.4210   10.5810 C.2   349  GLU349      0.3649
     58  OE1       -9.6070   20.6670   11.2100 O.co2 349  GLU349     -0.2457
     59  OE2       -9.1660   22.5510   10.1770 O.co2 349  GLU349     -0.2457
     60  N         -4.4650   25.8210   17.8630 N.3   380  ASP380     -0.1239
     61  CA        -3.9260   27.1800   17.7310 C.3   380  ASP380      0.1674
     62  C         -2.9050   27.5160   18.8110 C.2   380  ASP380      0.2266
     63  O         -1.9760   28.2970   18.5750 O.2   380  ASP380     -0.2867
     64  CB        -5.0570   28.2140   17.7340 C.3   380  ASP380      0.1410
     65  CG        -5.7550   28.3230   16.3870 C.2   380  ASP380      0.3668
     66  OD1       -5.6330   27.3830   15.5740 O.co2 380  ASP380     -0.2456
     67  OD2       -6.4300   29.3470   16.1390 O.co2 380  ASP380     -0.2456
     68  N         -8.4110   39.2900   12.8550 N.3   422  PHE422     -0.1241
     69  CA        -9.4760   38.2850   12.8150 C.3   422  PHE422      0.1605
     70  C        -10.6480   38.5750   13.7550 C.2   422  PHE422      0.2264
     71  O        -11.7730   38.1570   13.4910 O.2   422  PHE422     -0.2867
     72  CB        -8.8820   36.9120   13.1460 C.3   422  PHE422      0.0534
     73  CG        -9.8430   35.7670   12.9910 C.ar  422  PHE422     -0.0203
     74  CD1      -10.1520   35.2640   11.7300 C.ar  422  PHE422     -0.0042
     75  CD2      -10.4230   35.1760   14.1110 C.ar  422  PHE422     -0.0042
     76  CE1      -11.0380   34.1920   11.5880 C.ar  422  PHE422     -0.0003
     77  CE2      -11.2960   34.1070   13.9810 C.ar  422  PHE422     -0.0003
     78  CZ       -11.6090   33.6150   12.7240 C.ar  422  PHE422     -0.0000
     79  N        -18.5330   32.9540    2.0800 N.3   476  LYS476     -0.1245
     80  CA       -17.7050   32.4180    3.1650 C.3   476  LYS476      0.1561
     81  C        -18.1750   30.9970    3.4940 C.2   476  LYS476      0.2260
     82  O        -19.3680   30.7750    3.7250 O.2   476  LYS476     -0.2867
     83  CB       -17.7910   33.3240    4.4060 C.3   476  LYS476      0.0271
     84  CG       -17.0440   32.8110    5.6470 C.3   476  LYS476      0.0035
     85  CD       -15.5370   32.7290    5.4170 C.3   476  LYS476      0.0206
     86  CE       -14.8300   32.0530    6.5870 C.3   476  LYS476      0.1093
     87  NZ       -13.5010   31.5090    6.1980 N.3   476  LYS476     -0.1314
     88  N        -18.2640   28.8230    5.9860 N.3   478  HIS478     -0.1241
     89  CA       -19.0790   28.5650    7.1680 C.3   478  HIS478      0.1621
     90  C        -20.5080   29.0620    7.0260 C.2   478  HIS478      0.2264
     91  O        -21.4300   28.4760    7.5940 O.2   478  HIS478     -0.2867
     92  CB       -18.4230   29.1800    8.4010 C.3   478  HIS478      0.0745
     93  CG       -17.0800   28.6010    8.7150 C.ar  478  HIS478      0.0817
     94  ND1      -15.9670   28.8420    7.9390 N.ar  478  HIS478     -0.2268
     95  CD2      -16.6680   27.8040    9.7290 C.ar  478  HIS478      0.1154
     96  CE1      -14.9280   28.2130    8.4580 C.ar  478  HIS478      0.1986
     97  NE2      -15.3280   27.5710    9.5410 N.ar  478  HIS478     -0.2212
     98  N        -19.9770   30.5370   13.8810 N.3   485  TYR485     -0.1241
     99  CA       -18.6530   31.1780   13.7850 C.3   485  TYR485      0.1605
    100  C        -18.1200   31.7900   15.0870 C.2   485  TYR485      0.2264
    101  O        -16.9070   31.9930   15.2300 O.2   485  TYR485     -0.2867
    102  CB       -18.6070   32.2120   12.6420 C.3   485  TYR485      0.0534
    103  CG       -17.2510   32.2790   11.9690 C.ar  485  TYR485     -0.0201
    104  CD1      -16.8850   31.3400   11.0030 C.ar  485  TYR485     -0.0009
    105  CD2      -16.3240   33.2590   12.3170 C.ar  485  TYR485     -0.0009
    106  CE1      -15.6370   31.3840   10.3910 C.ar  485  TYR485      0.0417
    107  CE2      -15.0690   33.3130   11.7150 C.ar  485  TYR485      0.0417
    108  CZ       -14.7330   32.3770   10.7540 C.ar  485  TYR485      0.1957
    109  OH       -13.4960   32.4220   10.1610 O.3   485  TYR485     -0.2866
    110  N        -14.8960   30.7830   16.8110 N.3   488  TYR488     -0.1241
    111  CA       -13.5710   31.2700   16.4370 C.3   488  TYR488      0.1605
    112  C        -13.1800   32.5520   17.1670 C.2   488  TYR488      0.2264
    113  O        -12.0100   32.7400   17.4950 O.2   488  TYR488     -0.2867
    114  CB       -13.4420   31.4260   14.9200 C.3   488  TYR488      0.0534
    115  CG       -13.6460   30.1300   14.1770 C.ar  488  TYR488     -0.0201
    116  CD1      -12.6620   29.1410   14.1720 C.ar  488  TYR488     -0.0009
    117  CD2      -14.8280   29.8860   13.4870 C.ar  488  TYR488     -0.0009
    118  CE1      -12.8530   27.9440   13.4850 C.ar  488  TYR488      0.0417
    119  CE2      -15.0290   28.6930   12.8020 C.ar  488  TYR488      0.0417
    120  CZ       -14.0400   27.7270   12.8050 C.ar  488  TYR488      0.1957
    121  OH       -14.2350   26.5460   12.1190 O.3   488  TYR488     -0.2866
    122  N         -9.9420   32.6460   19.6100 N.3   492  PHE492     -0.1241
    123  CA        -8.8550   33.6250   19.4960 C.3   492  PHE492      0.1605
    124  C         -8.5920   34.4180   20.7850 C.2   492  PHE492      0.2264
    125  O         -7.4900   34.9170   20.9860 O.2   492  PHE492     -0.2867
    126  CB        -9.0750   34.5540   18.2990 C.3   492  PHE492      0.0534
    127  CG        -8.5650   33.9950   16.9880 C.ar  492  PHE492     -0.0203
    128  CD1       -7.6990   34.7430   16.1930 C.ar  492  PHE492     -0.0042
    129  CD2       -8.9380   32.7220   16.5560 C.ar  492  PHE492     -0.0042
    130  CE1       -7.2190   34.2390   14.9830 C.ar  492  PHE492     -0.0003
    131  CE2       -8.4640   32.2050   15.3460 C.ar  492  PHE492     -0.0003
    132  CZ        -7.6030   32.9670   14.5580 C.ar  492  PHE492     -0.0000
@<TRIPOS>BOND
     1    79    80    1
     2    19    20    1
     3    80    81    1
     4    80    83    1
     5    20    23    1
     6    20    21    1
     7    81    82    2
     8    23    24    1
     9    83    84    1
    10    21    22    2
    11    21    29   am
    12    25    24   ar
    13    25    27   ar
    14    24    26   ar
    15    29    30    1
    16    85    84    1
    17    85    86    1
    18    13    12    2
    19    88    89    1
    20    27    28   ar
    21    30    33    1
    22    30    31    1
    23    87    86    1
    24     1     2    1
    25    26    28   ar
    26     8     7    2
    27    90    89    1
    28    90    91    2
    29    12    11    1
    30    89    92    1
    31     7     6    1
    32     7     9   am
    33     6     5    1
    34    31    32    2
    35    15    16    1
    36    15    14    1
    37    17    16    2
    38    10    11    1
    39    10     3   am
    40     2     5    1
    41     2     3    1
    42    16    18   am
    43    39    38    1
    44    94    96   ar
    45    94    93   ar
    46    40    38    1
    47    11    14    1
    48    38    35    1
    49     3     4    2
    50    92    93    1
    51    96    97   ar
    52    93    95   ar
    53    97    95   ar
    54    35    34    1
    55    35    36    1
    56    36    37    2
    57   109   108    1
    58    59    57   ar
    59    56    57    1
    60    56    55    1
    61   106   108   ar
    62   106   104   ar
    63    57    58   ar
    64   108   107   ar
    65   104   103   ar
    66    55    52    1
    67    76    74   ar
    68    76    78   ar
    69   107   105   ar
    70    74    73   ar
    71   103   105   ar
    72   103   102    1
    73   121   120    1
    74   102    99    1
    75    78    77   ar
    76    52    51    1
    77    52    53    1
    78   119   120   ar
    79   119   117   ar
    80   120   118   ar
    81    69    68    1
    82    69    72    1
    83    69    70    1
    84    51    43   am
    85    73    72    1
    86    73    75   ar
    87    48    46   ar
    88    48    50   ar
    89    45    46    1
    90    45    42    1
    91   118   116   ar
    92   117   115   ar
    93    71    70    2
    94    46    47   ar
    95    50    49   ar
    96    53    54    2
    97    41    42    1
    98    99    98    1
    99    99   100    1
   100    77    75   ar
   101    43    42    1
   102    43    44    2
   103   116   115   ar
   104   115   114    1
   105    47    49   ar
   106   132   130   ar
   107   132   131   ar
   108   114   111    1
   109   130   128   ar
   110   100   101    2
   111   131   129   ar
   112    66    65   ar
   113    67    65   ar
   114   128   127   ar
   115    65    64    1
   116   111   110    1
   117   111   112    1
   118   129   127   ar
   119   127   126    1
   120   112   113    2
   121    61    64    1
   122    61    60    1
   123    61    62    1
   124   126   123    1
   125    63    62    2
   126   123   122    1
   127   123   124    1
   128   124   125    2
