@<TRIPOS>MOLECULE
tmp/2x90A00.pdb
 109 104 0 0 0
SMALL
GASTEIGER

@<TRIPOS>ATOM
      1  N        -32.1710   20.9070  -18.6870 N.3    89  TYR89      -0.1241
      2  CA       -32.9470   20.7430  -19.9190 C.3    89  TYR89       0.1605
      3  C        -33.8780   19.5310  -19.8950 C.2    89  TYR89       0.2264
      4  O        -34.9080   19.5280  -20.5660 O.2    89  TYR89      -0.2867
      5  CB       -32.0250   20.6490  -21.1390 C.3    89  TYR89       0.0534
      6  CG       -31.2160   21.8990  -21.4480 C.ar   89  TYR89      -0.0201
      7  CD1      -31.6210   23.1620  -20.9990 C.ar   89  TYR89      -0.0009
      8  CD2      -30.0600   21.8180  -22.2250 C.ar   89  TYR89      -0.0009
      9  CE1      -30.8770   24.3050  -21.3000 C.ar   89  TYR89       0.0417
     10  CE2      -29.3170   22.9510  -22.5330 C.ar   89  TYR89       0.0417
     11  CZ       -29.7270   24.1870  -22.0720 C.ar   89  TYR89       0.1957
     12  OH       -28.9840   25.3050  -22.3820 O.3    89  TYR89      -0.2866
     13  N        -29.3980   22.6290  -30.8890 N.3   104  LEU104     -0.1245
     14  CA       -28.0170   22.6790  -30.4060 C.3   104  LEU104      0.1561
     15  C        -27.0200   22.0390  -31.3770 C.2   104  LEU104      0.2260
     16  O        -25.9500   22.6020  -31.6390 O.2   104  LEU104     -0.2867
     17  CB       -27.8980   22.0310  -29.0230 C.3   104  LEU104      0.0270
     18  CG       -28.5920   22.7510  -27.8610 C.3   104  LEU104      0.0019
     19  CD1      -28.4570   21.9370  -26.5890 C.3   104  LEU104      0.0001
     20  CD2      -28.0270   24.1550  -27.6720 C.3   104  LEU104      0.0001
     21  N        -24.8700   26.9860  -10.1490 N.3   191  GLU191     -0.1245
     22  CA       -23.6590   26.1660  -10.0450 C.3   191  GLU191      0.1567
     23  C        -22.6100   26.7220   -9.0750 C.2   191  GLU191      0.2260
     24  O        -21.7150   25.9900   -8.6470 O.2   191  GLU191     -0.2867
     25  CB       -23.0160   25.9590  -11.4260 C.3   191  GLU191      0.0388
     26  CG       -23.9130   25.3010  -12.4790 C.3   191  GLU191      0.1160
     27  CD       -24.3230   23.8760  -12.1350 C.2   191  GLU191      0.3649
     28  OE1      -23.5820   23.1780  -11.4040 O.co2 191  GLU191     -0.2457
     29  OE2      -25.3980   23.4470  -12.6070 O.co2 191  GLU191     -0.2457
     30  N        -16.7700    8.4500  -17.1770 N.3   328  TYR328     -0.1241
     31  CA       -17.4420    8.0550  -15.9300 C.3   328  TYR328      0.1605
     32  C        -17.3260    6.5810  -15.5610 C.2   328  TYR328      0.2264
     33  O        -18.1750    6.0410  -14.8500 O.2   328  TYR328     -0.2867
     34  CB       -18.9130    8.5070  -15.9200 C.3   328  TYR328      0.0534
     35  CG       -19.1080    9.9890  -16.1380 C.ar  328  TYR328     -0.0201
     36  CD1      -19.5920   10.4690  -17.3470 C.ar  328  TYR328     -0.0009
     37  CD2      -18.8110   10.9100  -15.1330 C.ar  328  TYR328     -0.0009
     38  CE1      -19.7760   11.8350  -17.5580 C.ar  328  TYR328      0.0417
     39  CE2      -18.9910   12.2800  -15.3350 C.ar  328  TYR328      0.0417
     40  CZ       -19.4750   12.7290  -16.5500 C.ar  328  TYR328      0.1957
     41  OH       -19.6640   14.0750  -16.7610 O.3   328  TYR328     -0.2866
     42  N        -18.8910   13.8470   -9.2130 N.3   370  ARG370     -0.1231
     43  CA       -17.8310   13.7510  -10.2160 C.3   370  ARG370      0.1694
     44  C        -17.8840   14.9260  -11.1940 C.2   370  ARG370      0.2592
     45  O        -18.1520   14.7660  -12.3860 O.2   370  ARG370     -0.2718
     46  CB       -17.8600   12.3960  -10.9310 C.3   370  ARG370      0.0321
     47  CG       -17.4430   11.2340  -10.0270 C.3   370  ARG370      0.0489
     48  CD       -17.6010    9.8890  -10.7200 C.3   370  ARG370      0.2205
     49  NE       -16.5580    9.6540  -11.7150 N.pl3 370  ARG370     -0.0865
     50  CZ       -16.3780    8.5030  -12.3570 C.cat 370  ARG370      0.5346
     51  NH1      -17.1750    7.4680  -12.1140 N.pl3 370  ARG370      0.1354
     52  NH2      -15.4000    8.3850  -13.2500 N.pl3 370  ARG370      0.1354
     53  N        -17.6310   16.1110  -10.6480 N.am  371  THR371     -0.1953
     54  CA       -17.5440   17.3600  -11.3990 C.3   371  THR371      0.1897
     55  C        -16.7780   18.3540  -10.5280 C.2   371  THR371      0.2313
     56  O        -16.4290   18.0320   -9.3920 O.2   371  THR371     -0.2863
     57  CB       -18.9440   17.8940  -11.8310 C.3   371  THR371      0.1794
     58  OG1      -18.7820   18.9680  -12.7660 O.3   371  THR371     -0.2208
     59  CG2      -19.7570   18.3750  -10.6420 C.3   371  THR371      0.0378
     60  N        -12.7290   23.8850  -12.3650 N.3   378  HIS378     -0.1241
     61  CA       -12.3410   22.9680  -13.4330 C.3   378  HIS378      0.1621
     62  C        -11.4630   23.6620  -14.4670 C.2   378  HIS378      0.2264
     63  O        -10.4740   23.0930  -14.9360 O.2   378  HIS378     -0.2867
     64  CB       -13.5760   22.3610  -14.1050 C.3   378  HIS378      0.0745
     65  CG       -13.5380   20.8670  -14.2000 C.ar  378  HIS378      0.0817
     66  ND1      -12.6250   20.1910  -14.9820 N.ar  378  HIS378     -0.2268
     67  CD2      -14.3050   19.9170  -13.6130 C.ar  378  HIS378      0.1154
     68  CE1      -12.8290   18.8910  -14.8710 C.ar  378  HIS378      0.1986
     69  NE2      -13.8430   18.6970  -14.0460 N.ar  378  HIS378     -0.2212
     70  N        -22.2150   26.5440  -29.1130 N.3   484  ALA484     -0.1231
     71  CA       -22.2370   25.2290  -28.4560 C.3   484  ALA484      0.1694
     72  C        -22.9340   25.2190  -27.0960 C.2   484  ALA484      0.2592
     73  O        -22.9470   24.1890  -26.4130 O.2   484  ALA484     -0.2718
     74  CB       -20.8250   24.6720  -28.3290 C.3   484  ALA484      0.0304
     75  N        -23.5080   26.3600  -26.7100 N.am  485  ASP485     -0.1960
     76  CA       -24.2340   26.4960  -25.4380 C.3   485  ASP485      0.1840
     77  C        -23.3620   26.0590  -24.2500 C.2   485  ASP485      0.2622
     78  O        -23.7200   25.1640  -23.4760 O.2   485  ASP485     -0.2715
     79  CB       -25.5740   25.7360  -25.4970 C.3   485  ASP485      0.1450
     80  CG       -26.3460   25.7720  -24.1780 C.2   485  ASP485      0.3671
     81  OD1      -26.9420   24.7320  -23.8230 O.co2 485  ASP485     -0.2456
     82  OD2      -26.3610   26.8260  -23.5030 O.co2 485  ASP485     -0.2456
     83  N        -22.1990   26.6910  -24.1350 N.am  486  VAL486     -0.1963
     84  CA       -21.2920   26.4510  -23.0160 C.3   486  VAL486      0.1727
     85  C        -21.2210   27.7330  -22.2000 C.2   486  VAL486      0.2616
     86  O        -20.8690   28.7880  -22.7260 O.2   486  VAL486     -0.2715
     87  CB       -19.8810   26.0510  -23.4980 C.3   486  VAL486      0.0290
     88  CG1      -18.9440   25.8310  -22.3120 C.3   486  VAL486      0.0023
     89  CG2      -19.9490   24.8000  -24.3650 C.3   486  VAL486      0.0023
     90  N        -21.5910   27.6400  -20.9240 N.am  487  GLU487     -0.1977
     91  CA       -21.5440   28.7760  -20.0040 C.3   487  GLU487      0.1602
     92  C        -20.1200   29.3470  -19.9760 C.2   487  GLU487      0.2287
     93  O        -19.1490   28.5900  -20.0140 O.2   487  GLU487     -0.2864
     94  CB       -22.0190   28.3320  -18.6120 C.3   487  GLU487      0.0415
     95  CG       -22.1040   29.4370  -17.5660 C.3   487  GLU487      0.1163
     96  CD       -20.9450   29.4230  -16.5790 C.2   487  GLU487      0.3649
     97  OE1      -19.8600   28.9050  -16.9220 O.co2 487  GLU487     -0.2457
     98  OE2      -21.1290   29.9300  -15.4490 O.co2 487  GLU487     -0.2457
     99  N        -17.5330   30.6040  -16.0120 N.3   490  ARG490     -0.1245
    100  CA       -16.4910   29.6950  -15.5350 C.3   490  ARG490      0.1563
    101  C        -15.0870   30.1960  -15.8620 C.2   490  ARG490      0.2260
    102  O        -14.1620   29.9910  -15.0790 O.2   490  ARG490     -0.2867
    103  CB       -16.6950   28.2900  -16.1190 C.3   490  ARG490      0.0307
    104  CG       -16.5980   28.2180  -17.6470 C.3   490  ARG490      0.0489
    105  CD       -16.9470   26.8390  -18.1640 C.3   490  ARG490      0.2205
    106  NE       -18.3350   26.4820  -17.8700 N.pl3 490  ARG490     -0.0865
    107  CZ       -18.8970   25.3300  -18.2160 C.cat 490  ARG490      0.5346
    108  NH1      -18.1880   24.4170  -18.8710 N.pl3 490  ARG490      0.1354
    109  NH2      -20.1660   25.0860  -17.9040 N.pl3 490  ARG490      0.1354
@<TRIPOS>BOND
     1    16    15    2
     2    15    14    1
     3    13    14    1
     4    14    17    1
     5    70    71    1
     6    17    18    1
     7    71    74    1
     8    71    72    1
     9    18    20    1
    10    18    19    1
    11    72    75   am
    12    72    73    2
    13    75    76    1
    14    79    76    1
    15    79    80    1
    16    76    77    1
    17    89    87    1
    18    77    83   am
    19    77    78    2
    20    80    81   ar
    21    80    82   ar
    22    83    84    1
    23    87    84    1
    24    87    88    1
    25    84    85    1
    26    86    85    2
    27    10     8   ar
    28    10    11   ar
    29    12    11    1
    30     8     6   ar
    31    85    90   am
    32    11     9   ar
    33     6     5    1
    34     6     7   ar
    35     9     7   ar
    36     5     2    1
    37    90    91    1
    38     4     3    2
    39    93    92    2
    40    91    92    1
    41    91    94    1
    42     2     3    1
    43     2     1    1
    44   108   107    1
    45    94    95    1
    46   107   109    1
    47   107   106    2
    48   105   106    1
    49   105   104    1
    50   104   103    1
    51    95    96    1
    52    38    36   ar
    53    38    40   ar
    54    36    35   ar
    55    30    31    1
    56    97    96   ar
    57    41    40    1
    58    96    98   ar
    59    40    39   ar
    60    35    34    1
    61    35    37   ar
    62   103   100    1
    63    99   100    1
    64    31    34    1
    65    31    32    1
    66   101   100    1
    67   101   102    2
    68    32    33    2
    69    39    37   ar
    70    66    68   ar
    71    66    65   ar
    72    63    62    2
    73    68    69   ar
    74    62    61    1
    75    65    64    1
    76    65    67   ar
    77    64    61    1
    78    69    67   ar
    79    61    60    1
    80    52    50    1
    81    58    57    1
    82    29    27   ar
    83    26    27    1
    84    26    25    1
    85    45    44    2
    86    50    51    1
    87    50    49    2
    88    27    28   ar
    89    57    54    1
    90    57    59    1
    91    49    48    1
    92    25    22    1
    93    54    53    1
    94    54    55    1
    95    44    53   am
    96    44    43    1
    97    46    43    1
    98    46    47    1
    99    48    47    1
   100    55    56    2
   101    43    42    1
   102    21    22    1
   103    22    23    1
   104    23    24    2
