@<TRIPOS>MOLECULE
tmp/2x90A01.pdb
 134 130 0 0 0
SMALL
GASTEIGER

@<TRIPOS>ATOM
      1  N        -22.1620    9.9050  -23.3610 N.3    28  THR28      -0.1218
      2  CA       -20.8660   10.5330  -23.6150 C.3    28  THR28       0.1862
      3  C        -20.1560    9.9070  -24.8220 C.2    28  THR28       0.2287
      4  O        -19.5600   10.6210  -25.6320 O.2    28  THR28      -0.2866
      5  CB       -19.9640   10.5110  -22.3630 C.3    28  THR28       0.1770
      6  OG1      -20.6980   11.0260  -21.2490 O.3    28  THR28      -0.2211
      7  CG2      -18.7320   11.3840  -22.5670 C.3    28  THR28       0.0375
      8  N        -21.7860   11.2940  -27.9080 N.3    31  ALA31      -0.1245
      9  CA       -21.3870   12.6970  -28.0780 C.3    31  ALA31       0.1562
     10  C        -19.9490   12.8060  -28.5890 C.2    31  ALA31       0.2260
     11  O        -19.6470   13.6490  -29.4350 O.2    31  ALA31      -0.2867
     12  CB       -21.5590   13.4700  -26.7670 C.3    31  ALA31       0.0290
     13  N        -11.0630   19.9980  -26.3580 N.3   323  SER323     -0.1202
     14  CA       -11.9350   19.5780  -25.2580 C.3   323  SER323      0.2020
     15  C        -11.4030   18.3370  -24.5440 C.2   323  SER323      0.2619
     16  O        -10.6530   17.5490  -25.1250 O.2   323  SER323     -0.2717
     17  CB       -13.3550   19.3200  -25.7700 C.3   323  SER323      0.2103
     18  OG       -13.3750   18.2200  -26.6640 O.3   323  SER323     -0.2182
     19  N        -11.7920   18.1870  -23.2790 N.am  324  ALA324     -0.1965
     20  CA       -11.4040   17.0500  -22.4490 C.3   324  ALA324      0.1728
     21  C        -12.6630   16.3310  -21.9790 C.2   324  ALA324      0.2616
     22  O        -13.6650   16.9740  -21.6430 O.2   324  ALA324     -0.2715
     23  CB       -10.5750   17.5180  -21.2590 C.3   324  ALA324      0.0334
     24  N        -12.6010   15.0020  -21.9500 N.am  325  TRP325     -0.1960
     25  CA       -13.7910   14.1750  -21.7850 C.3   325  TRP325      0.1771
     26  C        -13.6350   13.1440  -20.6710 C.2   325  TRP325      0.2619
     27  O        -12.6140   12.4560  -20.5850 O.2   325  TRP325     -0.2715
     28  CB       -14.1170   13.4600  -23.0980 C.3   325  TRP325      0.0590
     29  CG       -14.5410   14.3610  -24.2260 C.ar  325  TRP325      0.0006
     30  CD1      -13.7730   15.2940  -24.8660 C.ar  325  TRP325      0.0946
     31  CD2      -15.8200   14.3900  -24.8660 C.ar  325  TRP325      0.0152
     32  NE1      -14.4990   15.9110  -25.8510 N.ar  325  TRP325     -0.2442
     33  CE2      -15.7590   15.3760  -25.8760 C.ar  325  TRP325      0.0810
     34  CE3      -17.0130   13.6770  -24.6860 C.ar  325  TRP325      0.0012
     35  CZ2      -16.8450   15.6740  -26.7010 C.ar  325  TRP325      0.0191
     36  CZ3      -18.0930   13.9710  -25.5070 C.ar  325  TRP325      0.0001
     37  CH2      -18.0010   14.9620  -26.5030 C.ar  325  TRP325      0.0015
     38  N        -14.6570   13.0660  -19.8200 N.am  326  ASP326     -0.1971
     39  CA       -14.7510   12.0660  -18.7600 C.3   326  ASP326      0.1709
     40  C        -15.8320   11.0760  -19.1860 C.2   326  ASP326      0.2293
     41  O        -16.9330   11.4830  -19.5670 O.2   326  ASP326     -0.2864
     42  CB       -15.1410   12.7400  -17.4380 C.3   326  ASP326      0.1436
     43  CG       -14.9420   11.8410  -16.2160 C.2   326  ASP326      0.3671
     44  OD1      -15.1020   12.3540  -15.0860 O.co2 326  ASP326     -0.2456
     45  OD2      -14.6300   10.6380  -16.3650 O.co2 326  ASP326     -0.2456
     46  N        -16.7700    8.4500  -17.1770 N.3   328  TYR328     -0.1241
     47  CA       -17.4420    8.0550  -15.9300 C.3   328  TYR328      0.1605
     48  C        -17.3260    6.5810  -15.5610 C.2   328  TYR328      0.2264
     49  O        -18.1750    6.0410  -14.8500 O.2   328  TYR328     -0.2867
     50  CB       -18.9130    8.5070  -15.9200 C.3   328  TYR328      0.0534
     51  CG       -19.1080    9.9890  -16.1380 C.ar  328  TYR328     -0.0201
     52  CD1      -19.5920   10.4690  -17.3470 C.ar  328  TYR328     -0.0009
     53  CD2      -18.8110   10.9100  -15.1330 C.ar  328  TYR328     -0.0009
     54  CE1      -19.7760   11.8350  -17.5580 C.ar  328  TYR328      0.0417
     55  CE2      -18.9910   12.2800  -15.3350 C.ar  328  TYR328      0.0417
     56  CZ       -19.4750   12.7290  -16.5500 C.ar  328  TYR328      0.1957
     57  OH       -19.6640   14.0750  -16.7610 O.3   328  TYR328     -0.2866
     58  N         -8.1220   19.5220  -16.8500 N.3   355  HIS355     -0.1241
     59  CA        -9.4310   18.8700  -16.8140 C.3   355  HIS355      0.1621
     60  C         -9.2890   17.3700  -16.5780 C.2   355  HIS355      0.2264
     61  O         -9.9790   16.8020  -15.7330 O.2   355  HIS355     -0.2867
     62  CB       -10.1910   19.0950  -18.1210 C.3   355  HIS355      0.0745
     63  CG       -10.7070   20.4880  -18.3000 C.ar  355  HIS355      0.0817
     64  ND1      -11.5160   21.1070  -17.3700 N.ar  355  HIS355     -0.2268
     65  CD2      -10.5630   21.3680  -19.3190 C.ar  355  HIS355      0.1154
     66  CE1      -11.8320   22.3160  -17.8010 C.ar  355  HIS355      0.1986
     67  NE2      -11.2680   22.4980  -18.9820 N.ar  355  HIS355     -0.2212
     68  N        -10.6600   14.9280  -13.4680 N.3   359  PHE359     -0.1241
     69  CA       -11.4500   13.7020  -13.6790 C.3   359  PHE359      0.1605
     70  C        -10.8610   12.5170  -12.9100 C.2   359  PHE359      0.2264
     71  O        -11.5900   11.7620  -12.2590 O.2   359  PHE359     -0.2867
     72  CB       -11.5330   13.3040  -15.1570 C.3   359  PHE359      0.0534
     73  CG       -12.1530   14.3360  -16.0700 C.ar  359  PHE359     -0.0203
     74  CD1      -13.1470   15.2120  -15.6250 C.ar  359  PHE359     -0.0042
     75  CD2      -11.7710   14.3880  -17.4080 C.ar  359  PHE359     -0.0042
     76  CE1      -13.7170   16.1430  -16.4950 C.ar  359  PHE359     -0.0003
     77  CE2      -12.3340   15.3180  -18.2850 C.ar  359  PHE359     -0.0003
     78  CZ       -13.3120   16.1920  -17.8290 C.ar  359  PHE359     -0.0000
     79  N        -11.1330   12.7840   -8.8700 N.3   362  TYR362     -0.1241
     80  CA       -12.4400   12.5770   -8.2470 C.3   362  TYR362      0.1605
     81  C        -13.2500   11.3770   -8.7450 C.2   362  TYR362      0.2264
     82  O        -14.4110   11.2140   -8.3630 O.2   362  TYR362     -0.2867
     83  CB       -13.2770   13.8750   -8.2480 C.3   362  TYR362      0.0534
     84  CG       -13.7030   14.4620   -9.5930 C.ar  362  TYR362     -0.0201
     85  CD1      -14.2670   13.6760  -10.6010 C.ar  362  TYR362     -0.0009
     86  CD2      -13.6120   15.8350   -9.8140 C.ar  362  TYR362     -0.0009
     87  CE1      -14.6800   14.2450  -11.8150 C.ar  362  TYR362      0.0417
     88  CE2      -14.0250   16.4110  -11.0140 C.ar  362  TYR362      0.0417
     89  CZ       -14.5580   15.6190  -12.0060 C.ar  362  TYR362      0.1957
     90  OH       -14.9660   16.2180  -13.1820 O.3   362  TYR362     -0.2866
     91  N        -17.6310   16.1110  -10.6480 N.3   371  THR371     -0.1218
     92  CA       -17.5440   17.3600  -11.3990 C.3   371  THR371      0.1862
     93  C        -16.7780   18.3540  -10.5280 C.2   371  THR371      0.2287
     94  O        -16.4290   18.0320   -9.3920 O.2   371  THR371     -0.2866
     95  CB       -18.9440   17.8940  -11.8310 C.3   371  THR371      0.1770
     96  OG1      -18.7820   18.9680  -12.7660 O.3   371  THR371     -0.2211
     97  CG2      -19.7570   18.3750  -10.6420 C.3   371  THR371      0.0375
     98  N        -12.7290   23.8850  -12.3650 N.3   378  HIS378     -0.1226
     99  CA       -12.3410   22.9680  -13.4330 C.3   378  HIS378      0.1752
    100  C        -11.4630   23.6620  -14.4670 C.2   378  HIS378      0.2595
    101  O        -10.4740   23.0930  -14.9360 O.2   378  HIS378     -0.2718
    102  CB       -13.5760   22.3610  -14.1050 C.3   378  HIS378      0.0759
    103  CG       -13.5380   20.8670  -14.2000 C.ar  378  HIS378      0.0818
    104  ND1      -12.6250   20.1910  -14.9820 N.ar  378  HIS378     -0.2268
    105  CD2      -14.3050   19.9170  -13.6130 C.ar  378  HIS378      0.1154
    106  CE1      -12.8290   18.8910  -14.8710 C.ar  378  HIS378      0.1986
    107  NE2      -13.8430   18.6970  -14.0460 N.ar  378  HIS378     -0.2212
    108  N        -11.8240   24.8990  -14.8020 N.am  379  GLU379     -0.1979
    109  CA       -11.0900   25.6830  -15.7970 C.3   379  GLU379      0.1602
    110  C         -9.7320   26.1730  -15.2940 C.2   379  GLU379      0.2287
    111  O         -8.8280   26.4350  -16.0900 O.2   379  GLU379     -0.2864
    112  CB       -11.9440   26.8690  -16.2800 C.3   379  GLU379      0.0415
    113  CG       -13.2640   26.4680  -16.9310 C.3   379  GLU379      0.1163
    114  CD       -13.0830   25.4520  -18.0510 C.2   379  GLU379      0.3649
    115  OE1      -12.0230   25.4710  -18.7040 O.co2 379  GLU379     -0.2457
    116  OE2      -13.9920   24.6340  -18.2820 O.co2 379  GLU379     -0.2457
    117  N        -22.1990   26.6910  -24.1350 N.3   486  VAL486     -0.1245
    118  CA       -21.2920   26.4510  -23.0160 C.3   486  VAL486      0.1561
    119  C        -21.2210   27.7330  -22.2000 C.2   486  VAL486      0.2260
    120  O        -20.8690   28.7880  -22.7260 O.2   486  VAL486     -0.2867
    121  CB       -19.8810   26.0510  -23.4980 C.3   486  VAL486      0.0252
    122  CG1      -18.9440   25.8310  -22.3120 C.3   486  VAL486      0.0019
    123  CG2      -19.9490   24.8000  -24.3650 C.3   486  VAL486      0.0019
    124  N        -17.5330   30.6040  -16.0120 N.3   490  ARG490     -0.1245
    125  CA       -16.4910   29.6950  -15.5350 C.3   490  ARG490      0.1563
    126  C        -15.0870   30.1960  -15.8620 C.2   490  ARG490      0.2260
    127  O        -14.1620   29.9910  -15.0790 O.2   490  ARG490     -0.2867
    128  CB       -16.6950   28.2900  -16.1190 C.3   490  ARG490      0.0307
    129  CG       -16.5980   28.2180  -17.6470 C.3   490  ARG490      0.0489
    130  CD       -16.9470   26.8390  -18.1640 C.3   490  ARG490      0.2205
    131  NE       -18.3350   26.4820  -17.8700 N.pl3 490  ARG490     -0.0865
    132  CZ       -18.8970   25.3300  -18.2160 C.cat 490  ARG490      0.5346
    133  NH1      -18.1880   24.4170  -18.8710 N.pl3 490  ARG490      0.1354
    134  NH2      -20.1660   25.0860  -17.9040 N.pl3 490  ARG490      0.1354
@<TRIPOS>BOND
     1    11    10    2
     2    10     9    1
     3     9     8    1
     4     9    12    1
     5    35    37   ar
     6    35    33   ar
     7    18    17    1
     8    37    36   ar
     9    13    14    1
    10    33    32   ar
    11    33    31   ar
    12    32    30   ar
    13    17    14    1
    14     4     3    2
    15    36    34   ar
    16    14    15    1
    17    16    15    2
    18    31    34   ar
    19    31    29   ar
    20    30    29   ar
    21     3     2    1
    22    15    19   am
    23   123   121    1
    24    29    28    1
    25   117   118    1
    26     2     1    1
    27     2     5    1
    28   121   118    1
    29   121   122    1
    30    19    20    1
    31    28    25    1
    32   118   119    1
    33   120   119    2
    34     7     5    1
    35    20    21    1
    36    20    23    1
    37     5     6    1
    38    21    24   am
    39    21    22    2
    40    24    25    1
    41    25    26    1
    42    26    27    2
    43    26    38   am
    44    38    39    1
    45    41    40    2
    46    65    67   ar
    47    65    63   ar
    48    40    39    1
    49    67    66   ar
    50   133   132    1
    51    39    42    1
    52   115   114   ar
    53    63    62    1
    54    63    64   ar
    55    77    78   ar
    56    77    75   ar
    57   116   114   ar
    58   132   134    1
    59   132   131    2
    60   130   131    1
    61   130   129    1
    62    62    59    1
    63   114   113    1
    64    78    76   ar
    65    66    64   ar
    66   129   128    1
    67    54    52   ar
    68    54    56   ar
    69    42    43    1
    70    75    73   ar
    71    52    51   ar
    72    46    47    1
    73   113   112    1
    74    58    59    1
    75    59    60    1
    76    57    56    1
    77    60    61    2
    78    56    55   ar
    79    76    74   ar
    80    45    43   ar
    81   112   109    1
    82    43    44   ar
    83    51    50    1
    84    51    53   ar
    85   128   125    1
    86   111   110    2
    87    73    74   ar
    88    73    72    1
    89   124   125    1
    90    47    50    1
    91    47    48    1
    92   126   125    1
    93   126   127    2
    94   109   110    1
    95   109   108    1
    96    48    49    2
    97    55    53   ar
    98    72    69    1
    99   104   106   ar
   100   104   103   ar
   101   101   100    2
   102   106   107   ar
   103   108   100   am
   104   100    99    1
   105   103   102    1
   106   103   105   ar
   107   102    99    1
   108   107   105   ar
   109    69    68    1
   110    69    70    1
   111    99    98    1
   112    90    89    1
   113    70    71    2
   114    96    95    1
   115    89    87   ar
   116    89    88   ar
   117    95    92    1
   118    95    97    1
   119    87    85   ar
   120    92    91    1
   121    92    93    1
   122    88    86   ar
   123    85    84   ar
   124    93    94    2
   125    86    84   ar
   126    84    83    1
   127    79    80    1
   128    81    82    2
   129    81    80    1
   130    83    80    1
