@<TRIPOS>MOLECULE
tmp/2x90A02.pdb
 220 216 0 0 0
SMALL
GASTEIGER

@<TRIPOS>ATOM
      1  N        -23.8510   23.8810  -33.3510 N.3   108  GLU108     -0.1245
      2  CA       -22.4770   23.4080  -33.1870 C.3   108  GLU108      0.1567
      3  C        -21.9010   22.8610  -34.4990 C.2   108  GLU108      0.2260
      4  O        -20.7370   23.1080  -34.8060 O.2   108  GLU108     -0.2867
      5  CB       -22.3440   22.3830  -32.0470 C.3   108  GLU108      0.0388
      6  CG       -20.8920   21.9280  -31.8130 C.3   108  GLU108      0.1160
      7  CD       -20.6070   21.3780  -30.4190 C.2   108  GLU108      0.3649
      8  OE1      -21.5500   21.2170  -29.6070 O.co2 108  GLU108     -0.2457
      9  OE2      -19.4170   21.1090  -30.1350 O.co2 108  GLU108     -0.2457
     10  N        -10.1250   38.1300  -27.7090 N.3   249  GLN249     -0.1231
     11  CA       -10.2190   37.6960  -26.3160 C.3   249  GLN249      0.1698
     12  C         -8.8700   37.6970  -25.6080 C.2   249  GLN249      0.2592
     13  O         -8.8100   37.8290  -24.3880 O.2   249  GLN249     -0.2718
     14  CB       -10.8710   36.3190  -26.2190 C.3   249  GLN249      0.0381
     15  CG       -10.0680   35.1750  -26.8030 C.3   249  GLN249      0.0905
     16  CD       -10.8370   33.8790  -26.7540 C.2   249  GLN249      0.2608
     17  OE1      -11.8880   33.7410  -27.3850 O.2   249  GLN249     -0.2717
     18  NE2      -10.3270   32.9210  -25.9980 N.am  249  GLN249     -0.0878
     19  N         -7.8060   37.5220  -26.3870 N.am  250  GLN250     -0.1979
     20  CA        -6.4270   37.5730  -25.9050 C.3   250  GLN250      0.1601
     21  C         -5.5740   38.1940  -27.0020 C.2   250  GLN250      0.2287
     22  O         -5.7730   37.8990  -28.1830 O.2   250  GLN250     -0.2864
     23  CB        -5.9160   36.1740  -25.5510 C.3   250  GLN250      0.0394
     24  CG        -6.4700   35.6490  -24.2230 C.3   250  GLN250      0.0908
     25  CD        -5.8660   34.3210  -23.7880 C.2   250  GLN250      0.2608
     26  OE1       -5.1230   33.6740  -24.5390 O.2   250  GLN250     -0.2717
     27  NE2       -6.1920   33.9040  -22.5690 N.am  250  GLN250     -0.0878
     28  N        -12.4250   22.4860  -31.9240 N.3   321  HIS321     -0.1226
     29  CA       -12.2660   23.2220  -30.6730 C.3   321  HIS321      0.1752
     30  C        -11.8960   22.2500  -29.5520 C.2   321  HIS321      0.2596
     31  O        -12.6460   21.3150  -29.2680 O.2   321  HIS321     -0.2718
     32  CB       -13.5220   24.0260  -30.3170 C.3   321  HIS321      0.0759
     33  CG       -13.3120   24.9770  -29.1780 C.ar  321  HIS321      0.0818
     34  ND1      -13.1050   26.3280  -29.3630 N.ar  321  HIS321     -0.2268
     35  CD2      -13.2360   24.7650  -27.8430 C.ar  321  HIS321      0.1154
     36  CE1      -12.9290   26.9090  -28.1900 C.ar  321  HIS321      0.1986
     37  NE2      -13.0010   25.9810  -27.2520 N.ar  321  HIS321     -0.2212
     38  N        -10.7360   22.4810  -28.9340 N.am  322  ALA322     -0.1966
     39  CA       -10.1290   21.5450  -27.9840 C.3   322  ALA322      0.1728
     40  C        -11.0250   21.2610  -26.7820 C.2   322  ALA322      0.2617
     41  O        -11.6730   22.1710  -26.2560 O.2   322  ALA322     -0.2715
     42  CB        -8.7680   22.0600  -27.5290 C.3   322  ALA322      0.0334
     43  N        -11.0630   19.9980  -26.3580 N.am  323  SER323     -0.1936
     44  CA       -11.9350   19.5780  -25.2580 C.3   323  SER323      0.2055
     45  C        -11.4030   18.3370  -24.5440 C.2   323  SER323      0.2643
     46  O        -10.6530   17.5490  -25.1250 O.2   323  SER323     -0.2714
     47  CB       -13.3550   19.3200  -25.7700 C.3   323  SER323      0.2130
     48  OG       -13.3750   18.2200  -26.6640 O.3   323  SER323     -0.2179
     49  N        -11.7920   18.1870  -23.2790 N.am  324  ALA324     -0.1963
     50  CA       -11.4040   17.0500  -22.4490 C.3   324  ALA324      0.1728
     51  C        -12.6630   16.3310  -21.9790 C.2   324  ALA324      0.2616
     52  O        -13.6650   16.9740  -21.6430 O.2   324  ALA324     -0.2715
     53  CB       -10.5750   17.5180  -21.2590 C.3   324  ALA324      0.0334
     54  N        -12.6010   15.0020  -21.9500 N.am  325  TRP325     -0.1974
     55  CA       -13.7910   14.1750  -21.7850 C.3   325  TRP325      0.1640
     56  C        -13.6350   13.1440  -20.6710 C.2   325  TRP325      0.2290
     57  O        -12.6140   12.4560  -20.5850 O.2   325  TRP325     -0.2864
     58  CB       -14.1170   13.4600  -23.0980 C.3   325  TRP325      0.0576
     59  CG       -14.5410   14.3610  -24.2260 C.ar  325  TRP325      0.0006
     60  CD1      -13.7730   15.2940  -24.8660 C.ar  325  TRP325      0.0946
     61  CD2      -15.8200   14.3900  -24.8660 C.ar  325  TRP325      0.0152
     62  NE1      -14.4990   15.9110  -25.8510 N.ar  325  TRP325     -0.2442
     63  CE2      -15.7590   15.3760  -25.8760 C.ar  325  TRP325      0.0810
     64  CE3      -17.0130   13.6770  -24.6860 C.ar  325  TRP325      0.0012
     65  CZ2      -16.8450   15.6740  -26.7010 C.ar  325  TRP325      0.0191
     66  CZ3      -18.0930   13.9710  -25.5070 C.ar  325  TRP325      0.0001
     67  CH2      -18.0010   14.9620  -26.5030 C.ar  325  TRP325      0.0015
     68  N         -2.6370   25.3850  -24.2220 N.3   348  THR348     -0.1218
     69  CA        -3.9130   24.6940  -24.4250 C.3   348  THR348      0.1862
     70  C         -3.8220   23.2170  -24.0050 C.2   348  THR348      0.2287
     71  O         -4.7340   22.7010  -23.3590 O.2   348  THR348     -0.2866
     72  CB        -4.4250   24.8330  -25.8760 C.3   348  THR348      0.1770
     73  OG1       -4.5540   26.2230  -26.2020 O.3   348  THR348     -0.2211
     74  CG2       -5.7900   24.1760  -26.0420 C.3   348  THR348      0.0375
     75  N         -3.9490   23.2160  -20.2850 N.3   351  HIS351     -0.1226
     76  CA        -5.3250   23.5270  -19.8900 C.3   351  HIS351      0.1752
     77  C         -6.2000   22.2720  -19.9060 C.2   351  HIS351      0.2595
     78  O         -6.8870   21.9650  -18.9240 O.2   351  HIS351     -0.2718
     79  CB        -5.9470   24.5910  -20.8030 C.3   351  HIS351      0.0759
     80  CG        -7.3720   24.8920  -20.4670 C.ar  351  HIS351      0.0818
     81  ND1       -7.7280   25.8760  -19.5720 N.ar  351  HIS351     -0.2268
     82  CD2       -8.5260   24.3060  -20.8620 C.ar  351  HIS351      0.1154
     83  CE1       -9.0420   25.9000  -19.4470 C.ar  351  HIS351      0.1986
     84  NE2       -9.5500   24.9510  -20.2110 N.ar  351  HIS351     -0.2212
     85  N         -6.1700   21.5590  -21.0280 N.am  352  GLU352     -0.1979
     86  CA        -6.9840   20.3650  -21.2120 C.3   352  GLU352      0.1602
     87  C         -6.5630   19.2330  -20.2780 C.2   352  GLU352      0.2287
     88  O         -7.4130   18.5020  -19.7640 O.2   352  GLU352     -0.2864
     89  CB        -6.9600   19.9090  -22.6750 C.3   352  GLU352      0.0415
     90  CG        -7.4880   20.9440  -23.6730 C.3   352  GLU352      0.1163
     91  CD        -8.9360   21.3470  -23.4250 C.2   352  GLU352      0.3649
     92  OE1       -9.6810   20.5770  -22.7790 O.co2 352  GLU352     -0.2457
     93  OE2       -9.3310   22.4400  -23.8930 O.co2 352  GLU352     -0.2457
     94  N         -8.1220   19.5220  -16.8500 N.3   355  HIS355     -0.1241
     95  CA        -9.4310   18.8700  -16.8140 C.3   355  HIS355      0.1621
     96  C         -9.2890   17.3700  -16.5780 C.2   355  HIS355      0.2264
     97  O         -9.9790   16.8020  -15.7330 O.2   355  HIS355     -0.2867
     98  CB       -10.1910   19.0950  -18.1210 C.3   355  HIS355      0.0745
     99  CG       -10.7070   20.4880  -18.3000 C.ar  355  HIS355      0.0817
    100  ND1      -11.5160   21.1070  -17.3700 N.ar  355  HIS355     -0.2268
    101  CD2      -10.5630   21.3680  -19.3190 C.ar  355  HIS355      0.1154
    102  CE1      -11.8320   22.3160  -17.8010 C.ar  355  HIS355      0.1986
    103  NE2      -11.2680   22.4980  -18.9820 N.ar  355  HIS355     -0.2212
    104  N        -11.8240   24.8990  -14.8020 N.3   379  GLU379     -0.1245
    105  CA       -11.0900   25.6830  -15.7970 C.3   379  GLU379      0.1567
    106  C         -9.7320   26.1730  -15.2940 C.2   379  GLU379      0.2260
    107  O         -8.8280   26.4350  -16.0900 O.2   379  GLU379     -0.2867
    108  CB       -11.9440   26.8690  -16.2800 C.3   379  GLU379      0.0388
    109  CG       -13.2640   26.4680  -16.9310 C.3   379  GLU379      0.1160
    110  CD       -13.0830   25.4520  -18.0510 C.2   379  GLU379      0.3649
    111  OE1      -12.0230   25.4710  -18.7040 O.co2 379  GLU379     -0.2457
    112  OE2      -13.9920   24.6340  -18.2820 O.co2 379  GLU379     -0.2457
    113  N         -4.4960   25.8920  -16.1240 N.3   383  ASP383     -0.1239
    114  CA        -3.9360   27.2410  -16.2830 C.3   383  ASP383      0.1674
    115  C         -2.9010   27.5800  -15.2090 C.2   383  ASP383      0.2266
    116  O         -1.9690   28.3440  -15.4610 O.2   383  ASP383     -0.2867
    117  CB        -5.0530   28.2890  -16.3120 C.3   383  ASP383      0.1410
    118  CG        -5.8090   28.3070  -17.6350 C.2   383  ASP383      0.3668
    119  OD1       -5.7270   27.3120  -18.3960 O.co2 383  ASP383     -0.2456
    120  OD2       -6.4900   29.3250  -17.9180 O.co2 383  ASP383     -0.2456
    121  N         -8.4610   39.3190  -21.1460 N.3   425  PHE425     -0.1241
    122  CA        -9.5200   38.3160  -21.1890 C.3   425  PHE425      0.1605
    123  C        -10.6860   38.6150  -20.2480 C.2   425  PHE425      0.2264
    124  O        -11.8170   38.2170  -20.5170 O.2   425  PHE425     -0.2867
    125  CB        -8.9170   36.9510  -20.8470 C.3   425  PHE425      0.0534
    126  CG        -9.8740   35.7940  -20.9850 C.ar  425  PHE425     -0.0203
    127  CD1      -10.1540   35.2460  -22.2350 C.ar  425  PHE425     -0.0042
    128  CD2      -10.4660   35.2330  -19.8590 C.ar  425  PHE425     -0.0042
    129  CE1      -11.0230   34.1650  -22.3600 C.ar  425  PHE425     -0.0003
    130  CE2      -11.3290   34.1490  -19.9690 C.ar  425  PHE425     -0.0003
    131  CZ       -11.6080   33.6130  -21.2220 C.ar  425  PHE425     -0.0000
    132  N        -18.6180   32.9160  -31.8210 N.3   479  LYS479     -0.1231
    133  CA       -17.7810   32.3980  -30.7410 C.3   479  LYS479      0.1693
    134  C        -18.2680   30.9920  -30.3800 C.2   479  LYS479      0.2592
    135  O        -19.4620   30.7930  -30.1250 O.2   479  LYS479     -0.2718
    136  CB       -17.8300   33.3400  -29.5280 C.3   479  LYS479      0.0285
    137  CG       -17.1330   32.8230  -28.2600 C.3   479  LYS479      0.0035
    138  CD       -15.6150   32.8160  -28.3960 C.3   479  LYS479      0.0206
    139  CE       -14.9720   32.0780  -27.2240 C.3   479  LYS479      0.1093
    140  NZ       -13.6110   31.5670  -27.5580 N.3   479  LYS479     -0.1314
    141  N        -17.3450   30.0290  -30.3710 N.am  480  TYR480     -0.1962
    142  CA       -17.6790   28.6110  -30.1750 C.3   480  TYR480      0.1771
    143  C        -18.6810   28.3660  -29.0470 C.2   480  TYR480      0.2619
    144  O        -19.7070   27.7260  -29.2530 O.2   480  TYR480     -0.2715
    145  CB       -16.4170   27.7650  -29.9360 C.3   480  TYR480      0.0574
    146  CG       -16.7270   26.3240  -29.5600 C.ar  480  TYR480     -0.0198
    147  CD1      -17.1650   25.4080  -30.5220 C.ar  480  TYR480     -0.0009
    148  CD2      -16.6050   25.8860  -28.2420 C.ar  480  TYR480     -0.0009
    149  CE1      -17.4640   24.0890  -30.1840 C.ar  480  TYR480      0.0417
    150  CE2      -16.8980   24.5670  -27.8910 C.ar  480  TYR480      0.0417
    151  CZ       -17.3270   23.6760  -28.8710 C.ar  480  TYR480      0.1957
    152  OH       -17.6230   22.3750  -28.5310 O.3   480  TYR480     -0.2866
    153  N        -18.3700   28.8870  -27.8630 N.am  481  HIS481     -0.1973
    154  CA       -19.1610   28.6430  -26.6610 C.3   481  HIS481      0.1656
    155  C        -20.5970   29.1120  -26.7870 C.2   481  HIS481      0.2291
    156  O        -21.4970   28.5390  -26.1760 O.2   481  HIS481     -0.2864
    157  CB       -18.4900   29.3000  -25.4590 C.3   481  HIS481      0.0771
    158  CG       -17.1450   28.7290  -25.1520 C.ar  481  HIS481      0.0820
    159  ND1      -16.0450   28.9510  -25.9520 N.ar  481  HIS481     -0.2267
    160  CD2      -16.7260   27.9240  -24.1480 C.ar  481  HIS481      0.1154
    161  CE1      -15.0020   28.3220  -25.4440 C.ar  481  HIS481      0.1986
    162  NE2      -15.3880   27.6900  -24.3510 N.ar  481  HIS481     -0.2212
    163  N        -22.2150   26.5440  -29.1130 N.3   484  ALA484     -0.1245
    164  CA       -22.2370   25.2290  -28.4560 C.3   484  ALA484      0.1562
    165  C        -22.9340   25.2190  -27.0960 C.2   484  ALA484      0.2260
    166  O        -22.9470   24.1890  -26.4130 O.2   484  ALA484     -0.2867
    167  CB       -20.8250   24.6720  -28.3290 C.3   484  ALA484      0.0290
    168  N        -22.1990   26.6910  -24.1350 N.3   486  VAL486     -0.1245
    169  CA       -21.2920   26.4510  -23.0160 C.3   486  VAL486      0.1561
    170  C        -21.2210   27.7330  -22.2000 C.2   486  VAL486      0.2260
    171  O        -20.8690   28.7880  -22.7260 O.2   486  VAL486     -0.2867
    172  CB       -19.8810   26.0510  -23.4980 C.3   486  VAL486      0.0252
    173  CG1      -18.9440   25.8310  -22.3120 C.3   486  VAL486      0.0019
    174  CG2      -19.9490   24.8000  -24.3650 C.3   486  VAL486      0.0019
    175  N        -19.9940   30.6740  -19.9500 N.3   488  TYR488     -0.1241
    176  CA       -18.6770   31.3040  -20.0480 C.3   488  TYR488      0.1605
    177  C        -18.1320   31.8960  -18.7470 C.2   488  TYR488      0.2264
    178  O        -16.9240   32.1210  -18.6340 O.2   488  TYR488     -0.2867
    179  CB       -18.6290   32.3510  -21.1730 C.3   488  TYR488      0.0534
    180  CG       -17.2810   32.3860  -21.8550 C.ar  488  TYR488     -0.0201
    181  CD1      -16.9730   31.4770  -22.8700 C.ar  488  TYR488     -0.0009
    182  CD2      -16.3030   33.3050  -21.4710 C.ar  488  TYR488     -0.0009
    183  CE1      -15.7330   31.4890  -23.4940 C.ar  488  TYR488      0.0417
    184  CE2      -15.0530   33.3260  -22.0910 C.ar  488  TYR488      0.0417
    185  CZ       -14.7770   32.4120  -23.0990 C.ar  488  TYR488      0.1957
    186  OH       -13.5440   32.4160  -23.7120 O.3   488  TYR488     -0.2866
    187  N        -17.5330   30.6040  -16.0120 N.3   490  ARG490     -0.1231
    188  CA       -16.4910   29.6950  -15.5350 C.3   490  ARG490      0.1694
    189  C        -15.0870   30.1960  -15.8620 C.2   490  ARG490      0.2592
    190  O        -14.1620   29.9910  -15.0790 O.2   490  ARG490     -0.2718
    191  CB       -16.6950   28.2900  -16.1190 C.3   490  ARG490      0.0321
    192  CG       -16.5980   28.2180  -17.6470 C.3   490  ARG490      0.0489
    193  CD       -16.9470   26.8390  -18.1640 C.3   490  ARG490      0.2205
    194  NE       -18.3350   26.4820  -17.8700 N.pl3 490  ARG490     -0.0865
    195  CZ       -18.8970   25.3300  -18.2160 C.cat 490  ARG490      0.5346
    196  NH1      -18.1880   24.4170  -18.8710 N.pl3 490  ARG490      0.1354
    197  NH2      -20.1660   25.0860  -17.9040 N.pl3 490  ARG490      0.1354
    198  N        -14.9300   30.8500  -17.0160 N.am  491  TYR491     -0.1976
    199  CA       -13.6220   31.3560  -17.4310 C.3   491  TYR491      0.1639
    200  C        -13.2400   32.6570  -16.7270 C.2   491  TYR491      0.2290
    201  O        -12.0670   32.8740  -16.4370 O.2   491  TYR491     -0.2864
    202  CB       -13.5390   31.5110  -18.9540 C.3   491  TYR491      0.0560
    203  CG       -13.7810   30.2190  -19.6990 C.ar  491  TYR491     -0.0198
    204  CD1      -12.8080   29.2160  -19.7410 C.ar  491  TYR491     -0.0009
    205  CD2      -14.9840   29.9960  -20.3550 C.ar  491  TYR491     -0.0009
    206  CE1      -13.0330   28.0200  -20.4300 C.ar  491  TYR491      0.0417
    207  CE2      -15.2220   28.8050  -21.0440 C.ar  491  TYR491      0.0417
    208  CZ       -14.2430   27.8240  -21.0750 C.ar  491  TYR491      0.1957
    209  OH       -14.4830   26.6530  -21.7540 O.3   491  TYR491     -0.2866
    210  N         -9.9360   32.7510  -14.3530 N.3   495  PHE495     -0.1241
    211  CA        -8.8420   33.7100  -14.5120 C.3   495  PHE495      0.1605
    212  C         -8.5490   34.5070  -13.2380 C.2   495  PHE495      0.2264
    213  O         -7.4310   34.9730  -13.0540 O.2   495  PHE495     -0.2867
    214  CB        -9.0780   34.6260  -15.7160 C.3   495  PHE495      0.0534
    215  CG        -8.6120   34.0400  -17.0270 C.ar  495  PHE495     -0.0203
    216  CD1       -7.7230   34.7410  -17.8360 C.ar  495  PHE495     -0.0042
    217  CD2       -9.0550   32.7880  -17.4490 C.ar  495  PHE495     -0.0042
    218  CE1       -7.2840   34.2080  -19.0490 C.ar  495  PHE495     -0.0003
    219  CE2       -8.6230   32.2430  -18.6610 C.ar  495  PHE495     -0.0003
    220  CZ        -7.7370   32.9580  -19.4620 C.ar  495  PHE495     -0.0000
@<TRIPOS>BOND
     1     4     3    2
     2     3     2    1
     3     1     2    1
     4     2     5    1
     5     5     6    1
     6    28    29    1
     7   132   133    1
     8     6     7    1
     9   133   134    1
    10   133   136    1
    11    29    32    1
    12    29    30    1
    13   147   149   ar
    14   147   146   ar
    15     7     9   ar
    16     7     8   ar
    17   134   141   am
    18   134   135    2
    19   141   142    1
    20    32    33    1
    21   149   151   ar
    22   142   145    1
    23   142   143    1
    24   145   146    1
    25   146   148   ar
    26    30    31    2
    27    30    38   am
    28   136   137    1
    29    34    33   ar
    30    34    36   ar
    31   144   143    2
    32    33    35   ar
    33   163   164    1
    34   143   153   am
    35    38    39    1
    36   151   152    1
    37   151   150   ar
    38   164   167    1
    39   164   165    1
    40   138   137    1
    41   138   139    1
    42   148   150   ar
    43    36    37   ar
    44    22    21    2
    45    39    42    1
    46    39    40    1
    47   153   154    1
    48    35    37   ar
    49    10    11    1
    50   140   139    1
    51    17    16    2
    52   165   166    2
    53    21    20    1
    54    15    16    1
    55    15    14    1
    56   155   154    1
    57   155   156    2
    58    40    43   am
    59    40    41    2
    60    16    18   am
    61    65    67   ar
    62    65    63   ar
    63    48    47    1
    64   154   157    1
    65    67    66   ar
    66    19    20    1
    67    19    12   am
    68    43    44    1
    69    11    14    1
    70    11    12    1
    71    73    72    1
    72    74    72    1
    73   159   161   ar
    74   159   158   ar
    75    20    23    1
    76    72    69    1
    77    63    62   ar
    78    63    61   ar
    79    62    60   ar
    80    47    44    1
    81    12    13    2
    82    23    24    1
    83    66    64   ar
    84   157   158    1
    85   161   162   ar
    86    44    45    1
    87   158   160   ar
    88    46    45    2
    89    60    59   ar
    90    61    64   ar
    91    61    59   ar
    92    45    49   am
    93    26    25    2
    94    69    68    1
    95    69    70    1
    96   174   172    1
    97   162   160   ar
    98    59    58    1
    99    24    25    1
   100   168   169    1
   101    70    71    2
   102    93    91   ar
   103    25    27   am
   104   186   185    1
   105    90    91    1
   106    90    89    1
   107   172   169    1
   108   172   173    1
   109   183   185   ar
   110   183   181   ar
   111    91    92   ar
   112    49    50    1
   113   185   184   ar
   114    58    55    1
   115   169   170    1
   116   181   180   ar
   117   171   170    2
   118    89    86    1
   119    50    51    1
   120    50    53    1
   121   129   127   ar
   122   129   131   ar
   123   127   126   ar
   124   184   182   ar
   125    51    54   am
   126    51    52    2
   127    54    55    1
   128   180   182   ar
   129   180   179    1
   130    55    56    1
   131   209   208    1
   132   131   130   ar
   133    86    85    1
   134    86    87    1
   135   122   121    1
   136   122   125    1
   137   122   123    1
   138   179   176    1
   139   208   207   ar
   140   208   206   ar
   141   207   205   ar
   142    85    77   am
   143   126   125    1
   144   126   128   ar
   145    82    80   ar
   146    82    84   ar
   147    79    80    1
   148    79    76    1
   149    56    57    2
   150   124   123    2
   151    80    81   ar
   152   206   204   ar
   153   205   203   ar
   154    75    76    1
   155    87    88    2
   156    84    83   ar
   157   176   175    1
   158   176   177    1
   159   130   128   ar
   160    77    76    1
   161    77    78    2
   162   204   203   ar
   163   203   202    1
   164    81    83   ar
   165   220   218   ar
   166   220   219   ar
   167   101   103   ar
   168   101    99   ar
   169   218   216   ar
   170   103   102   ar
   171   202   199    1
   172   196   195    1
   173   177   178    2
   174   111   110   ar
   175   219   217   ar
   176   119   118   ar
   177    99    98    1
   178    99   100   ar
   179   112   110   ar
   180   195   197    1
   181   195   194    2
   182   193   194    1
   183   193   192    1
   184    98    95    1
   185   110   109    1
   186   120   118   ar
   187   216   215   ar
   188   102   100   ar
   189   192   191    1
   190   118   117    1
   191   217   215   ar
   192   199   198    1
   193   199   200    1
   194   215   214    1
   195   198   189   am
   196   109   108    1
   197    94    95    1
   198    95    96    1
   199   200   201    2
   200    96    97    2
   201   117   114    1
   202   114   113    1
   203   114   115    1
   204   108   105    1
   205   191   188    1
   206   107   106    2
   207   187   188    1
   208   189   188    1
   209   189   190    2
   210   105   106    1
   211   105   104    1
   212   214   211    1
   213   116   115    2
   214   211   210    1
   215   211   212    1
   216   212   213    2
