@<TRIPOS>MOLECULE
tmp/2x91A00.pdb
 271 265 0 0 0
SMALL
GASTEIGER

@<TRIPOS>ATOM
      1  N         32.5160    8.6490   34.8190 N.3   105  GLU105     -0.1245
      2  CA        31.4200    7.6920   34.9790 C.3   105  GLU105      0.1567
      3  C         30.6790    7.4500   33.6600 C.2   105  GLU105      0.2260
      4  O         30.3610    6.3050   33.3330 O.2   105  GLU105     -0.2867
      5  CB        30.4470    8.0980   36.1000 C.3   105  GLU105      0.0388
      6  CG        29.3770    7.0310   36.3870 C.3   105  GLU105      0.1160
      7  CD        28.7890    7.0920   37.7930 C.2   105  GLU105      0.3649
      8  OE1       29.1490    8.0020   38.5720 O.co2 105  GLU105     -0.2457
      9  OE2       27.9620    6.2140   38.1210 O.co2 105  GLU105     -0.2457
     10  N         30.5300   -9.2390   29.8360 N.3   131  GLU131     -0.1245
     11  CA        30.5500  -10.0320   31.0680 C.3   131  GLU131      0.1567
     12  C         30.0860  -11.4650   30.8490 C.2   131  GLU131      0.2260
     13  O         30.5660  -12.3850   31.5190 O.2   131  GLU131     -0.2867
     14  CB        29.7100   -9.3720   32.1610 C.3   131  GLU131      0.0388
     15  CG        30.3790   -8.1470   32.7540 C.3   131  GLU131      0.1160
     16  CD        29.7860   -7.7240   34.0840 C.2   131  GLU131      0.3649
     17  OE1       28.5420   -7.6210   34.1880 O.co2 131  GLU131     -0.2457
     18  OE2       30.5780   -7.4860   35.0220 O.co2 131  GLU131     -0.2457
     19  N         37.8050   -8.2960   36.3770 N.3   244  TRP244     -0.1241
     20  CA        38.7740   -7.7080   37.3030 C.3   244  TRP244      0.1605
     21  C         39.4050   -8.7770   38.1960 C.2   244  TRP244      0.2264
     22  O         40.2250   -8.4640   39.0630 O.2   244  TRP244     -0.2867
     23  CB        38.0940   -6.6070   38.1290 C.3   244  TRP244      0.0550
     24  CG        37.3310   -5.6760   37.2390 C.ar  244  TRP244      0.0003
     25  CD1       37.8230   -4.5870   36.5760 C.ar  244  TRP244      0.0946
     26  CD2       35.9540   -5.7930   36.8550 C.ar  244  TRP244      0.0152
     27  NE1       36.8300   -4.0060   35.8220 N.ar  244  TRP244     -0.2442
     28  CE2       35.6750   -4.7280   35.9710 C.ar  244  TRP244      0.0810
     29  CE3       34.9290   -6.6910   37.1760 C.ar  244  TRP244      0.0012
     30  CZ2       34.4110   -4.5340   35.4040 C.ar  244  TRP244      0.0191
     31  CZ3       33.6700   -6.5000   36.6110 C.ar  244  TRP244      0.0001
     32  CH2       33.4230   -5.4250   35.7410 C.ar  244  TRP244      0.0015
     33  N         38.0760  -10.3050   40.5480 N.3   246  GLN246     -0.1231
     34  CA        37.7690   -9.9780   41.9400 C.3   246  GLN246      0.1698
     35  C         37.1200  -11.1410   42.6700 C.2   246  GLN246      0.2592
     36  O         37.2060  -11.2380   43.8960 O.2   246  GLN246     -0.2718
     37  CB        36.8830   -8.7370   42.0280 C.3   246  GLN246      0.0381
     38  CG        35.4710   -8.8900   41.4870 C.3   246  GLN246      0.0905
     39  CD        34.7270   -7.5780   41.5140 C.2   246  GLN246      0.2608
     40  OE1       35.1110   -6.6220   40.8400 O.2   246  GLN246     -0.2717
     41  NE2       33.6640   -7.5200   42.2990 N.am  246  GLN246     -0.0878
     42  N         36.4620  -12.0050   41.9020 N.am  247  GLN247     -0.1979
     43  CA        35.8020  -13.2040   42.4090 C.3   247  GLN247      0.1601
     44  C         35.8740  -14.2720   41.3140 C.2   247  GLN247      0.2287
     45  O         35.7260  -13.9550   40.1300 O.2   247  GLN247     -0.2864
     46  CB        34.3540  -12.8880   42.7990 C.3   247  GLN247      0.0394
     47  CG        34.2510  -12.2410   44.1870 C.3   247  GLN247      0.0908
     48  CD        32.9990  -11.4050   44.4070 C.2   247  GLN247      0.2608
     49  OE1       32.7810  -10.3780   43.7430 O.2   247  GLN247     -0.2717
     50  NE2       32.1910  -11.8140   45.3780 N.am  247  GLN247     -0.0878
     51  N         25.5680   -0.5650   36.3400 N.3   318  HIS318     -0.1226
     52  CA        26.1320   -1.0420   37.6080 C.3   318  HIS318      0.1752
     53  C         25.1240   -0.8810   38.7450 C.2   318  HIS318      0.2596
     54  O         24.7430    0.2440   39.0950 O.2   318  HIS318     -0.2718
     55  CB        27.4560   -0.3400   37.9470 C.3   318  HIS318      0.0759
     56  CG        28.1960   -0.9800   39.0830 C.ar  318  HIS318      0.0818
     57  ND1       29.3010   -1.7830   38.8940 N.ar  318  HIS318     -0.2268
     58  CD2       27.9720   -0.9580   40.4190 C.ar  318  HIS318      0.1154
     59  CE1       29.7310   -2.2200   40.0650 C.ar  318  HIS318      0.1986
     60  NE2       28.9400   -1.7350   41.0070 N.ar  318  HIS318     -0.2212
     61  N         24.7050   -2.0160   39.3080 N.am  319  ALA319     -0.1966
     62  CA        23.6120   -2.0810   40.2860 C.3   319  ALA319      0.1728
     63  C         23.8270   -1.1560   41.4810 C.2   319  ALA319      0.2617
     64  O         24.9350   -1.0720   42.0150 O.2   319  ALA319     -0.2715
     65  CB        23.4060   -3.5160   40.7550 C.3   319  ALA319      0.0334
     66  N         22.7640   -0.4670   41.8900 N.am  320  SER320     -0.1936
     67  CA        22.8430    0.5120   42.9770 C.3   320  SER320      0.2055
     68  C         21.5100    0.6700   43.7020 C.2   320  SER320      0.2643
     69  O         20.4460    0.3780   43.1460 O.2   320  SER320     -0.2714
     70  CB        23.3100    1.8700   42.4450 C.3   320  SER320      0.2130
     71  OG        22.3900    2.3930   41.5050 O.3   320  SER320     -0.2179
     72  N         21.5860    1.1320   44.9500 N.am  321  ALA321     -0.1963
     73  CA        20.4120    1.3520   45.7870 C.3   321  ALA321      0.1728
     74  C         20.4080    2.8040   46.2640 C.2   321  ALA321      0.2616
     75  O         21.4620    3.3690   46.5660 O.2   321  ALA321     -0.2715
     76  CB        20.4120    0.3870   46.9660 C.3   321  ALA321      0.0334
     77  N         19.2190    3.3960   46.3310 N.am  322  TRP322     -0.1974
     78  CA        19.0800    4.8390   46.4660 C.3   322  TRP322      0.1640
     79  C         18.1050    5.2290   47.5730 C.2   322  TRP322      0.2290
     80  O         16.9950    4.6930   47.6590 O.2   322  TRP322     -0.2864
     81  CB        18.6100    5.4450   45.1420 C.3   322  TRP322      0.0576
     82  CG        19.5900    5.3310   44.0100 C.ar  322  TRP322      0.0006
     83  CD1       19.9970    4.1830   43.3890 C.ar  322  TRP322      0.0946
     84  CD2       20.2580    6.4050   43.3390 C.ar  322  TRP322      0.0152
     85  NE1       20.8850    4.4740   42.3890 N.ar  322  TRP322     -0.2442
     86  CE2       21.0640    5.8300   42.3320 C.ar  322  TRP322      0.0810
     87  CE3       20.2560    7.7980   43.4910 C.ar  322  TRP322      0.0012
     88  CZ2       21.8670    6.5970   41.4840 C.ar  322  TRP322      0.0191
     89  CZ3       21.0500    8.5610   42.6440 C.ar  322  TRP322      0.0001
     90  CH2       21.8450    7.9580   41.6540 C.ar  322  TRP322      0.0015
     91  N         19.5790   -9.7970   35.4530 N.3   337  ARG337     -0.1245
     92  CA        19.5180  -11.0090   34.6440 C.3   337  ARG337      0.1563
     93  C         19.0850  -12.1610   35.5380 C.2   337  ARG337      0.2260
     94  O         19.2330  -12.0950   36.7610 O.2   337  ARG337     -0.2867
     95  CB        20.8780  -11.3080   34.0090 C.3   337  ARG337      0.0307
     96  CG        21.3680  -10.2380   33.0390 C.3   337  ARG337      0.0489
     97  CD        22.7530  -10.5750   32.4780 C.3   337  ARG337      0.2205
     98  NE        23.8310  -10.3760   33.4540 N.pl3 337  ARG337     -0.0865
     99  CZ        24.4270  -11.3540   34.1390 C.cat 337  ARG337      0.5346
    100  NH1       24.0600  -12.6190   33.9680 N.pl3 337  ARG337      0.1354
    101  NH2       25.3980  -11.0690   35.0010 N.pl3 337  ARG337      0.1354
    102  N         24.2190  -15.5500   40.4650 N.3   341  ASP341     -0.1225
    103  CA        24.9980  -14.3750   40.8630 C.3   341  ASP341      0.1805
    104  C         24.1160  -13.1390   41.0190 C.2   341  ASP341      0.2597
    105  O         24.2500  -12.4030   42.0010 O.2   341  ASP341     -0.2718
    106  CB        26.1190  -14.0900   39.8530 C.3   341  ASP341      0.1424
    107  CG        26.9830  -12.8970   40.2550 C.2   341  ASP341      0.3668
    108  OD1       27.6900  -12.9870   41.2820 O.co2 341  ASP341     -0.2456
    109  OD2       26.9610  -11.8700   39.5400 O.co2 341  ASP341     -0.2456
    110  N         23.2230  -12.9250   40.0530 N.am  342  GLN342     -0.1979
    111  CA        22.3060  -11.7860   40.0700 C.3   342  GLN342      0.1601
    112  C         21.2940  -11.8640   41.2150 C.2   342  GLN342      0.2287
    113  O         20.8470  -10.8320   41.7120 O.2   342  GLN342     -0.2864
    114  CB        21.5810  -11.6420   38.7290 C.3   342  GLN342      0.0394
    115  CG        22.4730  -11.2080   37.5640 C.3   342  GLN342      0.0908
    116  CD        22.3980   -9.7240   37.2400 C.2   342  GLN342      0.2608
    117  OE1       21.5370   -8.9990   37.7400 O.2   342  GLN342     -0.2717
    118  NE2       23.2960   -9.2700   36.3770 N.am  342  GLN342     -0.0878
    119  N         23.1730  -10.4380   44.0380 N.3   345  THR345     -0.1218
    120  CA        23.1780   -8.9890   43.8340 C.3   345  THR345      0.1862
    121  C         21.8490   -8.3360   44.2500 C.2   345  THR345      0.2287
    122  O         21.8500   -7.2640   44.8520 O.2   345  THR345     -0.2866
    123  CB        23.5070   -8.6210   42.3790 C.3   345  THR345      0.1770
    124  OG1       24.7930   -9.1540   42.0370 O.3   345  THR345     -0.2211
    125  CG2       23.5320   -7.1050   42.1990 C.3   345  THR345      0.0375
    126  N         21.9890   -8.2270   48.0160 N.3   348  HIS348     -0.1226
    127  CA        22.9440   -7.1850   48.4050 C.3   348  HIS348      0.1752
    128  C         22.2980   -5.7990   48.3570 C.2   348  HIS348      0.2595
    129  O         22.3850   -5.0270   49.3170 O.2   348  HIS348     -0.2718
    130  CB        24.1970   -7.2010   47.5100 C.3   348  HIS348      0.0759
    131  CG        25.1640   -6.0980   47.8170 C.ar  348  HIS348      0.0818
    132  ND1       26.1940   -6.2440   48.7210 N.ar  348  HIS348     -0.2268
    133  CD2       25.2430   -4.8250   47.3610 C.ar  348  HIS348      0.1154
    134  CE1       26.8700   -5.1130   48.8040 C.ar  348  HIS348      0.1986
    135  NE2       26.3130   -4.2340   47.9900 N.ar  348  HIS348     -0.2212
    136  N         21.6670   -5.4880   47.2310 N.am  349  GLU349     -0.1979
    137  CA        21.0400   -4.1860   47.0380 C.3   349  GLU349      0.1602
    138  C         19.8500   -3.9620   47.9740 C.2   349  GLU349      0.2287
    139  O         19.6420   -2.8450   48.4570 O.2   349  GLU349     -0.2864
    140  CB        20.6380   -3.9840   45.5700 C.3   349  GLU349      0.0415
    141  CG        21.8130   -4.0280   44.5810 C.3   349  GLU349      0.1163
    142  CD        22.8830   -2.9760   44.8570 C.2   349  GLU349      0.3649
    143  OE1       22.5980   -1.9800   45.5710 O.co2 349  GLU349     -0.2457
    144  OE2       24.0150   -3.1480   44.3480 O.co2 349  GLU349     -0.2457
    145  N         20.8670   -2.7030   51.4120 N.3   352  HIS352     -0.1241
    146  CA        20.9710   -1.2430   51.4700 C.3   352  HIS352      0.1621
    147  C         19.5950   -0.6200   51.7090 C.2   352  HIS352      0.2264
    148  O         19.4440    0.2410   52.5710 O.2   352  HIS352     -0.2867
    149  CB        21.5380   -0.6700   50.1710 C.3   352  HIS352      0.0745
    150  CG        22.9980   -0.9300   49.9600 C.ar  352  HIS352      0.0817
    151  ND1       23.9710   -0.4710   50.8220 N.ar  352  HIS352     -0.2268
    152  CD2       23.6530   -1.5500   48.9500 C.ar  352  HIS352      0.1154
    153  CE1       25.1600   -0.8280   50.3710 C.ar  352  HIS352      0.1986
    154  NE2       24.9950   -1.4810   49.2350 N.ar  352  HIS352     -0.2212
    155  N         27.3910   -2.2040   53.4310 N.3   376  GLU376     -0.1245
    156  CA        27.7070   -3.2450   52.4540 C.3   376  GLU376      0.1567
    157  C         27.4500   -4.6650   52.9610 C.2   376  GLU376      0.2260
    158  O         27.2130   -5.5750   52.1630 O.2   376  GLU376     -0.2867
    159  CB        29.1590   -3.1000   51.9680 C.3   376  GLU376      0.0388
    160  CG        29.4750   -1.7530   51.3190 C.3   376  GLU376      0.1160
    161  CD        28.5070   -1.3940   50.1990 C.2   376  GLU376      0.3649
    162  OE1       27.9760   -2.3180   49.5530 O.co2 376  GLU376     -0.2457
    163  OE2       28.2760   -0.1930   49.9590 O.co2 376  GLU376     -0.2457
    164  N         24.6040   -9.0150   52.0950 N.3   380  ASP380     -0.1239
    165  CA        25.4860  -10.1790   51.9440 C.3   380  ASP380      0.1674
    166  C         25.2530  -11.2330   53.0250 C.2   380  ASP380      0.2266
    167  O         25.4330  -12.4240   52.7760 O.2   380  ASP380     -0.2867
    168  CB        26.9530   -9.7470   51.9310 C.3   380  ASP380      0.1410
    169  CG        27.3710   -9.1330   50.6060 C.2   380  ASP380      0.3668
    170  OD1       26.4830   -8.6910   49.8330 O.co2 380  ASP380     -0.2456
    171  OD2       28.5930   -9.0980   50.3340 O.co2 380  ASP380     -0.2456
    172  N         38.2480  -12.3500   47.1480 N.3   422  PHE422     -0.1241
    173  CA        37.9040  -10.9300   47.1430 C.3   422  PHE422      0.1605
    174  C         38.7440  -10.0690   48.0900 C.2   422  PHE422      0.2264
    175  O         38.9620   -8.8870   47.8240 O.2   422  PHE422     -0.2867
    176  CB        36.4240  -10.7790   47.4990 C.3   422  PHE422      0.0534
    177  CG        35.8880   -9.3810   47.3390 C.ar  422  PHE422     -0.0203
    178  CD1       35.5410   -8.8920   46.0820 C.ar  422  PHE422     -0.0042
    179  CD2       35.7110   -8.5610   48.4510 C.ar  422  PHE422     -0.0042
    180  CE1       35.0320   -7.5980   45.9390 C.ar  422  PHE422     -0.0003
    181  CE2       35.2030   -7.2770   48.3220 C.ar  422  PHE422     -0.0003
    182  CZ        34.8650   -6.7900   47.0690 C.ar  422  PHE422     -0.0000
    183  N         37.7070   -0.4070   36.3940 N.3   476  LYS476     -0.1231
    184  CA        36.8350   -0.8730   37.4750 C.3   476  LYS476      0.1693
    185  C         35.8740    0.2520   37.8610 C.2   476  LYS476      0.2592
    186  O         36.3060    1.3840   38.1190 O.2   476  LYS476     -0.2718
    187  CB        37.6660   -1.3060   38.6870 C.3   476  LYS476      0.0285
    188  CG        36.8480   -1.6460   39.9470 C.3   476  LYS476      0.0035
    189  CD        36.0310   -2.9160   39.7660 C.3   476  LYS476      0.0206
    190  CE        35.1540   -3.1890   40.9880 C.3   476  LYS476      0.1093
    191  NZ        34.0440   -4.1180   40.6430 N.3   476  LYS476     -0.1314
    192  N         34.5810   -0.0680   37.8980 N.am  477  TYR477     -0.1962
    193  CA        33.5240    0.9330   38.0700 C.3   477  TYR477      0.1771
    194  C         33.8070    1.9310   39.1880 C.2   477  TYR477      0.2619
    195  O         33.7750    3.1330   38.9620 O.2   477  TYR477     -0.2715
    196  CB        32.1560    0.2780   38.3070 C.3   477  TYR477      0.0574
    197  CG        31.0740    1.2890   38.6510 C.ar  477  TYR477     -0.0198
    198  CD1       30.5270    2.1140   37.6660 C.ar  477  TYR477     -0.0009
    199  CD2       30.6220    1.4370   39.9610 C.ar  477  TYR477     -0.0009
    200  CE1       29.5490    3.0510   37.9720 C.ar  477  TYR477      0.0417
    201  CE2       29.6410    2.3740   40.2800 C.ar  477  TYR477      0.0417
    202  CZ        29.1110    3.1740   39.2780 C.ar  477  TYR477      0.1957
    203  OH        28.1450    4.1000   39.5820 O.3   477  TYR477     -0.2866
    204  N         34.0830    1.4170   40.3840 N.am  478  HIS478     -0.1973
    205  CA        34.2550    2.2520   41.5770 C.3   478  HIS478      0.1656
    206  C         35.3970    3.2480   41.4420 C.2   478  HIS478      0.2291
    207  O         35.3990    4.2940   42.0990 O.2   478  HIS478     -0.2864
    208  CB        34.4710    1.3770   42.8080 C.3   478  HIS478      0.0771
    209  CG        33.3370    0.4410   43.0890 C.ar  478  HIS478      0.0820
    210  ND1       33.0910   -0.6770   42.3240 N.ar  478  HIS478     -0.2267
    211  CD2       32.3870    0.4540   44.0540 C.ar  478  HIS478      0.1154
    212  CE1       32.0410   -1.3160   42.8070 C.ar  478  HIS478      0.1986
    213  NE2       31.5960   -0.6510   43.8570 N.ar  478  HIS478     -0.2212
    214  N         34.0250    5.9500   39.0560 N.3   481  ALA481     -0.1245
    215  CA        32.8940    6.6140   39.7080 C.3   481  ALA481      0.1562
    216  C         33.2230    7.2020   41.0820 C.2   481  ALA481      0.2260
    217  O         32.3260    7.6830   41.7740 O.2   481  ALA481     -0.2867
    218  CB        31.7130    5.6610   39.8210 C.3   481  ALA481      0.0290
    219  N         34.1190    5.8740   44.0410 N.3   483  VAL483     -0.1245
    220  CA        33.4670    5.2090   45.1680 C.3   483  VAL483      0.1561
    221  C         34.5330    4.5250   46.0100 C.2   483  VAL483      0.2260
    222  O         35.2710    3.6860   45.5060 O.2   483  VAL483     -0.2867
    223  CB        32.4030    4.1890   44.6970 C.3   483  VAL483      0.0252
    224  CG1       31.7030    3.5320   45.8920 C.3   483  VAL483      0.0019
    225  CG2       31.3740    4.8700   43.8030 C.3   483  VAL483      0.0019
    226  N         36.4420    2.0070   48.2940 N.3   485  TYR485     -0.1241
    227  CA        36.3360    0.5460   48.1900 C.3   485  TYR485      0.1605
    228  C         36.5970   -0.2270   49.4830 C.2   485  TYR485      0.2264
    229  O         36.2020   -1.3890   49.5960 O.2   485  TYR485     -0.2867
    230  CB        37.2180   -0.0080   47.0600 C.3   485  TYR485      0.0534
    231  CG        36.5940   -1.2050   46.3690 C.ar  485  TYR485     -0.0201
    232  CD1       35.6580   -1.0300   45.3460 C.ar  485  TYR485     -0.0009
    233  CD2       36.9160   -2.5070   46.7530 C.ar  485  TYR485     -0.0009
    234  CE1       35.0690   -2.1230   44.7130 C.ar  485  TYR485      0.0417
    235  CE2       36.3300   -3.6140   46.1270 C.ar  485  TYR485      0.0417
    236  CZ        35.4100   -3.4120   45.1090 C.ar  485  TYR485      0.1957
    237  OH        34.8280   -4.4910   44.4850 O.3   485  TYR485     -0.2866
    238  N         35.1810   -0.1190   52.2090 N.3   487  ARG487     -0.1231
    239  CA        33.8790   -0.5760   52.6970 C.3   487  ARG487      0.1694
    240  C         33.6270   -2.0490   52.3830 C.2   487  ARG487      0.2592
    241  O         33.0020   -2.7520   53.1750 O.2   487  ARG487     -0.2718
    242  CB        32.7510    0.2770   52.1060 C.3   487  ARG487      0.0321
    243  CG        32.6670    0.2530   50.5840 C.3   487  ARG487      0.0489
    244  CD        31.6490    1.2510   50.0770 C.3   487  ARG487      0.2205
    245  NE        32.0290    2.6290   50.3910 N.pl3 487  ARG487     -0.0865
    246  CZ        31.3000    3.6910   50.0680 C.cat 487  ARG487      0.5346
    247  NH1       30.1510    3.5330   49.4220 N.pl3 487  ARG487      0.1354
    248  NH2       31.7120    4.9110   50.3950 N.pl3 487  ARG487      0.1354
    249  N         34.1200   -2.5140   51.2340 N.am  488  TYR488     -0.1976
    250  CA        33.8910   -3.9000   50.8220 C.3   488  TYR488      0.1639
    251  C         34.8170   -4.8850   51.5400 C.2   488  TYR488      0.2290
    252  O         34.3870   -5.9830   51.9050 O.2   488  TYR488     -0.2864
    253  CB        33.9860   -4.0460   49.3010 C.3   488  TYR488      0.0560
    254  CG        32.9920   -3.1850   48.5610 C.ar  488  TYR488     -0.0198
    255  CD1       31.6270   -3.4960   48.5580 C.ar  488  TYR488     -0.0009
    256  CD2       33.4100   -2.0510   47.8730 C.ar  488  TYR488     -0.0009
    257  CE1       30.7060   -2.6940   47.8700 C.ar  488  TYR488      0.0417
    258  CE2       32.5020   -1.2450   47.1960 C.ar  488  TYR488      0.0417
    259  CZ        31.1580   -1.5690   47.1950 C.ar  488  TYR488      0.1957
    260  OH        30.2780   -0.7590   46.5090 O.3   488  TYR488     -0.2866
    261  N         33.2450   -7.7300   53.8740 N.3   492  PHE492     -0.1241
    262  CA        33.5330   -9.1540   53.7120 C.3   492  PHE492      0.1605
    263  C         34.0890   -9.7990   54.9870 C.2   492  PHE492      0.2264
    264  O         33.9690  -11.0050   55.1660 O.2   492  PHE492     -0.2867
    265  CB        34.4400   -9.4080   52.5040 C.3   492  PHE492      0.0534
    266  CG        33.6920   -9.5520   51.1940 C.ar  492  PHE492     -0.0203
    267  CD1       33.8730  -10.6800   50.4000 C.ar  492  PHE492     -0.0042
    268  CD2       32.8050   -8.5700   50.7610 C.ar  492  PHE492     -0.0042
    269  CE1       33.1920  -10.8260   49.1950 C.ar  492  PHE492     -0.0003
    270  CE2       32.1160   -8.7040   49.5490 C.ar  492  PHE492     -0.0003
    271  CZ        32.3150   -9.8370   48.7660 C.ar  492  PHE492     -0.0000
@<TRIPOS>BOND
     1    10    11    1
     2    12    11    1
     3    12    13    2
     4    11    14    1
     5    14    15    1
     6    97    96    1
     7    97    98    1
     8    15    16    1
     9    96    95    1
    10     4     3    2
    11    98    99    2
    12     3     2    1
    13   100    99    1
    14    95    92    1
    15    16    17   ar
    16    16    18   ar
    17    99   101    1
    18    92    91    1
    19    92    93    1
    20     1     2    1
    21     2     5    1
    22    30    32   ar
    23    30    28   ar
    24    93    94    2
    25    32    31   ar
    26    27    28   ar
    27    27    25   ar
    28    28    26   ar
    29     5     6    1
    30    51    52    1
    31    19    20    1
    32   118   116   am
    33     6     7    1
    34   183   184    1
    35    25    24   ar
    36    31    29   ar
    37    26    29   ar
    38    26    24   ar
    39    24    23    1
    40   116   115    1
    41   116   117    2
    42    20    23    1
    43    20    21    1
    44   184   185    1
    45   184   187    1
    46   115   114    1
    47    52    55    1
    48    52    53    1
    49   198   200   ar
    50   198   197   ar
    51     7     9   ar
    52     7     8   ar
    53   185   192   am
    54   185   186    2
    55   192   193    1
    56    55    56    1
    57   200   202   ar
    58   193   196    1
    59   193   194    1
    60    21    22    2
    61   196   197    1
    62   197   199   ar
    63   187   188    1
    64   114   111    1
    65    53    54    2
    66    53    61   am
    67    57    56   ar
    68    57    59   ar
    69   195   194    2
    70   214   215    1
    71    56    58   ar
    72   194   204   am
    73   202   203    1
    74   202   201   ar
    75    61    62    1
    76   109   107   ar
    77   215   218    1
    78   215   216    1
    79   189   188    1
    80   189   190    1
    81   106   107    1
    82   106   103    1
    83   199   201   ar
    84   110   111    1
    85   110   104   am
    86    59    60   ar
    87   111   112    1
    88    45    44    2
    89   107   108   ar
    90    62    65    1
    91    62    63    1
    92   204   205    1
    93    58    60   ar
    94   102   103    1
    95    33    34    1
    96   191   190    1
    97    40    39    2
    98   103   104    1
    99   104   105    2
   100   216   217    2
   101   112   113    2
   102    44    43    1
   103   206   205    1
   104   206   207    2
   105    63    66   am
   106    63    64    2
   107    88    90   ar
   108    88    86   ar
   109    38    39    1
   110    38    37    1
   111    71    70    1
   112    39    41   am
   113   205   208    1
   114    90    89   ar
   115    66    67    1
   116    42    43    1
   117    42    35   am
   118    34    37    1
   119    34    35    1
   120   124   123    1
   121   125   123    1
   122   210   212   ar
   123   210   209   ar
   124    86    85   ar
   125    86    84   ar
   126   123   120    1
   127    85    83   ar
   128    43    46    1
   129    70    67    1
   130    89    87   ar
   131    35    36    2
   132    46    47    1
   133   212   213   ar
   134   208   209    1
   135    67    68    1
   136   209   211   ar
   137    69    68    2
   138    84    87   ar
   139    84    82   ar
   140    83    82   ar
   141    68    72   am
   142    49    48    2
   143   225   223    1
   144   120   119    1
   145   120   121    1
   146   213   211   ar
   147    82    81    1
   148   219   220    1
   149    47    48    1
   150   121   122    2
   151   144   142   ar
   152    48    50   am
   153   237   236    1
   154   141   142    1
   155   141   140    1
   156   223   220    1
   157   223   224    1
   158   234   236   ar
   159   234   232   ar
   160   142   143   ar
   161    72    73    1
   162   236   235   ar
   163    81    78    1
   164   220   221    1
   165   232   231   ar
   166   222   221    2
   167   140   137    1
   168    73    74    1
   169    73    76    1
   170   180   178   ar
   171   180   182   ar
   172   178   177   ar
   173   235   233   ar
   174    74    77   am
   175    74    75    2
   176    77    78    1
   177   231   233   ar
   178   231   230    1
   179    78    79    1
   180   260   259    1
   181   137   136    1
   182   137   138    1
   183   230   227    1
   184   182   181   ar
   185   173   172    1
   186   173   176    1
   187   173   174    1
   188   259   258   ar
   189   259   257   ar
   190   258   256   ar
   191   136   128   am
   192   177   176    1
   193   177   179   ar
   194   133   131   ar
   195   133   135   ar
   196   130   131    1
   197   130   127    1
   198    79    80    2
   199   131   132   ar
   200   175   174    2
   201   257   255   ar
   202   256   254   ar
   203   138   139    2
   204   135   134   ar
   205   126   127    1
   206   227   226    1
   207   227   228    1
   208   181   179   ar
   209   128   127    1
   210   128   129    2
   211   255   254   ar
   212   254   253    1
   213   132   134   ar
   214   271   269   ar
   215   271   270   ar
   216   152   154   ar
   217   152   150   ar
   218   269   267   ar
   219   154   153   ar
   220   253   250    1
   221   247   246    1
   222   228   229    2
   223   270   268   ar
   224   162   161   ar
   225   170   169   ar
   226   163   161   ar
   227   150   149    1
   228   150   151   ar
   229   246   245    2
   230   246   248    1
   231   244   245    1
   232   244   243    1
   233   149   146    1
   234   161   160    1
   235   171   169   ar
   236   153   151   ar
   237   267   266   ar
   238   243   242    1
   239   169   168    1
   240   268   266   ar
   241   250   249    1
   242   250   251    1
   243   266   265    1
   244   249   240   am
   245   160   159    1
   246   145   146    1
   247   146   147    1
   248   251   252    2
   249   147   148    2
   250   168   165    1
   251   165   164    1
   252   165   166    1
   253   159   156    1
   254   242   239    1
   255   158   157    2
   256   238   239    1
   257   240   239    1
   258   240   241    2
   259   156   157    1
   260   156   155    1
   261   265   262    1
   262   167   166    2
   263   262   261    1
   264   262   263    1
   265   263   264    2
