@<TRIPOS>MOLECULE
tmp/2x91A03.pdb
 125 118 0 0 0
SMALL
GASTEIGER

@<TRIPOS>ATOM
      1  N         19.0310   16.9020   44.9330 N.3    24  GLU24      -0.1245
      2  CA        20.2930   16.4440   44.3470 C.3    24  GLU24       0.1567
      3  C         20.1880   14.9860   43.9220 C.2    24  GLU24       0.2260
      4  O         20.5990   14.6260   42.8150 O.2    24  GLU24      -0.2867
      5  CB        21.4620   16.6170   45.3300 C.3    24  GLU24       0.0388
      6  CG        22.8280   16.2260   44.7490 C.3    24  GLU24       0.1160
      7  CD        23.9090   16.0310   45.8110 C.2    24  GLU24       0.3649
      8  OE1       25.0250   16.5560   45.6190 O.co2  24  GLU24      -0.2457
      9  OE2       23.6480   15.3490   46.8300 O.co2  24  GLU24      -0.2457
     10  N         24.1550   19.8770   42.4570 N.3    47  SER47      -0.1217
     11  CA        25.2400   19.5150   43.3760 C.3    47  SER47       0.1889
     12  C         26.0410   20.7360   43.8290 C.2    47  SER47       0.2288
     13  O         26.3510   20.8730   45.0140 O.2    47  SER47      -0.2866
     14  CB        26.1680   18.4820   42.7390 C.3    47  SER47       0.2089
     15  OG        25.5370   17.2150   42.6760 O.3    47  SER47      -0.2183
     16  N         23.9680   22.6840   46.3090 N.3    50  LEU50      -0.1231
     17  CA        23.9780   22.0390   47.6220 C.3    50  LEU50       0.1693
     18  C         25.3310   22.2260   48.3240 C.2    50  LEU50       0.2591
     19  O         25.3780   22.4300   49.5360 O.2    50  LEU50      -0.2718
     20  CB        23.6160   20.5520   47.5130 C.3    50  LEU50       0.0284
     21  CG        23.6390   19.6990   48.7900 C.3    50  LEU50       0.0019
     22  CD1       22.6370   20.1840   49.8370 C.3    50  LEU50       0.0001
     23  CD2       23.3860   18.2430   48.4640 C.3    50  LEU50       0.0001
     24  N         26.4180   22.1620   47.5550 N.am   51  ALA51      -0.1980
     25  CA        27.7640   22.3860   48.0890 C.3    51  ALA51       0.1597
     26  C         27.8860   23.7780   48.7040 C.2    51  ALA51       0.2287
     27  O         28.4610   23.9380   49.7830 O.2    51  ALA51      -0.2864
     28  CB        28.8060   22.1970   47.0040 C.3    51  ALA51       0.0319
     29  N         26.0980   23.8490   52.0810 N.3    54  MET54      -0.1245
     30  CA        26.8770   23.1460   53.0930 C.3    54  MET54       0.1570
     31  C         27.9910   24.0400   53.6250 C.2    54  MET54       0.2261
     32  O         28.2500   24.0780   54.8280 O.2    54  MET54      -0.2867
     33  CB        27.4640   21.8560   52.5180 C.3    54  MET54       0.0387
     34  CG        26.5070   20.6760   52.5370 C.3    54  MET54       0.0595
     35  SD        26.9830   19.3760   51.3820 S.3    54  MET54      -0.1393
     36  CE        25.6590   18.1970   51.6350 C.3    54  MET54       0.0692
     37  N         33.0590   18.8820   55.4030 N.3    84  LEU84      -0.1231
     38  CA        32.4960   19.3440   54.1330 C.3    84  LEU84       0.1693
     39  C         32.7490   18.4380   52.9270 C.2    84  LEU84       0.2593
     40  O         31.9770   18.4630   51.9650 O.2    84  LEU84      -0.2718
     41  CB        33.0160   20.7440   53.8090 C.3    84  LEU84       0.0284
     42  CG        32.4250   21.9250   54.5750 C.3    84  LEU84       0.0019
     43  CD1       33.1970   23.1920   54.2450 C.3    84  LEU84       0.0001
     44  CD2       30.9440   22.0900   54.2550 C.3    84  LEU84       0.0001
     45  N         33.8320   17.6650   52.9710 N.am   85  GLY85      -0.1942
     46  CA        34.2670   16.8770   51.8170 C.3    85  GLY85       0.2014
     47  C         34.5770   17.7830   50.6390 C.2    85  GLY85       0.2639
     48  O         35.2000   18.8410   50.8010 O.2    85  GLY85      -0.2714
     49  N         34.1170   17.3850   49.4560 N.am   86  TYR86      -0.1959
     50  CA        34.3460   18.1570   48.2350 C.3    86  TYR86       0.1771
     51  C         33.7510   19.5660   48.2900 C.2    86  TYR86       0.2619
     52  O         34.2370   20.4720   47.6150 O.2    86  TYR86      -0.2715
     53  CB        33.7960   17.4140   47.0100 C.3    86  TYR86       0.0574
     54  CG        34.4820   16.0980   46.6840 C.ar   86  TYR86      -0.0198
     55  CD1       35.7850   15.8250   47.1240 C.ar   86  TYR86      -0.0009
     56  CD2       33.8370   15.1390   45.9070 C.ar   86  TYR86      -0.0009
     57  CE1       36.4090   14.6200   46.8150 C.ar   86  TYR86       0.0417
     58  CE2       34.4530   13.9370   45.5860 C.ar   86  TYR86       0.0417
     59  CZ        35.7360   13.6820   46.0410 C.ar   86  TYR86       0.1957
     60  OH        36.3440   12.4930   45.7220 O.3    86  TYR86      -0.2866
     61  N         32.7080   19.7410   49.0980 N.am   87  ALA87      -0.1977
     62  CA        32.0220   21.0280   49.2350 C.3    87  ALA87       0.1597
     63  C         32.9070   22.1450   49.8140 C.2    87  ALA87       0.2287
     64  O         32.5420   23.3250   49.7590 O.2    87  ALA87      -0.2864
     65  CB        30.7540   20.8590   50.0570 C.3    87  ALA87       0.0319
     66  N         35.0690   23.1290   42.5300 N.3    94  TYR94      -0.1241
     67  CA        34.0430   22.1200   42.7320 C.3    94  TYR94       0.1605
     68  C         33.3070   21.8010   41.4280 C.2    94  TYR94       0.2264
     69  O         33.0260   20.6360   41.1430 O.2    94  TYR94      -0.2867
     70  CB        33.0570   22.5330   43.8290 C.3    94  TYR94       0.0534
     71  CG        32.0690   21.4420   44.1590 C.ar   94  TYR94      -0.0201
     72  CD1       32.4820   20.2710   44.7930 C.ar   94  TYR94      -0.0009
     73  CD2       30.7250   21.5630   43.8150 C.ar   94  TYR94      -0.0009
     74  CE1       31.5790   19.2510   45.0840 C.ar   94  TYR94       0.0417
     75  CE2       29.8130   20.5480   44.1070 C.ar   94  TYR94       0.0417
     76  CZ        30.2470   19.4010   44.7440 C.ar   94  TYR94       0.1957
     77  OH        29.3590   18.3940   45.0320 O.3    94  TYR94      -0.2866
     78  N         40.6950   16.0920   44.4260 N.3   169  ASN169     -0.1240
     79  CA        40.4040   15.3020   45.6270 C.3   169  ASN169      0.1653
     80  C         41.3840   15.6620   46.7470 C.2   169  ASN169      0.2266
     81  O         40.9860   15.8120   47.9030 O.2   169  ASN169     -0.2867
     82  CB        40.4350   13.7950   45.3170 C.3   169  ASN169      0.1155
     83  CG        40.2960   12.9330   46.5660 C.2   169  ASN169      0.2627
     84  OD1       41.2110   12.8650   47.3860 O.2   169  ASN169     -0.2716
     85  ND2       39.1510   12.2680   46.7130 N.am  169  ASN169     -0.0877
     86  N         43.0910   12.4970   50.5070 N.3   181  GLY181     -0.1225
     87  CA        41.8010   11.8270   50.3850 C.3   181  GLY181      0.1811
     88  C         41.7400   10.4880   51.0950 C.2   181  GLY181      0.2280
     89  O         40.6560   10.0060   51.4270 O.2   181  GLY181     -0.2866
     90  N         40.6930   11.3630   54.5350 N.3   184  ALA184     -0.1231
     91  CA        39.2870   11.7580   54.4520 C.3   184  ALA184      0.1694
     92  C         38.3710   10.5330   54.4580 C.2   184  ALA184      0.2592
     93  O         37.3970   10.4880   55.2090 O.2   184  ALA184     -0.2718
     94  CB        39.0290   12.6250   53.2230 C.3   184  ALA184      0.0304
     95  N         38.7000    9.5400   53.6310 N.am  185  TRP185     -0.1976
     96  CA        37.9380    8.2940   53.5840 C.3   185  TRP185      0.1640
     97  C         38.0010    7.5290   54.9090 C.2   185  TRP185      0.2290
     98  O         36.9740    7.0610   55.4160 O.2   185  TRP185     -0.2864
     99  CB        38.4310    7.3950   52.4440 C.3   185  TRP185      0.0576
    100  CG        37.9380    7.7830   51.0670 C.ar  185  TRP185      0.0006
    101  CD1       36.9800    8.7110   50.7600 C.ar  185  TRP185      0.0946
    102  CD2       38.3510    7.2090   49.8220 C.ar  185  TRP185      0.0152
    103  NE1       36.7920    8.7650   49.3960 N.ar  185  TRP185     -0.2442
    104  CE2       37.6140    7.8480   48.7990 C.ar  185  TRP185      0.0810
    105  CE3       39.2750    6.2130   49.4720 C.ar  185  TRP185      0.0012
    106  CZ2       37.7810    7.5330   47.4470 C.ar  185  TRP185      0.0191
    107  CZ3       39.4370    5.8970   48.1200 C.ar  185  TRP185      0.0001
    108  CH2       38.6920    6.5580   47.1300 C.ar  185  TRP185      0.0015
    109  N         35.6910    8.0780   58.1140 N.3   188  GLU188     -0.1245
    110  CA        34.3840    7.4220   58.2180 C.3   188  GLU188      0.1567
    111  C         34.3640    6.2300   59.1850 C.2   188  GLU188      0.2260
    112  O         33.2920    5.8230   59.6420 O.2   188  GLU188     -0.2867
    113  CB        33.8760    6.9730   56.8350 C.3   188  GLU188      0.0388
    114  CG        33.7440    8.0910   55.7880 C.3   188  GLU188      0.1160
    115  CD        32.7380    9.1690   56.1710 C.2   188  GLU188      0.3649
    116  OE1       31.7600    8.8760   56.8960 O.co2 188  GLU188     -0.2457
    117  OE2       32.9220   10.3230   55.7360 O.co2 188  GLU188     -0.2457
    118  N         34.4980    7.1630   41.4670 N.3   482  ASP482     -0.1239
    119  CA        34.9500    7.7450   42.7410 C.3   482  ASP482      0.1674
    120  C         34.1370    7.1970   43.9270 C.2   482  ASP482      0.2266
    121  O         33.5270    7.9450   44.7010 O.2   482  ASP482     -0.2867
    122  CB        34.9200    9.2830   42.6660 C.3   482  ASP482      0.1410
    123  CG        35.3360    9.9600   43.9700 C.2   482  ASP482      0.3668
    124  OD1       34.8050   11.0610   44.2380 O.co2 482  ASP482     -0.2456
    125  OD2       36.1820    9.4060   44.7180 O.co2 482  ASP482     -0.2456
@<TRIPOS>BOND
     1    69    68    2
     2    68    67    1
     3   118   119    1
     4    10    11    1
     5    66    67    1
     6   122   119    1
     7   122   123    1
     8    15    14    1
     9    67    70    1
    10    14    11    1
    11   119   120    1
    12     4     3    2
    13    11    12    1
    14    73    75   ar
    15    73    71   ar
    16    12    13    2
    17    70    71    1
    18     3     2    1
    19   120   121    2
    20   123   124   ar
    21   123   125   ar
    22    75    76   ar
    23    71    72   ar
    24     2     1    1
    25     2     5    1
    26    78    79    1
    27    76    77    1
    28    76    74   ar
    29     6     5    1
    30     6     7    1
    31    72    74   ar
    32    82    79    1
    33    82    83    1
    34    58    56   ar
    35    58    59   ar
    36     8     7   ar
    37    79    80    1
    38    60    59    1
    39     7     9   ar
    40    56    54   ar
    41    59    57   ar
    42    16    17    1
    43    83    85   am
    44    83    84    2
    45    54    53    1
    46    54    55   ar
    47    80    81    2
    48    57    55   ar
    49    28    25    1
    50    53    50    1
    51   108   106   ar
    52   108   107   ar
    53   106   104   ar
    54    20    17    1
    55    20    21    1
    56    24    25    1
    57    24    18   am
    58    52    51    2
    59    17    18    1
    60    25    26    1
    61   107   105   ar
    62    50    51    1
    63    50    49    1
    64    51    61   am
    65    18    19    2
    66    23    21    1
    67    26    27    2
    68    21    22    1
    69   104   103   ar
    70   104   102   ar
    71    61    62    1
    72    62    63    1
    73    62    65    1
    74   103   101   ar
    75    49    47   am
    76   105   102   ar
    77    64    63    2
    78   102   100   ar
    79    87    86    1
    80    87    88    1
    81    47    48    2
    82    47    46    1
    83   101   100   ar
    84   100    99    1
    85    88    89    2
    86    35    36    1
    87    35    34    1
    88    46    45    1
    89    40    39    2
    90    29    30    1
    91    99    96    1
    92    33    34    1
    93    33    30    1
    94    39    45   am
    95    39    38    1
    96    30    31    1
    97    94    91    1
    98    96    95    1
    99    96    97    1
   100    31    32    2
   101    95    92   am
   102    41    38    1
   103    41    42    1
   104    38    37    1
   105    43    42    1
   106    44    42    1
   107    91    92    1
   108    91    90    1
   109    92    93    2
   110    97    98    2
   111   117   115   ar
   112   114   115    1
   113   114   113    1
   114   115   116   ar
   115   113   110    1
   116   109   110    1
   117   110   111    1
   118   111   112    2
