@<TRIPOS>MOLECULE
tmp/2x92A03.pdb
 231 228 0 0 0
SMALL
GASTEIGER

@<TRIPOS>ATOM
      1  N         32.6250    8.7500  -33.3440 N.3   108  GLU108     -0.1245
      2  CA        31.5390    7.7790  -33.1830 C.3   108  GLU108      0.1567
      3  C         30.7770    7.5450  -34.4940 C.2   108  GLU108      0.2260
      4  O         30.3980    6.4120  -34.7960 O.2   108  GLU108     -0.2867
      5  CB        30.5870    8.1650  -32.0390 C.3   108  GLU108      0.0388
      6  CG        29.4940    7.1120  -31.7540 C.3   108  GLU108      0.1160
      7  CD        28.8920    7.1860  -30.3460 C.2   108  GLU108      0.3649
      8  OE1       29.2040    8.1320  -29.5830 O.co2 108  GLU108     -0.2457
      9  OE2       28.1030    6.2760  -29.9970 O.co2 108  GLU108     -0.2457
     10  N         38.2140  -10.3010  -27.6840 N.3   249  GLN249     -0.1231
     11  CA        37.8390  -10.0560  -26.2870 C.3   249  GLN249      0.1698
     12  C         37.1050  -11.2420  -25.6700 C.2   249  GLN249      0.2592
     13  O         37.0930  -11.4040  -24.4560 O.2   249  GLN249     -0.2718
     14  CB        36.9850   -8.7900  -26.1720 C.3   249  GLN249      0.0381
     15  CG        35.6020   -8.8690  -26.8070 C.3   249  GLN249      0.0905
     16  CD        34.8840   -7.5340  -26.7800 C.2   249  GLN249      0.2608
     17  OE1       35.3220   -6.5730  -27.4070 O.2   249  GLN249     -0.2717
     18  NE2       33.7790   -7.4690  -26.0550 N.am  249  GLN249     -0.0878
     19  N         36.4850  -12.0480  -26.5280 N.am  250  GLN250     -0.1979
     20  CA        35.7380  -13.2390  -26.1350 C.3   250  GLN250      0.1601
     21  C         35.9630  -14.3070  -27.1880 C.2   250  GLN250      0.2287
     22  O         35.9170  -14.0090  -28.3820 O.2   250  GLN250     -0.2864
     23  CB        34.2480  -12.9330  -26.0760 C.3   250  GLN250      0.0394
     24  CG        33.7770  -12.4110  -24.7430 C.3   250  GLN250      0.0908
     25  CD        32.2630  -12.5030  -24.5920 C.2   250  GLN250      0.2608
     26  OE1       31.5310  -12.8100  -25.5520 O.2   250  GLN250     -0.2717
     27  NE2       31.7830  -12.2460  -23.3740 N.am  250  GLN250     -0.0878
     28  N         25.6880   -0.4860  -31.9760 N.3   321  HIS321     -0.1226
     29  CA        26.2440   -0.9620  -30.7190 C.3   321  HIS321      0.1752
     30  C         25.2190   -0.7980  -29.5960 C.2   321  HIS321      0.2596
     31  O         24.7840    0.3190  -29.3090 O.2   321  HIS321     -0.2718
     32  CB        27.5460   -0.2360  -30.3700 C.3   321  HIS321      0.0759
     33  CG        28.2880   -0.8740  -29.2400 C.ar  321  HIS321      0.0818
     34  ND1       29.3460   -1.7330  -29.4390 N.ar  321  HIS321     -0.2268
     35  CD2       28.0950   -0.8170  -27.9010 C.ar  321  HIS321      0.1154
     36  CE1       29.7890   -2.1600  -28.2700 C.ar  321  HIS321      0.1986
     37  NE2       29.0440   -1.6220  -27.3210 N.ar  321  HIS321     -0.2212
     38  N         24.8510   -1.9200  -28.9750 N.am  322  ALA322     -0.1966
     39  CA        23.7560   -1.9830  -27.9970 C.3   322  ALA322      0.1728
     40  C         23.9620   -1.0650  -26.7970 C.2   322  ALA322      0.2617
     41  O         25.0720   -0.9580  -26.2780 O.2   322  ALA322     -0.2715
     42  CB        23.5480   -3.4190  -27.5300 C.3   322  ALA322      0.0334
     43  N         22.8850   -0.4170  -26.3570 N.am  323  SER323     -0.1936
     44  CA        22.9460    0.5030  -25.2250 C.3   323  SER323      0.2055
     45  C         21.6030    0.6690  -24.5160 C.2   323  SER323      0.2643
     46  O         20.5460    0.4340  -25.0990 O.2   323  SER323     -0.2714
     47  CB        23.4690    1.8690  -25.6770 C.3   323  SER323      0.2130
     48  OG        22.5710    2.4770  -26.5810 O.3   323  SER323     -0.2179
     49  N         21.6710    1.0750  -23.2500 N.am  324  ALA324     -0.1963
     50  CA        20.4980    1.3330  -22.4210 C.3   324  ALA324      0.1728
     51  C         20.5120    2.7930  -21.9730 C.2   324  ALA324      0.2616
     52  O         21.5720    3.3500  -21.6740 O.2   324  ALA324     -0.2715
     53  CB        20.4830    0.4010  -21.2250 C.3   324  ALA324      0.0334
     54  N         19.3350    3.4090  -21.9400 N.am  325  TRP325     -0.1974
     55  CA        19.2260    4.8520  -21.7520 C.3   325  TRP325      0.1640
     56  C         18.2730    5.2370  -20.6180 C.2   325  TRP325      0.2290
     57  O         17.1650    4.6990  -20.5090 O.2   325  TRP325     -0.2864
     58  CB        18.7680    5.5160  -23.0560 C.3   325  TRP325      0.0576
     59  CG        19.7370    5.4130  -24.2070 C.ar  325  TRP325      0.0006
     60  CD1       20.1360    4.2730  -24.8510 C.ar  325  TRP325      0.0946
     61  CD2       20.3950    6.4990  -24.8750 C.ar  325  TRP325      0.0152
     62  NE1       21.0140    4.5800  -25.8600 N.ar  325  TRP325     -0.2442
     63  CE2       21.1900    5.9380  -25.9000 C.ar  325  TRP325      0.0810
     64  CE3       20.3920    7.8910  -24.7040 C.ar  325  TRP325      0.0012
     65  CZ2       21.9780    6.7180  -26.7510 C.ar  325  TRP325      0.0191
     66  CZ3       21.1760    8.6680  -25.5500 C.ar  325  TRP325      0.0001
     67  CH2       21.9580    8.0780  -26.5630 C.ar  325  TRP325      0.0015
     68  N         22.1710  -13.1280  -24.0100 N.3   347  PHE347     -0.1227
     69  CA        22.9650  -12.6350  -22.8800 C.3   347  PHE347      0.1736
     70  C         23.0670  -11.1150  -22.8940 C.2   347  PHE347      0.2596
     71  O         22.9560  -10.4790  -21.8490 O.2   347  PHE347     -0.2718
     72  CB        24.3750  -13.2520  -22.8620 C.3   347  PHE347      0.0547
     73  CG        24.3900  -14.7660  -22.8320 C.ar  347  PHE347     -0.0202
     74  CD1       23.3750  -15.4870  -22.2040 C.ar  347  PHE347     -0.0042
     75  CD2       25.4460  -15.4680  -23.4060 C.ar  347  PHE347     -0.0042
     76  CE1       23.3990  -16.8780  -22.1770 C.ar  347  PHE347     -0.0003
     77  CE2       25.4810  -16.8590  -23.3750 C.ar  347  PHE347     -0.0003
     78  CZ        24.4560  -17.5640  -22.7600 C.ar  347  PHE347     -0.0000
     79  N         23.2810  -10.5460  -24.0780 N.am  348  THR348     -0.1953
     80  CA        23.3650   -9.0970  -24.2550 C.3   348  THR348      0.1897
     81  C         22.0380   -8.4040  -23.9030 C.2   348  THR348      0.2313
     82  O         22.0380   -7.3230  -23.3110 O.2   348  THR348     -0.2863
     83  CB        23.7970   -8.7230  -25.6930 C.3   348  THR348      0.1794
     84  OG1       24.9890   -9.4400  -26.0420 O.3   348  THR348     -0.2208
     85  CG2       24.0650   -7.2200  -25.8140 C.3   348  THR348      0.0378
     86  N         22.0580   -8.2180  -20.2890 N.3   351  HIS351     -0.1226
     87  CA        23.0290   -7.2290  -19.8380 C.3   351  HIS351      0.1752
     88  C         22.4030   -5.8330  -19.8360 C.2   351  HIS351      0.2595
     89  O         22.4850   -5.1040  -18.8410 O.2   351  HIS351     -0.2718
     90  CB        24.2990   -7.2260  -20.7030 C.3   351  HIS351      0.0759
     91  CG        25.2550   -6.1340  -20.3370 C.ar  351  HIS351      0.0818
     92  ND1       26.2210   -6.2900  -19.3660 N.ar  351  HIS351     -0.2268
     93  CD2       25.3630   -4.8570  -20.7730 C.ar  351  HIS351      0.1154
     94  CE1       26.8980   -5.1640  -19.2350 C.ar  351  HIS351      0.1986
     95  NE2       26.3960   -4.2760  -20.0750 N.ar  351  HIS351     -0.2212
     96  N         21.7880   -5.4770  -20.9610 N.am  352  GLU352     -0.1979
     97  CA        21.1650   -4.1720  -21.1380 C.3   352  GLU352      0.1602
     98  C         19.9720   -3.9600  -20.2020 C.2   352  GLU352      0.2287
     99  O         19.7380   -2.8470  -19.7240 O.2   352  GLU352     -0.2864
    100  CB        20.7450   -3.9690  -22.5990 C.3   352  GLU352      0.0415
    101  CG        21.8870   -4.0630  -23.6070 C.3   352  GLU352      0.1163
    102  CD        22.9750   -3.0150  -23.3990 C.2   352  GLU352      0.3649
    103  OE1       22.7140   -1.9870  -22.7350 O.co2 352  GLU352     -0.2457
    104  OE2       24.0960   -3.2220  -23.9170 O.co2 352  GLU352     -0.2457
    105  N         20.9610   -2.7620  -16.7850 N.3   355  HIS355     -0.1241
    106  CA        21.0710   -1.3050  -16.7270 C.3   355  HIS355      0.1621
    107  C         19.7020   -0.6780  -16.4760 C.2   355  HIS355      0.2264
    108  O         19.5530    0.1520  -15.5830 O.2   355  HIS355     -0.2867
    109  CB        21.6370   -0.7490  -18.0280 C.3   355  HIS355      0.0745
    110  CG        23.0900   -1.0330  -18.2430 C.ar  355  HIS355      0.0817
    111  ND1       24.0590   -0.7180  -17.3140 N.ar  355  HIS355     -0.2268
    112  CD2       23.7450   -1.5490  -19.3110 C.ar  355  HIS355      0.1154
    113  CE1       25.2450   -1.0500  -17.7900 C.ar  355  HIS355      0.1986
    114  NE2       25.0830   -1.5540  -19.0010 N.ar  355  HIS355     -0.2212
    115  N         27.5210   -2.2680  -14.7010 N.3   379  GLU379     -0.1245
    116  CA        27.8460   -3.3190  -15.6660 C.3   379  GLU379      0.1567
    117  C         27.6170   -4.7360  -15.1310 C.2   379  GLU379      0.2260
    118  O         27.4270   -5.6710  -15.9100 O.2   379  GLU379     -0.2867
    119  CB        29.2890   -3.1670  -16.1670 C.3   379  GLU379      0.0388
    120  CG        29.6080   -1.8190  -16.8050 C.3   379  GLU379      0.1160
    121  CD        28.6790   -1.4630  -17.9510 C.2   379  GLU379      0.3649
    122  OE1       28.2050   -2.3830  -18.6550 O.co2 379  GLU379     -0.2457
    123  OE2       28.4240   -0.2590  -18.1570 O.co2 379  GLU379     -0.2457
    124  N         24.7870   -9.0830  -16.0290 N.3   383  ASP383     -0.1239
    125  CA        25.6940  -10.2240  -16.1630 C.3   383  ASP383      0.1674
    126  C         25.4480  -11.2910  -15.0920 C.2   383  ASP383      0.2266
    127  O         25.6410  -12.4820  -15.3410 O.2   383  ASP383     -0.2867
    128  CB        27.1560   -9.7620  -16.1300 C.3   383  ASP383      0.1410
    129  CG        27.6320   -9.1750  -17.4630 C.2   383  ASP383      0.3668
    130  OD1       26.7880   -8.7900  -18.3190 O.co2 383  ASP383     -0.2456
    131  OD2       28.8740   -9.0910  -17.6500 O.co2 383  ASP383     -0.2456
    132  N         38.3320  -12.3510  -21.2580 N.3   425  PHE425     -0.1241
    133  CA        38.0060  -10.9280  -21.2360 C.3   425  PHE425      0.1605
    134  C         38.8580  -10.0790  -20.2930 C.2   425  PHE425      0.2264
    135  O         39.0570   -8.8930  -20.5450 O.2   425  PHE425     -0.2867
    136  CB        36.5330  -10.7620  -20.8750 C.3   425  PHE425      0.0534
    137  CG        36.0220   -9.3600  -21.0140 C.ar  425  PHE425     -0.0203
    138  CD1       35.7030   -8.8430  -22.2670 C.ar  425  PHE425     -0.0042
    139  CD2       35.8540   -8.5580  -19.8920 C.ar  425  PHE425     -0.0042
    140  CE1       35.2220   -7.5420  -22.3950 C.ar  425  PHE425     -0.0003
    141  CE2       35.3710   -7.2690  -20.0090 C.ar  425  PHE425     -0.0003
    142  CZ        35.0560   -6.7570  -21.2650 C.ar  425  PHE425     -0.0000
    143  N         37.9010   -0.3180  -31.8290 N.3   479  LYS479     -0.1231
    144  CA        37.0220   -0.7660  -30.7550 C.3   479  LYS479      0.1693
    145  C         36.0550    0.3730  -30.4100 C.2   479  LYS479      0.2592
    146  O         36.4880    1.4930  -30.1240 O.2   479  LYS479     -0.2718
    147  CB        37.8520   -1.1800  -29.5330 C.3   479  LYS479      0.0285
    148  CG        37.0500   -1.6130  -28.3070 C.3   479  LYS479      0.0035
    149  CD        36.3020   -2.9220  -28.5360 C.3   479  LYS479      0.0206
    150  CE        35.2860   -3.1570  -27.4250 C.3   479  LYS479      0.1093
    151  NZ        34.1950   -4.0780  -27.8560 N.3   479  LYS479     -0.1314
    152  N         34.7550    0.0770  -30.4370 N.am  480  TYR480     -0.1962
    153  CA        33.7000    1.0780  -30.2250 C.3   480  TYR480      0.1771
    154  C         33.9790    2.0450  -29.0720 C.2   480  TYR480      0.2619
    155  O         33.9450    3.2610  -29.2550 O.2   480  TYR480     -0.2715
    156  CB        32.3340    0.4080  -30.0100 C.3   480  TYR480      0.0574
    157  CG        31.2440    1.3820  -29.5860 C.ar  480  TYR480     -0.0198
    158  CD1       30.6170    2.2040  -30.5240 C.ar  480  TYR480     -0.0009
    159  CD2       30.8610    1.4960  -28.2450 C.ar  480  TYR480     -0.0009
    160  CE1       29.6280    3.1050  -30.1510 C.ar  480  TYR480      0.0417
    161  CE2       29.8680    2.4010  -27.8580 C.ar  480  TYR480      0.0417
    162  CZ        29.2590    3.1970  -28.8220 C.ar  480  TYR480      0.1957
    163  OH        28.2830    4.0940  -28.4590 O.3   480  TYR480     -0.2866
    164  N         34.2450    1.4880  -27.8930 N.am  481  HIS481     -0.1973
    165  CA        34.4350    2.2630  -26.6710 C.3   481  HIS481      0.1656
    166  C         35.5640    3.2830  -26.7790 C.2   481  HIS481      0.2291
    167  O         35.5210    4.3420  -26.1490 O.2   481  HIS481     -0.2864
    168  CB        34.6800    1.3160  -25.5030 C.3   481  HIS481      0.0771
    169  CG        33.5290    0.3970  -25.2320 C.ar  481  HIS481      0.0820
    170  ND1       33.2560   -0.7030  -26.0150 N.ar  481  HIS481     -0.2267
    171  CD2       32.5750    0.4230  -24.2730 C.ar  481  HIS481      0.1154
    172  CE1       32.1860   -1.3190  -25.5470 C.ar  481  HIS481      0.1986
    173  NE2       31.7550   -0.6580  -24.4880 N.ar  481  HIS481     -0.2212
    174  N         34.2060    5.9980  -29.0710 N.3   484  ALA484     -0.1245
    175  CA        33.0630    6.6550  -28.4340 C.3   484  ALA484      0.1562
    176  C         33.3730    7.2530  -27.0550 C.2   484  ALA484      0.2260
    177  O         32.4730    7.7670  -26.3840 O.2   484  ALA484     -0.2867
    178  CB        31.8790    5.6950  -28.3520 C.3   484  ALA484      0.0290
    179  N         34.2710    5.8750  -24.0680 N.3   486  VAL486     -0.1245
    180  CA        33.6320    5.1870  -22.9590 C.3   486  VAL486      0.1561
    181  C         34.7160    4.4630  -22.1730 C.2   486  VAL486      0.2260
    182  O         35.3980    3.5900  -22.7090 O.2   486  VAL486     -0.2867
    183  CB        32.5650    4.1780  -23.4500 C.3   486  VAL486      0.0252
    184  CG1       31.9100    3.4670  -22.2730 C.3   486  VAL486      0.0019
    185  CG2       31.5120    4.8770  -24.2940 C.3   486  VAL486      0.0019
    186  N         36.6610    1.9150  -19.8900 N.3   488  TYR488     -0.1241
    187  CA        36.5340    0.4630  -20.0090 C.3   488  TYR488      0.1605
    188  C         36.7700   -0.3070  -18.7130 C.2   488  TYR488      0.2264
    189  O         36.3320   -1.4480  -18.5910 O.2   488  TYR488     -0.2867
    190  CB        37.4200   -0.0910  -21.1370 C.3   488  TYR488      0.0534
    191  CG        36.7770   -1.2580  -21.8540 C.ar  488  TYR488     -0.0201
    192  CD1       35.8220   -1.0470  -22.8580 C.ar  488  TYR488     -0.0009
    193  CD2       37.0990   -2.5740  -21.5150 C.ar  488  TYR488     -0.0009
    194  CE1       35.2130   -2.1160  -23.5090 C.ar  488  TYR488      0.0417
    195  CE2       36.4960   -3.6530  -22.1650 C.ar  488  TYR488      0.0417
    196  CZ        35.5560   -3.4160  -23.1580 C.ar  488  TYR488      0.1957
    197  OH        34.9560   -4.4820  -23.7900 O.3   488  TYR488     -0.2866
    198  N         35.3540   -0.1860  -16.0180 N.3   490  ARG490     -0.1231
    199  CA        34.0520   -0.6550  -15.5500 C.3   490  ARG490      0.1694
    200  C         33.8040   -2.1340  -15.8580 C.2   490  ARG490      0.2592
    201  O         33.1960   -2.8370  -15.0570 O.2   490  ARG490     -0.2718
    202  CB        32.9230    0.2100  -16.1270 C.3   490  ARG490      0.0321
    203  CG        32.8510    0.2280  -17.6590 C.3   490  ARG490      0.0489
    204  CD        31.8400    1.2380  -18.1790 C.3   490  ARG490      0.2205
    205  NE        32.2160    2.6090  -17.8310 N.pl3 490  ARG490     -0.0865
    206  CZ        31.4780    3.6820  -18.0950 C.cat 490  ARG490      0.5346
    207  NH1       30.3100    3.5570  -18.7140 N.pl3 490  ARG490      0.1354
    208  NH2       31.9040    4.8880  -17.7290 N.pl3 490  ARG490      0.1354
    209  N         34.2810   -2.6040  -17.0080 N.am  491  TYR491     -0.1976
    210  CA        34.0390   -3.9880  -17.4220 C.3   491  TYR491      0.1639
    211  C         34.9770   -4.9660  -16.7230 C.2   491  TYR491      0.2290
    212  O         34.5810   -6.0840  -16.4070 O.2   491  TYR491     -0.2864
    213  CB        34.1210   -4.1360  -18.9440 C.3   491  TYR491      0.0560
    214  CG        33.1500   -3.2460  -19.6840 C.ar  491  TYR491     -0.0198
    215  CD1       31.7830   -3.5410  -19.7160 C.ar  491  TYR491     -0.0009
    216  CD2       33.5900   -2.1010  -20.3380 C.ar  491  TYR491     -0.0009
    217  CE1       30.8850   -2.7190  -20.3910 C.ar  491  TYR491      0.0417
    218  CE2       32.6980   -1.2730  -21.0110 C.ar  491  TYR491      0.0417
    219  CZ        31.3500   -1.5870  -21.0300 C.ar  491  TYR491      0.1957
    220  OH        30.4720   -0.7660  -21.6950 O.3   491  TYR491     -0.2866
    221  N         33.3910   -7.8360  -14.3180 N.3   495  PHE495     -0.1241
    222  CA        33.6840   -9.2640  -14.4700 C.3   495  PHE495      0.1605
    223  C         34.2030   -9.9120  -13.1910 C.2   495  PHE495      0.2264
    224  O         34.0180  -11.1070  -12.9860 O.2   495  PHE495     -0.2867
    225  CB        34.6330   -9.5080  -15.6410 C.3   495  PHE495      0.0534
    226  CG        33.9310   -9.6670  -16.9620 C.ar  495  PHE495     -0.0203
    227  CD1       34.1230  -10.8110  -17.7280 C.ar  495  PHE495     -0.0042
    228  CD2       33.0610   -8.6850  -17.4320 C.ar  495  PHE495     -0.0042
    229  CE1       33.4740  -10.9700  -18.9540 C.ar  495  PHE495     -0.0003
    230  CE2       32.4050   -8.8340  -18.6580 C.ar  495  PHE495     -0.0003
    231  CZ        32.6120   -9.9810  -19.4170 C.ar  495  PHE495     -0.0000
@<TRIPOS>BOND
     1     4     3    2
     2     3     2    1
     3     1     2    1
     4     2     5    1
     5     5     6    1
     6    28    29    1
     7   143   144    1
     8     6     7    1
     9   144   145    1
    10   144   147    1
    11    29    32    1
    12    29    30    1
    13   158   160   ar
    14   158   157   ar
    15   152   145   am
    16   152   153    1
    17   145   146    2
    18    32    33    1
    19     7     9   ar
    20     7     8   ar
    21   153   156    1
    22   153   154    1
    23   160   162   ar
    24   156   157    1
    25    30    31    2
    26    30    38   am
    27   157   159   ar
    28   147   148    1
    29    34    33   ar
    30    34    36   ar
    31   155   154    2
    32    33    35   ar
    33   154   164   am
    34   174   175    1
    35    38    39    1
    36   162   163    1
    37   162   161   ar
    38   149   148    1
    39   149   150    1
    40   175   178    1
    41   175   176    1
    42    22    21    2
    43    36    37   ar
    44   159   161   ar
    45    39    42    1
    46    39    40    1
    47    35    37   ar
    48   164   165    1
    49   151   150    1
    50    10    11    1
    51    17    16    2
    52    21    20    1
    53   176   177    2
    54    15    16    1
    55    15    14    1
    56    40    43   am
    57    40    41    2
    58    16    18   am
    59   166   165    1
    60   166   167    2
    61    65    67   ar
    62    65    63   ar
    63   165   168    1
    64    48    47    1
    65    67    66   ar
    66    19    20    1
    67    19    12   am
    68    43    44    1
    69    11    14    1
    70    11    12    1
    71    20    23    1
    72    23    24    1
    73    84    83    1
    74   170   172   ar
    75   170   169   ar
    76    63    62   ar
    77    63    61   ar
    78    62    60   ar
    79    85    83    1
    80    83    80    1
    81    47    44    1
    82    12    13    2
    83    26    25    2
    84    66    64   ar
    85   172   173   ar
    86   168   169    1
    87   169   171   ar
    88    44    45    1
    89    46    45    2
    90    61    64   ar
    91    61    59   ar
    92    60    59   ar
    93    24    25    1
    94    25    27   am
    95    45    49   am
    96   173   171   ar
    97   185   183    1
    98    80    79    1
    99    80    81    1
   100    59    58    1
   101    79    70   am
   102   179   180    1
   103    68    69    1
   104   104   102   ar
   105    81    82    2
   106   197   196    1
   107   101   102    1
   108   101   100    1
   109   194   196   ar
   110   194   192   ar
   111   183   180    1
   112   183   184    1
   113    75    77   ar
   114    75    73   ar
   115   102   103   ar
   116    77    78   ar
   117    49    50    1
   118   196   195   ar
   119    58    55    1
   120   180   181    1
   121    70    69    1
   122    70    71    2
   123    69    72    1
   124    72    73    1
   125   192   191   ar
   126    73    74   ar
   127    78    76   ar
   128   182   181    2
   129   100    97    1
   130    50    51    1
   131    50    53    1
   132   140   138   ar
   133   140   142   ar
   134   138   137   ar
   135    74    76   ar
   136   195   193   ar
   137    51    54   am
   138    51    52    2
   139    54    55    1
   140   191   193   ar
   141   191   190    1
   142    55    56    1
   143   220   219    1
   144   142   141   ar
   145   132   133    1
   146   133   136    1
   147   133   134    1
   148    97    96    1
   149    97    98    1
   150   190   187    1
   151   219   218   ar
   152   219   217   ar
   153   137   136    1
   154   137   139   ar
   155   218   216   ar
   156    96    88   am
   157    93    91   ar
   158    93    95   ar
   159    90    91    1
   160    90    87    1
   161    56    57    2
   162   135   134    2
   163   217   215   ar
   164   216   214   ar
   165    91    92   ar
   166    86    87    1
   167    98    99    2
   168    95    94   ar
   169   187   186    1
   170   187   188    1
   171   141   139   ar
   172    87    88    1
   173    88    89    2
   174   215   214   ar
   175   214   213    1
   176   231   229   ar
   177   231   230   ar
   178    92    94   ar
   179   112   114   ar
   180   112   110   ar
   181   114   113   ar
   182   229   227   ar
   183   213   210    1
   184   207   206    1
   185   188   189    2
   186   230   228   ar
   187   122   121   ar
   188   130   129   ar
   189   110   109    1
   190   110   111   ar
   191   204   205    1
   192   204   203    1
   193   123   121   ar
   194   206   205    2
   195   206   208    1
   196   109   106    1
   197   121   120    1
   198   113   111   ar
   199   227   226   ar
   200   203   202    1
   201   131   129   ar
   202   129   128    1
   203   228   226   ar
   204   210   209    1
   205   210   211    1
   206   209   200   am
   207   226   225    1
   208   120   119    1
   209   105   106    1
   210   106   107    1
   211   211   212    2
   212   107   108    2
   213   119   116    1
   214   125   128    1
   215   125   124    1
   216   125   126    1
   217   202   199    1
   218   198   199    1
   219   118   117    2
   220   200   199    1
   221   200   201    2
   222   116   117    1
   223   116   115    1
   224   225   222    1
   225   127   126    2
   226   222   221    1
   227   222   223    1
   228   223   224    2
