@<TRIPOS>MOLECULE
tmp/2x94A03.pdb
 200 195 0 0 0
SMALL
GASTEIGER

@<TRIPOS>ATOM
      1  N         38.1050   10.3990  -40.0490 N.3   249  GLN249     -0.1245
      2  CA        37.7390   10.1330  -41.4430 C.3   249  GLN249      0.1566
      3  C         36.9730   11.2910  -42.0860 C.2   249  GLN249      0.2260
      4  O         36.9050   11.3930  -43.3140 O.2   249  GLN249     -0.2867
      5  CB        36.9430    8.8320  -41.5440 C.3   249  GLN249      0.0367
      6  CG        35.5240    8.8930  -41.0000 C.3   249  GLN249      0.0905
      7  CD        34.8610    7.5380  -41.0090 C.2   249  GLN249      0.2608
      8  OE1       35.2610    6.6370  -40.2730 O.2   249  GLN249     -0.2717
      9  NE2       33.8410    7.3820  -41.8460 N.am  249  GLN249     -0.0878
     10  N         25.6030    0.5250  -35.6650 N.3   321  HIS321     -0.1226
     11  CA        26.1790    0.9770  -36.9290 C.3   321  HIS321      0.1752
     12  C         25.1680    0.7570  -38.0550 C.2   321  HIS321      0.2596
     13  O         24.7520   -0.3770  -38.3070 O.2   321  HIS321     -0.2718
     14  CB        27.5030    0.2660  -37.2260 C.3   321  HIS321      0.0759
     15  CG        28.2480    0.8600  -38.3790 C.ar  321  HIS321      0.0818
     16  ND1       29.2780    1.7610  -38.2160 N.ar  321  HIS321     -0.2268
     17  CD2       28.0890    0.7060  -39.7150 C.ar  321  HIS321      0.1154
     18  CE1       29.7290    2.1290  -39.4020 C.ar  321  HIS321      0.1986
     19  NE2       29.0250    1.5020  -40.3280 N.ar  321  HIS321     -0.2212
     20  N         24.7750    1.8490  -38.7130 N.am  322  ALA322     -0.1966
     21  CA        23.6730    1.8520  -39.6840 C.3   322  ALA322      0.1728
     22  C         23.9050    0.9340  -40.8860 C.2   322  ALA322      0.2617
     23  O         25.0320    0.8060  -41.3690 O.2   322  ALA322     -0.2715
     24  CB        23.3890    3.2780  -40.1550 C.3   322  ALA322      0.0334
     25  N         22.8300    0.3070  -41.3640 N.am  323  SER323     -0.1936
     26  CA        22.9060   -0.6000  -42.5110 C.3   323  SER323      0.2055
     27  C         21.5570   -0.7650  -43.2110 C.2   323  SER323      0.2642
     28  O         20.4990   -0.5540  -42.6130 O.2   323  SER323     -0.2714
     29  CB        23.4470   -1.9680  -42.0840 C.3   323  SER323      0.2130
     30  OG        22.5860   -2.5820  -41.1450 O.3   323  SER323     -0.2179
     31  N         21.6170   -1.1340  -44.4880 N.am  324  ALA324     -0.1977
     32  CA        20.4330   -1.3990  -45.2940 C.3   324  ALA324      0.1597
     33  C         20.4290   -2.8700  -45.7100 C.2   324  ALA324      0.2287
     34  O         21.4890   -3.4570  -45.9610 O.2   324  ALA324     -0.2864
     35  CB        20.4110   -0.4920  -46.5090 C.3   324  ALA324      0.0319
     36  N         24.3180   15.6320  -40.2850 N.3   344  ASP344     -0.1239
     37  CA        25.0570   14.4740  -40.7970 C.3   344  ASP344      0.1674
     38  C         24.1990   13.2120  -40.8080 C.2   344  ASP344      0.2266
     39  O         24.3380   12.3760  -41.6960 O.2   344  ASP344     -0.2867
     40  CB        26.3440   14.2260  -40.0010 C.3   344  ASP344      0.1410
     41  CG        27.2240   13.1620  -40.6390 C.2   344  ASP344      0.3668
     42  OD1       27.6940   13.3720  -41.7800 O.co2 344  ASP344     -0.2456
     43  OD2       27.4410   12.1120  -40.0000 O.co2 344  ASP344     -0.2456
     44  N         22.0580   13.1120  -43.8320 N.3   347  PHE347     -0.1227
     45  CA        22.8510   12.5800  -44.9430 C.3   347  PHE347      0.1736
     46  C         22.9690   11.0630  -44.8680 C.2   347  PHE347      0.2596
     47  O         22.8330   10.3830  -45.8790 O.2   347  PHE347     -0.2718
     48  CB        24.2550   13.1990  -44.9870 C.3   347  PHE347      0.0547
     49  CG        24.2670   14.7010  -45.1190 C.ar  347  PHE347     -0.0202
     50  CD1       23.2380   15.3780  -45.7730 C.ar  347  PHE347     -0.0042
     51  CD2       25.3420   15.4340  -44.6190 C.ar  347  PHE347     -0.0042
     52  CE1       23.2610   16.7620  -45.8940 C.ar  347  PHE347     -0.0003
     53  CE2       25.3820   16.8130  -44.7410 C.ar  347  PHE347     -0.0003
     54  CZ        24.3380   17.4830  -45.3750 C.ar  347  PHE347     -0.0000
     55  N         23.2270   10.5440  -43.6710 N.am  348  THR348     -0.1953
     56  CA        23.2990    9.1020  -43.4360 C.3   348  THR348      0.1897
     57  C         21.9800    8.3970  -43.8110 C.2   348  THR348      0.2313
     58  O         21.9970    7.3160  -44.4030 O.2   348  THR348     -0.2863
     59  CB        23.7130    8.7940  -41.9760 C.3   348  THR348      0.1794
     60  OG1       24.9960    9.3790  -41.7150 O.3   348  THR348     -0.2208
     61  CG2       23.7950    7.2950  -41.7210 C.3   348  THR348      0.0378
     62  N         21.9880    8.2020  -47.5510 N.3   351  HIS351     -0.1226
     63  CA        22.9540    7.1740  -47.9450 C.3   351  HIS351      0.1752
     64  C         22.3290    5.7820  -47.8680 C.2   351  HIS351      0.2595
     65  O         22.3840    5.0150  -48.8310 O.2   351  HIS351     -0.2718
     66  CB        24.2160    7.2180  -47.0710 C.3   351  HIS351      0.0759
     67  CG        25.1860    6.1160  -47.3730 C.ar  351  HIS351      0.0818
     68  ND1       26.1880    6.2470  -48.3090 N.ar  351  HIS351     -0.2268
     69  CD2       25.2840    4.8550  -46.8900 C.ar  351  HIS351      0.1154
     70  CE1       26.8750    5.1210  -48.3760 C.ar  351  HIS351      0.1986
     71  NE2       26.3450    4.2580  -47.5280 N.ar  351  HIS351     -0.2212
     72  N         21.7420    5.4660  -46.7160 N.am  352  GLU352     -0.1979
     73  CA        21.1110    4.1680  -46.4900 C.3   352  GLU352      0.1602
     74  C         19.9140    3.9280  -47.4100 C.2   352  GLU352      0.2287
     75  O         19.7170    2.8100  -47.8930 O.2   352  GLU352     -0.2864
     76  CB        20.7010    4.0090  -45.0240 C.3   352  GLU352      0.0415
     77  CG        21.8670    4.0260  -44.0250 C.3   352  GLU352      0.1163
     78  CD        22.9120    2.9500  -44.2880 C.2   352  GLU352      0.3649
     79  OE1       22.6030    1.9490  -44.9810 O.co2 352  GLU352     -0.2457
     80  OE2       24.0510    3.1100  -43.7930 O.co2 352  GLU352     -0.2457
     81  N         20.9020    2.6480  -50.8420 N.3   355  HIS355     -0.1241
     82  CA        21.0270    1.1930  -50.9110 C.3   355  HIS355      0.1621
     83  C         19.6590    0.5670  -51.1790 C.2   355  HIS355      0.2264
     84  O         19.5280   -0.3070  -52.0330 O.2   355  HIS355     -0.2867
     85  CB        21.5910    0.6220  -49.6090 C.3   355  HIS355      0.0745
     86  CG        23.0350    0.9380  -49.3660 C.ar  355  HIS355      0.0817
     87  ND1       24.0380    0.5680  -50.2380 N.ar  355  HIS355     -0.2268
     88  CD2       23.6500    1.5460  -48.3240 C.ar  355  HIS355      0.1154
     89  CE1       25.2050    0.9550  -49.7540 C.ar  355  HIS355      0.1986
     90  NE2       24.9980    1.5480  -48.5910 N.ar  355  HIS355     -0.2212
     91  N         27.4490    2.2340  -52.9110 N.3   379  GLU379     -0.1245
     92  CA        27.7460    3.2630  -51.9170 C.3   379  GLU379      0.1567
     93  C         27.5040    4.6810  -52.4280 C.2   379  GLU379      0.2260
     94  O         27.2700    5.6000  -51.6370 O.2   379  GLU379     -0.2867
     95  CB        29.1940    3.1200  -51.4250 C.3   379  GLU379      0.0388
     96  CG        29.5060    1.7670  -50.8050 C.3   379  GLU379      0.1160
     97  CD        28.5590    1.4150  -49.6710 C.2   379  GLU379      0.3649
     98  OE1       28.0550    2.3370  -49.0020 O.co2 379  GLU379     -0.2457
     99  OE2       28.3180    0.2180  -49.4390 O.co2 379  GLU379     -0.2457
    100  N         24.6550    9.0440  -51.6430 N.3   383  ASP383     -0.1239
    101  CA        25.5570   10.1900  -51.5060 C.3   383  ASP383      0.1674
    102  C         25.3310   11.2570  -52.5750 C.2   383  ASP383      0.2266
    103  O         25.5480   12.4460  -52.3290 O.2   383  ASP383     -0.2867
    104  CB        27.0170    9.7320  -51.5210 C.3   383  ASP383      0.1410
    105  CG        27.4620    9.1410  -50.1920 C.2   383  ASP383      0.3668
    106  OD1       26.5970    8.6740  -49.4140 O.co2 383  ASP383     -0.2456
    107  OD2       28.6870    9.1370  -49.9300 O.co2 383  ASP383     -0.2456
    108  N         34.4560   15.2430  -47.9740 N.3   422  LYS422     -0.1245
    109  CA        34.7010   14.5120  -49.2240 C.3   422  LYS422      0.1561
    110  C         36.1730   14.2940  -49.6100 C.2   422  LYS422      0.2260
    111  O         36.5280   13.2160  -50.0940 O.2   422  LYS422     -0.2867
    112  CB        33.9290   15.1530  -50.3900 C.3   422  LYS422      0.0271
    113  CG        32.4100   15.2380  -50.1930 C.3   422  LYS422      0.0035
    114  CD        31.7670   13.8630  -50.0280 C.3   422  LYS422      0.0206
    115  CE        30.2530   13.9670  -49.8930 C.3   422  LYS422      0.1093
    116  NZ        29.6150   12.6170  -49.8420 N.3   422  LYS422     -0.1314
    117  N         38.2470   12.3340  -46.5960 N.3   425  PHE425     -0.1241
    118  CA        37.9080   10.9160  -46.5790 C.3   425  PHE425      0.1605
    119  C         38.7830   10.0660  -47.4990 C.2   425  PHE425      0.2264
    120  O         39.0080    8.8950  -47.2250 O.2   425  PHE425     -0.2867
    121  CB        36.4410   10.7490  -46.9760 C.3   425  PHE425      0.0534
    122  CG        35.9130    9.3500  -46.8260 C.ar  425  PHE425     -0.0203
    123  CD1       35.5740    8.8490  -45.5720 C.ar  425  PHE425     -0.0042
    124  CD2       35.7230    8.5440  -47.9440 C.ar  425  PHE425     -0.0042
    125  CE1       35.0660    7.5570  -45.4340 C.ar  425  PHE425     -0.0003
    126  CE2       35.2100    7.2600  -47.8170 C.ar  425  PHE425     -0.0003
    127  CZ        34.8810    6.7670  -46.5600 C.ar  425  PHE425     -0.0000
    128  N         37.8760    0.4350  -35.8420 N.3   479  LYS479     -0.1231
    129  CA        36.9990    0.8980  -36.9160 C.3   479  LYS479      0.1693
    130  C         36.0250   -0.2300  -37.2590 C.2   479  LYS479      0.2592
    131  O         36.4530   -1.3570  -37.5340 O.2   479  LYS479     -0.2718
    132  CB        37.8240    1.2960  -38.1500 C.3   479  LYS479      0.0285
    133  CG        37.0060    1.6770  -39.3920 C.3   479  LYS479      0.0035
    134  CD        36.2570    3.0020  -39.2180 C.3   479  LYS479      0.0206
    135  CE        35.2520    3.2000  -40.3470 C.3   479  LYS479      0.1093
    136  NZ        34.1100    4.0760  -39.9710 N.3   479  LYS479     -0.1314
    137  N         34.7270    0.0790  -37.2480 N.am  480  TYR480     -0.1962
    138  CA        33.6690   -0.9270  -37.4380 C.3   480  TYR480      0.1771
    139  C         33.9610   -1.9330  -38.5550 C.2   480  TYR480      0.2619
    140  O         33.9410   -3.1390  -38.3260 O.2   480  TYR480     -0.2715
    141  CB        32.2990   -0.2670  -37.6730 C.3   480  TYR480      0.0574
    142  CG        31.2090   -1.2620  -38.0310 C.ar  480  TYR480     -0.0198
    143  CD1       30.6130   -2.0590  -37.0500 C.ar  480  TYR480     -0.0009
    144  CD2       30.7920   -1.4210  -39.3550 C.ar  480  TYR480     -0.0009
    145  CE1       29.6230   -2.9820  -37.3740 C.ar  480  TYR480      0.0417
    146  CE2       29.8010   -2.3410  -39.6900 C.ar  480  TYR480      0.0417
    147  CZ        29.2220   -3.1140  -38.6960 C.ar  480  TYR480      0.1957
    148  OH        28.2480   -4.0240  -39.0240 O.3   480  TYR480     -0.2866
    149  N         34.2360   -1.4190  -39.7490 N.am  481  HIS481     -0.1973
    150  CA        34.4170   -2.2480  -40.9430 C.3   481  HIS481      0.1656
    151  C         35.5510   -3.2510  -40.8240 C.2   481  HIS481      0.2291
    152  O         35.5170   -4.3070  -41.4560 O.2   481  HIS481     -0.2864
    153  CB        34.6310   -1.3600  -42.1660 C.3   481  HIS481      0.0771
    154  CG        33.4850   -0.4400  -42.4400 C.ar  481  HIS481      0.0820
    155  ND1       33.1720    0.6210  -41.6170 N.ar  481  HIS481     -0.2267
    156  CD2       32.5750   -0.4220  -43.4420 C.ar  481  HIS481      0.1154
    157  CE1       32.1220    1.2540  -42.1040 C.ar  481  HIS481      0.1986
    158  NE2       31.7390    0.6410  -43.2100 N.ar  481  HIS481     -0.2212
    159  N         34.1840   -5.8670  -43.4980 N.3   486  VAL486     -0.1245
    160  CA        33.5210   -5.2170  -44.6200 C.3   486  VAL486      0.1561
    161  C         34.5890   -4.4940  -45.4300 C.2   486  VAL486      0.2260
    162  O         35.2880   -3.6320  -44.9060 O.2   486  VAL486     -0.2867
    163  CB        32.4200   -4.2240  -44.1500 C.3   486  VAL486      0.0252
    164  CG1       31.7880   -3.5020  -45.3360 C.3   486  VAL486      0.0019
    165  CG2       31.3400   -4.9510  -43.3450 C.3   486  VAL486      0.0019
    166  N         36.5160   -1.9520  -47.6710 N.3   488  TYR488     -0.1241
    167  CA        36.3910   -0.4920  -47.5690 C.3   488  TYR488      0.1605
    168  C         36.6530    0.2830  -48.8680 C.2   488  TYR488      0.2264
    169  O         36.2580    1.4450  -48.9820 O.2   488  TYR488     -0.2867
    170  CB        37.2480    0.0720  -46.4190 C.3   488  TYR488      0.0534
    171  CG        36.6110    1.2760  -45.7530 C.ar  488  TYR488     -0.0201
    172  CD1       35.6630    1.1140  -44.7430 C.ar  488  TYR488     -0.0009
    173  CD2       36.9360    2.5760  -46.1510 C.ar  488  TYR488     -0.0009
    174  CE1       35.0610    2.2110  -44.1400 C.ar  488  TYR488      0.0417
    175  CE2       36.3370    3.6860  -45.5520 C.ar  488  TYR488      0.0417
    176  CZ        35.4020    3.4950  -44.5490 C.ar  488  TYR488      0.1957
    177  OH        34.8010    4.5800  -43.9550 O.3   488  TYR488     -0.2866
    178  N         34.1460    2.5290  -50.6690 N.3   491  TYR491     -0.1241
    179  CA        33.9010    3.9150  -50.2760 C.3   491  TYR491      0.1605
    180  C         34.8260    4.9000  -50.9880 C.2   491  TYR491      0.2264
    181  O         34.4060    6.0130  -51.3090 O.2   491  TYR491     -0.2867
    182  CB        33.9760    4.0850  -48.7590 C.3   491  TYR491      0.0534
    183  CG        32.9900    3.2210  -48.0080 C.ar  491  TYR491     -0.0201
    184  CD1       31.6290    3.5410  -47.9750 C.ar  491  TYR491     -0.0009
    185  CD2       33.4130    2.0810  -47.3370 C.ar  491  TYR491     -0.0009
    186  CE1       30.7150    2.7360  -47.2820 C.ar  491  TYR491      0.0417
    187  CE2       32.5130    1.2750  -46.6430 C.ar  491  TYR491      0.0417
    188  CZ        31.1690    1.6070  -46.6220 C.ar  491  TYR491      0.1957
    189  OH        30.2820    0.8110  -45.9350 O.3   491  TYR491     -0.2866
    190  N         33.3250    7.7520  -53.4220 N.3   495  PHE495     -0.1241
    191  CA        33.6110    9.1820  -53.2890 C.3   495  PHE495      0.1605
    192  C         34.1500    9.8200  -54.5750 C.2   495  PHE495      0.2264
    193  O         34.0120   11.0230  -54.7650 O.2   495  PHE495     -0.2867
    194  CB        34.5350    9.4510  -52.0960 C.3   495  PHE495      0.0534
    195  CG        33.8030    9.6070  -50.7810 C.ar  495  PHE495     -0.0203
    196  CD1       34.0100   10.7340  -49.9880 C.ar  495  PHE495     -0.0042
    197  CD2       32.8980    8.6390  -50.3440 C.ar  495  PHE495     -0.0042
    198  CE1       33.3370   10.8930  -48.7760 C.ar  495  PHE495     -0.0003
    199  CE2       32.2170    8.7870  -49.1310 C.ar  495  PHE495     -0.0003
    200  CZ        32.4400    9.9150  -48.3450 C.ar  495  PHE495     -0.0000
@<TRIPOS>BOND
     1   193   192    2
     2   192   191    1
     3   190   191    1
     4   191   194    1
     5    91    92    1
     6   102   103    2
     7   102   101    1
     8    93    92    1
     9    93    94    2
    10   194   195    1
    11    84    83    2
    12    92    95    1
    13   100   101    1
    14   104   101    1
    15   104   105    1
    16    95    96    1
    17   181   180    2
    18    83    82    1
    19   180   179    1
    20    82    81    1
    21    82    85    1
    22    96    97    1
    23   195   197   ar
    24   195   196   ar
    25   178   179    1
    26   112   113    1
    27   112   109    1
    28   197   199   ar
    29   179   182    1
    30    87    89   ar
    31    87    86   ar
    32   113   114    1
    33   105   107   ar
    34   105   106   ar
    35   111   110    2
    36   114   115    1
    37   196   198   ar
    38   115   116    1
    39    89    90   ar
    40    97    99   ar
    41    97    98   ar
    42   110   109    1
    43    85    86    1
    44    86    88   ar
    45   109   108    1
    46   199   200   ar
    47   169   168    2
    48   168   167    1
    49    65    64    2
    50   198   200   ar
    51   182   183    1
    52    90    88   ar
    53    70    68   ar
    54    70    71   ar
    55    68    67   ar
    56   183   184   ar
    57   183   185   ar
    58   184   186   ar
    59    63    64    1
    60    63    62    1
    61    63    66    1
    62   124   126   ar
    63   124   122   ar
    64    75    74    2
    65    64    72   am
    66   126   127   ar
    67   166   167    1
    68   167   170    1
    69    71    69   ar
    70   119   120    2
    71   119   118    1
    72    74    73    1
    73    67    66    1
    74    67    69   ar
    75   185   187   ar
    76   186   188   ar
    77   121   122    1
    78   121   118    1
    79   122   123   ar
    80    72    73    1
    81   187   188   ar
    82   188   189    1
    83   117   118    1
    84   127   125   ar
    85    35    32    1
    86    73    76    1
    87   170   171    1
    88   173   171   ar
    89   173   175   ar
    90    34    33    2
    91    52    50   ar
    92    52    54   ar
    93    47    46    2
    94    50    49   ar
    95   171   172   ar
    96    33    32    1
    97   123   125   ar
    98   175   176   ar
    99   161   162    2
   100   161   160    1
   101    54    53   ar
   102   164   163    1
   103    32    31    1
   104    49    48    1
   105    49    51   ar
   106    76    77    1
   107    48    45    1
   108    79    78   ar
   109    45    46    1
   110    45    44    1
   111    46    55   am
   112   172   174   ar
   113    53    51   ar
   114   160   163    1
   115   160   159    1
   116   176   174   ar
   117   176   177    1
   118    31    27   am
   119    58    57    2
   120    78    77    1
   121    78    80   ar
   122   163   165    1
   123    57    56    1
   124    55    56    1
   125   156   158   ar
   126   156   154   ar
   127    56    59    1
   128     4     3    2
   129    27    28    2
   130    27    26    1
   131   158   157   ar
   132    26    29    1
   133    26    25    1
   134   154   153    1
   135   154   155   ar
   136   153   150    1
   137   157   155   ar
   138     3     2    1
   139    29    30    1
   140    59    61    1
   141    59    60    1
   142     9     7   am
   143    42    41   ar
   144    39    38    2
   145     5     2    1
   146     5     6    1
   147   152   151    2
   148     2     1    1
   149    23    22    2
   150    25    22   am
   151     7     6    1
   152     7     8    2
   153   150   151    1
   154   150   149    1
   155    22    21    1
   156    38    37    1
   157    37    36    1
   158    37    40    1
   159    41    40    1
   160    41    43   ar
   161   135   136    1
   162   135   134    1
   163    19    17   ar
   164    19    18   ar
   165    24    21    1
   166   149   139   am
   167    17    15   ar
   168   146   144   ar
   169   146   147   ar
   170    21    20    1
   171    18    16   ar
   172   133   134    1
   173   133   132    1
   174   144   142   ar
   175   148   147    1
   176    20    12   am
   177   147   145   ar
   178   139   140    2
   179   139   138    1
   180    15    16   ar
   181    15    14    1
   182    13    12    2
   183   132   129    1
   184    12    11    1
   185   142   141    1
   186   142   143   ar
   187   141   138    1
   188   131   130    2
   189   138   137    1
   190   145   143   ar
   191   130   137   am
   192   130   129    1
   193    14    11    1
   194    11    10    1
   195   129   128    1
