@<TRIPOS>MOLECULE
tmp/2x97A00.pdb
 239 236 0 0 0
SMALL
GASTEIGER

@<TRIPOS>ATOM
      1  N         19.6610   14.2240   44.7490 N.3    28  THR28      -0.1218
      2  CA        19.5910   12.7940   44.4710 C.3    28  THR28       0.1862
      3  C         18.7030   12.4860   43.2690 C.2    28  THR28       0.2287
      4  O         19.0350   11.6340   42.4510 O.2    28  THR28      -0.2866
      5  CB        19.1250   12.0560   45.6490 C.3    28  THR28       0.1770
      6  OG1       19.9880   12.4020   46.7050 O.3    28  THR28      -0.2211
      7  CG2       19.2990   10.4890   45.4270 C.3    28  THR28       0.0375
      8  N         32.5540    8.6800   34.5710 N.3   108  GLU108     -0.1245
      9  CA        31.5610    7.6810   34.7880 C.3   108  GLU108      0.1567
     10  C         30.7900    7.4920   33.4830 C.2   108  GLU108      0.2260
     11  O         30.4070    6.3650   33.1590 O.2   108  GLU108     -0.2867
     12  CB        30.5670    8.0800   35.8850 C.3   108  GLU108      0.0388
     13  CG        29.4930    6.9850   36.1070 C.3   108  GLU108      0.1160
     14  CD        28.7740    7.0130   37.4820 C.2   108  GLU108      0.3649
     15  OE1       29.0810    7.8710   38.3420 O.co2 108  GLU108     -0.2457
     16  OE2       27.8860    6.1470   37.7050 O.co2 108  GLU108     -0.2457
     17  N         38.0340  -10.3410   40.3350 N.3   249  GLN249     -0.1245
     18  CA        37.7320  -10.0540   41.7480 C.3   249  GLN249      0.1566
     19  C         36.9970  -11.1980   42.4310 C.2   249  GLN249      0.2260
     20  O         36.9360  -11.2610   43.6820 O.2   249  GLN249     -0.2867
     21  CB        36.8970   -8.7990   41.8130 C.3   249  GLN249      0.0367
     22  CG        35.4580   -8.9250   41.2750 C.3   249  GLN249      0.0905
     23  CD        34.7770   -7.5530   41.3380 C.2   249  GLN249      0.2608
     24  OE1       35.1580   -6.6380   40.6020 O.2   249  GLN249     -0.2717
     25  NE2       33.8550   -7.3820   42.2620 N.am  249  GLN249     -0.0878
     26  N         25.9430   -0.5660   36.1150 N.3   321  HIS321     -0.1226
     27  CA        26.4170   -1.0600   37.4020 C.3   321  HIS321      0.1752
     28  C         25.3450   -0.8840   38.4540 C.2   321  HIS321      0.2596
     29  O         24.8830    0.2660   38.6340 O.2   321  HIS321     -0.2718
     30  CB        27.7610   -0.3540   37.8170 C.3   321  HIS321      0.0759
     31  CG        28.4310   -1.0700   38.9460 C.ar  321  HIS321      0.0818
     32  ND1       29.4550   -1.9860   38.7650 N.ar  321  HIS321     -0.2268
     33  CD2       28.1620   -1.0550   40.2720 C.ar  321  HIS321      0.1154
     34  CE1       29.7720   -2.5130   39.9370 C.ar  321  HIS321      0.1986
     35  NE2       28.9920   -1.9760   40.8660 N.ar  321  HIS321     -0.2212
     36  N         25.0110   -1.9480   39.2120 N.am  322  ALA322     -0.1966
     37  CA        23.8160   -1.9760   40.0960 C.3   322  ALA322      0.1728
     38  C         23.9060   -0.9460   41.2570 C.2   322  ALA322      0.2617
     39  O         25.0090   -0.7270   41.8210 O.2   322  ALA322     -0.2715
     40  CB        23.6220   -3.3970   40.6700 C.3   322  ALA322      0.0334
     41  N         22.7740   -0.3580   41.6620 N.am  323  SER323     -0.1936
     42  CA        22.7900    0.7040   42.6750 C.3   323  SER323      0.2055
     43  C         21.4690    0.7310   43.4170 C.2   323  SER323      0.2643
     44  O         20.4240    0.2330   42.8970 O.2   323  SER323     -0.2714
     45  CB        23.0520    2.0760   42.0930 C.3   323  SER323      0.2130
     46  OG        22.1120    2.4340   41.0760 O.3   323  SER323     -0.2179
     47  N         21.5220    1.2940   44.6350 N.am  324  ALA324     -0.1963
     48  CA        20.3890    1.3450   45.5390 C.3   324  ALA324      0.1728
     49  C         20.3820    2.8160   46.0610 C.2   324  ALA324      0.2616
     50  O         21.4770    3.4050   46.3420 O.2   324  ALA324     -0.2715
     51  CB        20.5410    0.2960   46.7180 C.3   324  ALA324      0.0334
     52  N         19.1860    3.4020   46.1820 N.am  325  TRP325     -0.1960
     53  CA        19.0390    4.8650   46.2060 C.3   325  TRP325      0.1771
     54  C         18.0450    5.2480   47.2860 C.2   325  TRP325      0.2619
     55  O         16.9540    4.6680   47.3430 O.2   325  TRP325     -0.2715
     56  CB        18.5730    5.4220   44.8180 C.3   325  TRP325      0.0590
     57  CG        19.5330    5.3210   43.7110 C.ar  325  TRP325      0.0006
     58  CD1       19.8060    4.1800   42.9510 C.ar  325  TRP325      0.0946
     59  CD2       20.2820    6.3570   43.1240 C.ar  325  TRP325      0.0152
     60  NE1       20.7420    4.4570   42.0520 N.ar  325  TRP325     -0.2442
     61  CE2       21.0290    5.7850   42.0850 C.ar  325  TRP325      0.0810
     62  CE3       20.4000    7.7420   43.3760 C.ar  325  TRP325      0.0012
     63  CZ2       21.9320    6.5150   41.3020 C.ar  325  TRP325      0.0191
     64  CZ3       21.2700    8.4720   42.5770 C.ar  325  TRP325      0.0001
     65  CH2       22.0320    7.8640   41.5580 C.ar  325  TRP325      0.0015
     66  N         18.5060    6.1030   48.2400 N.am  326  ASP326     -0.1971
     67  CA        17.6720    6.6920   49.2910 C.3   326  ASP326      0.1709
     68  C         17.3980    8.1410   48.8550 C.2   326  ASP326      0.2293
     69  O         18.3280    8.9300   48.5510 O.2   326  ASP326     -0.2864
     70  CB        18.4420    6.6590   50.6200 C.3   326  ASP326      0.1436
     71  CG        17.6040    7.0550   51.8070 C.2   326  ASP326      0.3671
     72  OD1       18.1370    6.9080   52.9280 O.co2 326  ASP326     -0.2456
     73  OD2       16.4220    7.4880   51.6280 O.co2 326  ASP326     -0.2456
     74  N         23.1220  -10.6360   43.9360 N.3   348  THR348     -0.1218
     75  CA        23.1460   -9.1780   43.7350 C.3   348  THR348      0.1862
     76  C         21.8010   -8.4730   44.0740 C.2   348  THR348      0.2287
     77  O         21.7980   -7.4100   44.6680 O.2   348  THR348     -0.2866
     78  CB        23.6080   -8.7810   42.3480 C.3   348  THR348      0.1770
     79  OG1       24.9080   -9.3380   42.1540 O.3   348  THR348     -0.2211
     80  CG2       23.7050   -7.2020   42.1570 C.3   348  THR348      0.0375
     81  N         21.9000   -8.2910   47.8470 N.3   351  HIS351     -0.1226
     82  CA        22.8870   -7.2310   48.1740 C.3   351  HIS351      0.1752
     83  C         22.2000   -5.8380   48.0730 C.2   351  HIS351      0.2595
     84  O         22.2570   -5.0800   48.9970 O.2   351  HIS351     -0.2718
     85  CB        24.1140   -7.2410   47.2140 C.3   351  HIS351      0.0759
     86  CG        25.0720   -6.1330   47.5340 C.ar  351  HIS351      0.0818
     87  ND1       26.0430   -6.2930   48.4990 N.ar  351  HIS351     -0.2268
     88  CD2       25.1410   -4.8490   47.1180 C.ar  351  HIS351      0.1154
     89  CE1       26.7230   -5.1640   48.6060 C.ar  351  HIS351      0.1986
     90  NE2       26.1580   -4.2540   47.8300 N.ar  351  HIS351     -0.2212
     91  N         21.6020   -5.4920   46.9350 N.am  352  GLU352     -0.1979
     92  CA        20.9620   -4.1770   46.7620 C.3   352  GLU352      0.1602
     93  C         19.8360   -4.0330   47.7240 C.2   352  GLU352      0.2287
     94  O         19.6790   -2.9420   48.2770 O.2   352  GLU352     -0.2864
     95  CB        20.4870   -3.9290   45.3390 C.3   352  GLU352      0.0415
     96  CG        21.5560   -4.3020   44.3160 C.3   352  GLU352      0.1163
     97  CD        22.8390   -3.4840   44.4940 C.2   352  GLU352      0.3649
     98  OE1       22.7430   -2.3340   44.9810 O.co2 352  GLU352     -0.2457
     99  OE2       23.9100   -3.9750   44.0510 O.co2 352  GLU352     -0.2457
    100  N         20.8880   -2.6990   51.1470 N.3   355  HIS355     -0.1241
    101  CA        21.0250   -1.2580   51.2610 C.3   355  HIS355      0.1621
    102  C         19.6050   -0.6550   51.5100 C.2   355  HIS355      0.2264
    103  O         19.4230    0.2250   52.3270 O.2   355  HIS355     -0.2867
    104  CB        21.5740   -0.6740   50.0050 C.3   355  HIS355      0.0745
    105  CG        23.0340   -0.9540   49.7910 C.ar  355  HIS355      0.0817
    106  ND1       24.0070   -0.5630   50.6970 N.ar  355  HIS355     -0.2268
    107  CD2       23.6970   -1.4750   48.7350 C.ar  355  HIS355      0.1154
    108  CE1       25.2030   -0.9020   50.2300 C.ar  355  HIS355      0.1986
    109  NE2       25.0430   -1.4040   49.0230 N.ar  355  HIS355     -0.2212
    110  N         18.2040    1.7810   54.5350 N.3   359  PHE359     -0.1241
    111  CA        17.5240    3.0880   54.3390 C.3   359  PHE359      0.1605
    112  C         16.2180    3.2080   55.1290 C.2   359  PHE359      0.2264
    113  O         15.9210    4.2550   55.7570 O.2   359  PHE359     -0.2867
    114  CB        17.1980    3.3750   52.9140 C.3   359  PHE359      0.0534
    115  CG        18.3960    3.3260   51.9150 C.ar  359  PHE359     -0.0203
    116  CD1       19.7370    3.6490   52.2830 C.ar  359  PHE359     -0.0042
    117  CD2       18.1260    3.0450   50.5640 C.ar  359  PHE359     -0.0042
    118  CE1       20.7920    3.6190   51.3500 C.ar  359  PHE359     -0.0003
    119  CE2       19.2000    2.9720   49.6060 C.ar  359  PHE359     -0.0003
    120  CZ        20.5410    3.3470   50.0310 C.ar  359  PHE359     -0.0000
    121  N         27.0870   -0.8450   55.5950 N.3   378  HIS378     -0.1226
    122  CA        26.0240   -0.7380   54.5610 C.3   378  HIS378      0.1752
    123  C         26.1760   -1.8600   53.5570 C.2   378  HIS378      0.2595
    124  O         25.1650   -2.4540   53.0740 O.2   378  HIS378     -0.2718
    125  CB        26.0690    0.6140   53.8330 C.3   378  HIS378      0.0759
    126  CG        24.7320    1.2970   53.7640 C.ar  378  HIS378      0.0818
    127  ND1       23.6580    0.8000   53.0280 N.ar  378  HIS378     -0.2268
    128  CD2       24.2910    2.4320   54.3640 C.ar  378  HIS378      0.1154
    129  CE1       22.6240    1.6280   53.1660 C.ar  378  HIS378      0.1986
    130  NE2       22.9720    2.6050   54.0000 N.ar  378  HIS378     -0.2212
    131  N         27.4440   -2.1810   53.2140 N.am  379  GLU379     -0.1979
    132  CA        27.6790   -3.2330   52.2010 C.3   379  GLU379      0.1602
    133  C         27.4230   -4.6550   52.7590 C.2   379  GLU379      0.2287
    134  O         27.2250   -5.5980   51.9820 O.2   379  GLU379     -0.2864
    135  CB        29.1880   -3.1800   51.6680 C.3   379  GLU379      0.0415
    136  CG        29.5080   -1.8400   51.1230 C.3   379  GLU379      0.1163
    137  CD        28.5610   -1.5070   49.9200 C.2   379  GLU379      0.3649
    138  OE1       28.0550   -2.4590   49.3120 O.co2 379  GLU379     -0.2457
    139  OE2       28.2330   -0.3340   49.6360 O.co2 379  GLU379     -0.2457
    140  N         38.2280  -12.4100   46.9550 N.3   425  PHE425     -0.1241
    141  CA        37.9670  -10.9740   46.8950 C.3   425  PHE425      0.1605
    142  C         38.7990  -10.1280   47.8710 C.2   425  PHE425      0.2264
    143  O         38.9630   -8.9260   47.6790 O.2   425  PHE425     -0.2867
    144  CB        36.4800  -10.8200   47.3360 C.3   425  PHE425      0.0534
    145  CG        35.9360   -9.4050   47.1940 C.ar  425  PHE425     -0.0203
    146  CD1       35.6390   -8.8910   45.9200 C.ar  425  PHE425     -0.0042
    147  CD2       35.7260   -8.5960   48.3240 C.ar  425  PHE425     -0.0042
    148  CE1       35.0880   -7.5040   45.8110 C.ar  425  PHE425     -0.0003
    149  CE2       35.1890   -7.2540   48.2430 C.ar  425  PHE425     -0.0003
    150  CZ        34.8500   -6.7330   47.0300 C.ar  425  PHE425     -0.0000
    151  N         37.8010   -0.4040   36.2600 N.3   479  LYS479     -0.1231
    152  CA        36.9430   -0.9050   37.3440 C.3   479  LYS479      0.1693
    153  C         35.9200    0.2370   37.6460 C.2   479  LYS479      0.2592
    154  O         36.3370    1.3860   37.8660 O.2   479  LYS479     -0.2718
    155  CB        37.7770   -1.1870   38.6080 C.3   479  LYS479      0.0285
    156  CG        36.9020   -1.6320   39.8790 C.3   479  LYS479      0.0035
    157  CD        36.1640   -2.9700   39.5360 C.3   479  LYS479      0.0206
    158  CE        35.3200   -3.3970   40.7020 C.3   479  LYS479      0.1093
    159  NZ        34.0230   -3.9220   40.3030 N.3   479  LYS479     -0.1314
    160  N         34.6200   -0.1030   37.6630 N.am  480  TYR480     -0.1962
    161  CA        33.5430    0.8770   37.7840 C.3   480  TYR480      0.1771
    162  C         33.8480    1.8810   38.9360 C.2   480  TYR480      0.2619
    163  O         33.8350    3.0690   38.7410 O.2   480  TYR480     -0.2715
    164  CB        32.1620    0.1670   38.0710 C.3   480  TYR480      0.0574
    165  CG        31.0830    1.2140   38.4160 C.ar  480  TYR480     -0.0198
    166  CD1       30.5670    2.0720   37.4050 C.ar  480  TYR480     -0.0009
    167  CD2       30.6520    1.3910   39.7330 C.ar  480  TYR480     -0.0009
    168  CE1       29.6090    3.0660   37.7320 C.ar  480  TYR480      0.0417
    169  CE2       29.6910    2.3770   40.0570 C.ar  480  TYR480      0.0417
    170  CZ        29.1910    3.1880   39.0190 C.ar  480  TYR480      0.1957
    171  OH        28.2990    4.1580   39.3010 O.3   480  TYR480     -0.2866
    172  N         34.1270    1.3610   40.1300 N.am  481  HIS481     -0.1973
    173  CA        34.2860    2.2270   41.2670 C.3   481  HIS481      0.1656
    174  C         35.4530    3.1880   41.1640 C.2   481  HIS481      0.2291
    175  O         35.4440    4.2760   41.7930 O.2   481  HIS481     -0.2864
    176  CB        34.4730    1.3450   42.5300 C.3   481  HIS481      0.0771
    177  CG        33.3100    0.4470   42.8040 C.ar  481  HIS481      0.0820
    178  ND1       33.0150   -0.6420   42.0030 N.ar  481  HIS481     -0.2267
    179  CD2       32.4410    0.4020   43.8530 C.ar  481  HIS481      0.1154
    180  CE1       31.9670   -1.2740   42.5100 C.ar  481  HIS481      0.1986
    181  NE2       31.6360   -0.6750   43.6570 N.ar  481  HIS481     -0.2212
    182  N         34.0730    5.8880   38.8760 N.3   484  ALA484     -0.1245
    183  CA        32.9150    6.5440   39.4970 C.3   484  ALA484      0.1562
    184  C         33.2820    7.1790   40.8560 C.2   484  ALA484      0.2260
    185  O         32.3920    7.7230   41.5240 O.2   484  ALA484     -0.2867
    186  CB        31.8200    5.5580   39.7330 C.3   484  ALA484      0.0290
    187  N         34.1960    5.8620   43.8110 N.3   486  VAL486     -0.1245
    188  CA        33.5270    5.2180   44.9470 C.3   486  VAL486      0.1561
    189  C         34.5620    4.5300   45.7700 C.2   486  VAL486      0.2260
    190  O         35.3030    3.7310   45.2810 O.2   486  VAL486     -0.2867
    191  CB        32.4840    4.1870   44.5110 C.3   486  VAL486      0.0252
    192  CG1       31.7770    3.5980   45.6870 C.3   486  VAL486      0.0019
    193  CG2       31.4160    4.9010   43.6220 C.3   486  VAL486      0.0019
    194  N         36.5360    1.9870   48.1000 N.3   488  TYR488     -0.1241
    195  CA        36.3820    0.5200   47.9390 C.3   488  TYR488      0.1605
    196  C         36.6080   -0.2310   49.2410 C.2   488  TYR488      0.2264
    197  O         36.1890   -1.4000   49.3810 O.2   488  TYR488     -0.2867
    198  CB        37.3180   -0.0430   46.7900 C.3   488  TYR488      0.0534
    199  CG        36.6750   -1.2480   46.1300 C.ar  488  TYR488     -0.0201
    200  CD1       35.6710   -1.0670   45.1380 C.ar  488  TYR488     -0.0009
    201  CD2       37.0090   -2.5480   46.5160 C.ar  488  TYR488     -0.0009
    202  CE1       35.0760   -2.1490   44.5400 C.ar  488  TYR488      0.0417
    203  CE2       36.3880   -3.7090   45.8930 C.ar  488  TYR488      0.0417
    204  CZ        35.4110   -3.4960   44.9550 C.ar  488  TYR488      0.1957
    205  OH        34.7760   -4.5530   44.3410 O.3   488  TYR488     -0.2866
    206  N         35.1230   -0.0700   51.9730 N.3   490  ARG490     -0.1231
    207  CA        33.8450   -0.4970   52.5060 C.3   490  ARG490      0.1694
    208  C         33.6530   -1.9730   52.1440 C.2   490  ARG490      0.2592
    209  O         33.0360   -2.7150   52.9040 O.2   490  ARG490     -0.2718
    210  CB        32.7680    0.3960   51.8330 C.3   490  ARG490      0.0321
    211  CG        32.6650    0.1750   50.2790 C.3   490  ARG490      0.0489
    212  CD        31.6840    1.2210   49.6360 C.3   490  ARG490      0.2205
    213  NE        32.0140    2.6030   49.9730 N.pl3 490  ARG490     -0.0865
    214  CZ        31.2640    3.6530   49.6410 C.cat 490  ARG490      0.5346
    215  NH1       30.1150    3.4680   48.9490 N.pl3 490  ARG490      0.1354
    216  NH2       31.6350    4.9040   50.0270 N.pl3 490  ARG490      0.1354
    217  N         34.0770   -2.4220   50.9390 N.am  491  TYR491     -0.1976
    218  CA        33.7980   -3.8330   50.6140 C.3   491  TYR491      0.1639
    219  C         34.7440   -4.8020   51.3390 C.2   491  TYR491      0.2290
    220  O         34.3540   -5.9120   51.6680 O.2   491  TYR491     -0.2864
    221  CB        33.8700   -4.1180   49.1060 C.3   491  TYR491      0.0560
    222  CG        32.8980   -3.2810   48.3120 C.ar  491  TYR491     -0.0198
    223  CD1       31.5160   -3.5980   48.2870 C.ar  491  TYR491     -0.0009
    224  CD2       33.3240   -2.1480   47.6990 C.ar  491  TYR491     -0.0009
    225  CE1       30.6210   -2.8190   47.5650 C.ar  491  TYR491      0.0417
    226  CE2       32.4100   -1.3410   46.9830 C.ar  491  TYR491      0.0417
    227  CZ        31.0730   -1.6790   46.9300 C.ar  491  TYR491      0.1957
    228  OH        30.1810   -0.8830   46.1890 O.3   491  TYR491     -0.2866
    229  N         33.2430   -7.7060   53.7360 N.3   495  PHE495     -0.1241
    230  CA        33.5480   -9.1490   53.6620 C.3   495  PHE495      0.1605
    231  C         34.1120   -9.7770   54.9040 C.2   495  PHE495      0.2264
    232  O         33.9150  -10.9870   55.1090 O.2   495  PHE495     -0.2867
    233  CB        34.4930   -9.4500   52.5200 C.3   495  PHE495      0.0534
    234  CG        33.7740   -9.5510   51.1990 C.ar  495  PHE495     -0.0203
    235  CD1       34.0210  -10.6790   50.3460 C.ar  495  PHE495     -0.0042
    236  CD2       32.8200   -8.5910   50.8250 C.ar  495  PHE495     -0.0042
    237  CE1       33.3860  -10.8100   49.1590 C.ar  495  PHE495     -0.0003
    238  CE2       32.1550   -8.7250   49.5540 C.ar  495  PHE495     -0.0003
    239  CZ        32.4490   -9.8160   48.7370 C.ar  495  PHE495     -0.0000
@<TRIPOS>BOND
     1    11    10    2
     2    10     9    1
     3     8     9    1
     4     9    12    1
     5    12    13    1
     6    13    14    1
     7    26    27    1
     8   151   152    1
     9   152   153    1
    10   152   155    1
    11    27    30    1
    12    27    28    1
    13   166   168   ar
    14   166   165   ar
    15    14    16   ar
    16    14    15   ar
    17   153   160   am
    18   153   154    2
    19   160   161    1
    20   168   170   ar
    21   161   164    1
    22   161   162    1
    23    30    31    1
    24   164   165    1
    25   165   167   ar
    26    28    29    2
    27    28    36   am
    28   155   156    1
    29   163   162    2
    30    32    31   ar
    31    32    34   ar
    32   182   183    1
    33   162   172   am
    34    31    33   ar
    35   170   171    1
    36   170   169   ar
    37    36    37    1
    38   183   186    1
    39   183   184    1
    40   157   156    1
    41   157   158    1
    42   167   169   ar
    43    34    35   ar
    44    37    40    1
    45    37    38    1
    46   172   173    1
    47    33    35   ar
    48   159   158    1
    49    17    18    1
    50    24    23    2
    51   184   185    2
    52    46    45    1
    53   174   173    1
    54   174   175    2
    55    38    41   am
    56    38    39    2
    57   173   176    1
    58    22    23    1
    59    22    21    1
    60    63    65   ar
    61    63    61   ar
    62    23    25   am
    63    65    64   ar
    64    41    42    1
    65    18    21    1
    66    18    19    1
    67   178   180   ar
    68   178   177   ar
    69    60    61   ar
    70    60    58   ar
    71    61    59   ar
    72    45    42    1
    73    79    78    1
    74    80    78    1
    75    78    75    1
    76    19    20    2
    77     4     3    2
    78   180   181   ar
    79   176   177    1
    80    64    62   ar
    81    42    43    1
    82   177   179   ar
    83    44    43    2
    84    58    57   ar
    85    59    62   ar
    86    59    57   ar
    87     3     2    1
    88    43    47   am
    89   193   191    1
    90   181   179   ar
    91    57    56    1
    92    75    74    1
    93    75    76    1
    94   187   188    1
    95    99    97   ar
    96    76    77    2
    97    96    97    1
    98    96    95    1
    99   205   204    1
   100     2     1    1
   101     2     5    1
   102    97    98   ar
   103   191   188    1
   104   191   192    1
   105   202   204   ar
   106   202   200   ar
   107    47    48    1
   108    56    53    1
   109   188   189    1
   110   204   203   ar
   111   200   199   ar
   112   190   189    2
   113    95    92    1
   114     7     5    1
   115    48    49    1
   116    48    51    1
   117     5     6    1
   118   148   146   ar
   119   148   150   ar
   120   203   201   ar
   121   146   145   ar
   122    49    52   am
   123    49    50    2
   124   199   201   ar
   125   199   198    1
   126    52    53    1
   127   228   227    1
   128    53    54    1
   129    92    91    1
   130    92    93    1
   131   198   195    1
   132   141   140    1
   133   141   144    1
   134   141   142    1
   135   227   226   ar
   136   227   225   ar
   137    91    83   am
   138   226   224   ar
   139   150   149   ar
   140    88    86   ar
   141    88    90   ar
   142   145   144    1
   143   145   147   ar
   144    85    86    1
   145    85    82    1
   146    54    55    2
   147    54    66   am
   148    86    87   ar
   149   225   223   ar
   150   143   142    2
   151   224   222   ar
   152    93    94    2
   153    90    89   ar
   154    81    82    1
   155   195   194    1
   156   195   196    1
   157    83    82    1
   158    83    84    2
   159    66    67    1
   160   149   147   ar
   161   223   222   ar
   162   222   221    1
   163    87    89   ar
   164    69    68    2
   165   107   109   ar
   166   107   105   ar
   167   239   237   ar
   168   239   238   ar
   169    68    67    1
   170   215   214    1
   171   109   108   ar
   172   221   218    1
   173   237   235   ar
   174   196   197    2
   175    67    70    1
   176   138   137   ar
   177   238   236   ar
   178   119   120   ar
   179   119   117   ar
   180   212   213    1
   181   212   211    1
   182   139   137   ar
   183   214   213    2
   184   214   216    1
   185   105   104    1
   186   105   106   ar
   187   137   136    1
   188   104   101    1
   189   120   118   ar
   190   108   106   ar
   191   211   210    1
   192   235   234   ar
   193   117   115   ar
   194   218   217    1
   195   218   219    1
   196    70    71    1
   197   236   234   ar
   198   217   208   am
   199   136   135    1
   200   100   101    1
   201   234   233    1
   202   101   102    1
   203   219   220    2
   204   118   116   ar
   205   102   103    2
   206    73    71   ar
   207   135   132    1
   208    71    72   ar
   209   210   207    1
   210   115   116   ar
   211   115   114    1
   212   206   207    1
   213   134   133    2
   214   208   207    1
   215   208   209    2
   216   132   133    1
   217   132   131    1
   218   233   230    1
   219   114   111    1
   220   127   129   ar
   221   127   126   ar
   222   124   123    2
   223   129   130   ar
   224   131   123   am
   225   123   122    1
   226   230   229    1
   227   230   231    1
   228   126   125    1
   229   126   128   ar
   230   125   122    1
   231   130   128   ar
   232   111   110    1
   233   111   112    1
   234   122   121    1
   235   231   232    2
   236   112   113    2
