@<TRIPOS>MOLECULE
tmp/2x99A09.pdb
 109 107 0 0 0
SMALL
GASTEIGER

@<TRIPOS>ATOM
      1  N          2.4110   -9.3800    7.5030 N.3   165  LEU165     -0.1245
      2  CA         1.3380   -9.0470    6.5410 C.3   165  LEU165      0.1561
      3  C          1.0550  -10.2010    5.5520 C.2   165  LEU165      0.2260
      4  O         -0.0960  -10.4180    5.1380 O.2   165  LEU165     -0.2867
      5  CB         1.6600   -7.7550    5.7660 C.3   165  LEU165      0.0270
      6  CG         1.5650   -6.3960    6.5060 C.3   165  LEU165      0.0019
      7  CD1        2.1610   -5.2300    5.6690 C.3   165  LEU165      0.0001
      8  CD2        0.1360   -6.0350    6.9580 C.3   165  LEU165      0.0001
      9  N         -1.5190  -12.8030    6.3360 N.3   168  HIS168     -0.1241
     10  CA        -2.9140  -12.4810    6.0950 C.3   168  HIS168      0.1621
     11  C         -3.2150  -12.4620    4.6170 C.2   168  HIS168      0.2264
     12  O         -4.3420  -12.7270    4.2000 O.2   168  HIS168     -0.2867
     13  CB        -3.2950  -11.2090    6.8390 C.3   168  HIS168      0.0745
     14  CG        -2.9760  -11.2910    8.2980 C.ar  168  HIS168      0.0817
     15  ND1       -2.0340  -10.4880    8.9070 N.ar  168  HIS168     -0.2268
     16  CD2       -3.4120  -12.1510    9.2510 C.ar  168  HIS168      0.1154
     17  CE1       -1.9280  -10.8310   10.1810 C.ar  168  HIS168      0.1986
     18  NE2       -2.7530  -11.8380   10.4140 N.ar  168  HIS168     -0.2212
     19  N         -6.2740  -14.2080    2.8010 N.3   172  ASP172     -0.1239
     20  CA        -7.0720  -13.4540    1.8130 C.3   172  ASP172      0.1674
     21  C         -7.1300  -14.1140    0.4490 C.2   172  ASP172      0.2266
     22  O         -8.1640  -14.0730   -0.2010 O.2   172  ASP172     -0.2867
     23  CB        -6.5570  -12.0180    1.6630 C.3   172  ASP172      0.1410
     24  CG        -6.7860  -11.1760    2.9140 C.2   172  ASP172      0.3668
     25  OD1       -7.5090  -11.6280    3.8490 O.co2 172  ASP172     -0.2456
     26  OD2       -6.2260  -10.0570    2.9570 O.co2 172  ASP172     -0.2456
     27  N         -7.6890   -3.4010   17.8500 N.3   330  TYR330     -0.1241
     28  CA        -7.4400   -4.2570   16.6910 C.3   330  TYR330      0.1605
     29  C         -6.4950   -5.4350   17.0460 C.2   330  TYR330      0.2264
     30  O         -6.7610   -6.5780   16.6670 O.2   330  TYR330     -0.2867
     31  CB        -6.8740   -3.4650   15.5120 C.3   330  TYR330      0.0534
     32  CG        -6.6950   -4.3120   14.2570 C.ar  330  TYR330     -0.0201
     33  CD1       -7.7300   -4.4400   13.3230 C.ar  330  TYR330     -0.0009
     34  CD2       -5.4970   -4.9970   14.0150 C.ar  330  TYR330     -0.0009
     35  CE1       -7.5770   -5.2000   12.1650 C.ar  330  TYR330      0.0417
     36  CE2       -5.3260   -5.7770   12.8450 C.ar  330  TYR330      0.0417
     37  CZ        -6.3720   -5.8700   11.9370 C.ar  330  TYR330      0.1957
     38  OH        -6.2240   -6.6310   10.8080 O.3   330  TYR330     -0.2866
     39  N          0.0840   -4.2430   13.2050 N.3   471  PRO471     -0.2102
     40  CA        -0.6200   -5.0910   12.2180 C.3   471  PRO471      0.1504
     41  C         -1.6130   -4.2930   11.3620 C.2   471  PRO471      0.2575
     42  O         -1.5810   -4.4040   10.1360 O.2   471  PRO471     -0.2718
     43  CB        -1.3340   -6.1230   13.0900 C.3   471  PRO471      0.0282
     44  CG        -0.4440   -6.2730   14.2860 C.3   471  PRO471      0.0208
     45  CD         0.1370   -4.8830   14.5380 C.3   471  PRO471      0.0893
     46  N         -2.4780   -3.4910   11.9870 N.am  472  LEU472     -0.1980
     47  CA        -3.1370   -2.4030   11.2490 C.3   472  LEU472      0.1596
     48  C         -2.3550   -1.1160   11.4930 C.2   472  LEU472      0.2287
     49  O         -2.2180   -0.6960   12.6420 O.2   472  LEU472     -0.2864
     50  CB        -4.6010   -2.2370   11.6650 C.3   472  LEU472      0.0297
     51  CG        -5.4760   -1.3970   10.7220 C.3   472  LEU472      0.0022
     52  CD1       -5.4160   -1.9770    9.3040 C.3   472  LEU472      0.0001
     53  CD2       -6.9250   -1.3280   11.2500 C.3   472  LEU472      0.0001
     54  N        -11.2260   -0.8470    3.3810 N.3   502  PRO502     -0.2116
     55  CA       -10.4730   -1.0170    2.1350 C.3   502  PRO502      0.1372
     56  C        -11.2780   -1.9190    1.2290 C.2   502  PRO502      0.2244
     57  O        -11.9030   -2.8650    1.7140 O.2   502  PRO502     -0.2868
     58  CB        -9.1940   -1.7560    2.5710 C.3   502  PRO502      0.0268
     59  CG        -9.0750   -1.5030    4.0180 C.3   502  PRO502      0.0207
     60  CD       -10.4780   -1.3310    4.5540 C.3   502  PRO502      0.0892
     61  N        -10.2550   -4.1260   -0.7210 N.3   504  GLU504     -0.1231
     62  CA        -9.6440   -5.4540   -0.6200 C.3   504  GLU504      0.1699
     63  C        -10.2010   -6.2910    0.5280 C.2   504  GLU504      0.2592
     64  O        -10.1830   -7.5160    0.4670 O.2   504  GLU504     -0.2718
     65  CB        -8.1280   -5.3170   -0.4650 C.3   504  GLU504      0.0402
     66  CG        -7.4470   -4.6530   -1.6680 C.3   504  GLU504      0.1161
     67  CD        -7.5800   -3.1290   -1.6920 C.2   504  GLU504      0.3649
     68  OE1       -8.2900   -2.5410   -0.8320 O.co2 504  GLU504     -0.2457
     69  OE2       -6.9590   -2.5220   -2.5880 O.co2 504  GLU504     -0.2457
     70  N        -10.6900   -5.6140    1.5640 N.am  505  TRP505     -0.1976
     71  CA       -11.2200   -6.2750    2.7500 C.3   505  TRP505      0.1640
     72  C        -12.6220   -6.7990    2.5360 C.2   505  TRP505      0.2290
     73  O        -13.1440   -7.4970    3.4000 O.2   505  TRP505     -0.2864
     74  CB       -11.2400   -5.3010    3.9450 C.3   505  TRP505      0.0576
     75  CG        -9.9130   -5.0960    4.6000 C.ar  505  TRP505      0.0006
     76  CD1       -8.6730   -5.2970    4.0440 C.ar  505  TRP505      0.0946
     77  CD2       -9.6810   -4.6080    5.9330 C.ar  505  TRP505      0.0152
     78  NE1       -7.6890   -4.9890    4.9580 N.ar  505  TRP505     -0.2442
     79  CE2       -8.2750   -4.5520    6.1190 C.ar  505  TRP505      0.0810
     80  CE3      -10.5210   -4.2320    6.9870 C.ar  505  TRP505      0.0012
     81  CZ2       -7.6900   -4.1270    7.3230 C.ar  505  TRP505      0.0191
     82  CZ3       -9.9400   -3.8070    8.1900 C.ar  505  TRP505      0.0001
     83  CH2       -8.5370   -3.7660    8.3460 C.ar  505  TRP505      0.0015
     84  N        -13.1620   -9.0260    5.9210 N.3   510  ARG510     -0.1245
     85  CA       -12.5880   -8.3800    7.1140 C.3   510  ARG510      0.1563
     86  C        -13.5060   -7.2810    7.6890 C.2   510  ARG510      0.2260
     87  O        -14.5960   -7.0390    7.1630 O.2   510  ARG510     -0.2867
     88  CB       -11.1640   -7.8920    6.8350 C.3   510  ARG510      0.0307
     89  CG       -10.1690   -9.0450    6.6300 C.3   510  ARG510      0.0489
     90  CD        -8.7190   -8.6110    6.3230 C.3   510  ARG510      0.2205
     91  NE        -7.8780   -9.7890    6.1070 N.pl3 510  ARG510     -0.0865
     92  CZ        -7.3770  -10.5550    7.0840 C.cat 510  ARG510      0.5346
     93  NH1       -7.5870  -10.2540    8.3660 N.pl3 510  ARG510      0.1354
     94  NH2       -6.6540  -11.6230    6.7820 N.pl3 510  ARG510      0.1354
     95  N         -4.3770    0.0200    6.2320 N.3   537  PRO537     -0.2102
     96  CA        -3.2490   -0.5690    5.5080 C.3   537  PRO537      0.1504
     97  C         -2.4620    0.4960    4.7940 C.2   537  PRO537      0.2575
     98  O         -3.0340    1.4860    4.3530 O.2   537  PRO537     -0.2718
     99  CB        -3.9200   -1.4960    4.4680 C.3   537  PRO537      0.0282
    100  CG        -5.3300   -1.1180    4.4290 C.3   537  PRO537      0.0208
    101  CD        -5.6670   -0.5310    5.7840 C.3   537  PRO537      0.0893
    102  N         -1.1550    0.3170    4.6840 N.am  538  ASN538     -0.1975
    103  CA        -0.3420    1.2800    3.9480 C.3   538  ASN538      0.1688
    104  C         -0.4480    2.7210    4.4870 C.2   538  ASN538      0.2292
    105  O         -0.3130    3.6800    3.7180 O.2   538  ASN538     -0.2864
    106  CB        -0.7210    1.2260    2.4610 C.3   538  ASN538      0.1181
    107  CG        -0.6860   -0.1900    1.9100 C.2   538  ASN538      0.2629
    108  OD1        0.3310   -0.8870    2.0300 O.2   538  ASN538     -0.2716
    109  ND2       -1.8000   -0.6370    1.3240 N.am  538  ASN538     -0.0877
@<TRIPOS>BOND
     1    69    67   ar
     2    67    66    1
     3    67    68   ar
     4    66    65    1
     5    61    62    1
     6    62    65    1
     7    62    63    1
     8    22    21    2
     9    21    20    1
    10    64    63    2
    11    63    70   am
    12    56    57    2
    13    56    55    1
    14   109   107   am
    15    70    71    1
    16    23    20    1
    17    23    24    1
    18    20    19    1
    19   107   108    2
    20   107   106    1
    21    55    58    1
    22    55    54    1
    23   106   103    1
    24    72    71    1
    25    72    73    2
    26    58    59    1
    27    71    74    1
    28    24    26   ar
    29    24    25   ar
    30    54    60    1
    31   105   104    2
    32    74    75    1
    33   103   104    1
    34   103   102    1
    35    59    60    1
    36    76    75   ar
    37    76    78   ar
    38    12    11    2
    39    98    97    2
    40   100    99    1
    41   100   101    1
    42    99    96    1
    43    75    77   ar
    44    11    10    1
    45   102    97   am
    46    97    96    1
    47    78    79   ar
    48     4     3    2
    49    96    95    1
    50     3     2    1
    51     7     6    1
    52     5     6    1
    53     5     2    1
    54   101    95    1
    55    84    85    1
    56    77    79   ar
    57    77    80   ar
    58    10     9    1
    59    10    13    1
    60    91    90    1
    61    91    92    2
    62    79    81   ar
    63    90    89    1
    64     6     8    1
    65     2     1    1
    66    89    88    1
    67    94    92    1
    68    88    85    1
    69    13    14    1
    70    80    82   ar
    71    92    93    1
    72    85    86    1
    73    87    86    2
    74    81    83   ar
    75    82    83   ar
    76    14    15   ar
    77    14    16   ar
    78    15    17   ar
    79    16    18   ar
    80    52    51    1
    81    42    41    2
    82    17    18   ar
    83    51    53    1
    84    51    50    1
    85    38    37    1
    86    47    48    1
    87    47    50    1
    88    47    46    1
    89    41    46   am
    90    41    40    1
    91    48    49    2
    92    37    35   ar
    93    37    36   ar
    94    35    33   ar
    95    40    43    1
    96    40    39    1
    97    36    34   ar
    98    43    44    1
    99    39    45    1
   100    33    32   ar
   101    34    32   ar
   102    32    31    1
   103    44    45    1
   104    31    28    1
   105    30    29    2
   106    28    29    1
   107    28    27    1
