@<TRIPOS>MOLECULE
tmp/2x99A02.pdb
 85 83 0 0 0
SMALL
GASTEIGER

@<TRIPOS>ATOM
      1  N         16.4790    0.6510   27.0820 N.3   257  LYS257     -0.1231
      2  CA        16.5080    0.6040   28.5310 C.3   257  LYS257      0.1693
      3  C         16.0720   -0.7760   29.0130 C.2   257  LYS257      0.2592
      4  O         15.3370   -1.4840   28.3160 O.2   257  LYS257     -0.2718
      5  CB        15.5260    1.6310   29.1110 C.3   257  LYS257      0.0285
      6  CG        15.9090    3.0830   28.9820 C.3   257  LYS257      0.0035
      7  CD        14.6600    3.9490   29.0550 C.3   257  LYS257      0.0206
      8  CE        14.9450    5.3470   29.5400 C.3   257  LYS257      0.1093
      9  NZ        13.7150    6.0000   30.0910 N.3   257  LYS257     -0.1314
     10  N         16.5190   -1.1370   30.2110 N.am  258  TYR258     -0.1963
     11  CA        15.9990   -2.2870   30.9480 C.3   258  TYR258      0.1756
     12  C         15.3770   -1.7610   32.2350 C.2   258  TYR258      0.2461
     13  O         15.8950   -0.8330   32.8310 O.2   258  TYR258     -0.2730
     14  CB        17.1320   -3.2230   31.3410 C.3   258  TYR258      0.0574
     15  CG        17.6930   -4.0800   30.2290 C.ar  258  TYR258     -0.0198
     16  CD1       17.3390   -5.4260   30.1230 C.ar  258  TYR258     -0.0009
     17  CD2       18.5960   -3.5600   29.3010 C.ar  258  TYR258     -0.0009
     18  CE1       17.8610   -6.2320   29.1160 C.ar  258  TYR258      0.0417
     19  CE2       19.1370   -4.3700   28.2850 C.ar  258  TYR258      0.0417
     20  CZ        18.7720   -5.7130   28.2070 C.ar  258  TYR258      0.1957
     21  OH        19.2770   -6.5340   27.1980 O.3   258  TYR258     -0.2866
     22  N         14.2670   -2.3520   32.6760 N.am  259  PRO259     -0.2716
     23  CA        13.7940   -1.9930   34.0170 C.3   259  PRO259      0.1536
     24  C         14.7180   -2.5500   35.0970 C.2   259  PRO259      0.2598
     25  O         15.4070   -3.5500   34.8800 O.2   259  PRO259     -0.2715
     26  CB        12.4140   -2.6680   34.1040 C.3   259  PRO259      0.0310
     27  CG        12.4320   -3.7290   33.1130 C.3   259  PRO259      0.0237
     28  CD        13.3860   -3.3260   32.0110 C.3   259  PRO259      0.0939
     29  N         14.7160   -1.9130   36.2620 N.am  260  GLU260     -0.1964
     30  CA        15.6150   -2.3080   37.3360 C.3   260  GLU260      0.1733
     31  C         14.9660   -3.3530   38.2380 C.2   260  GLU260      0.2616
     32  O         14.5630   -3.0730   39.3740 O.2   260  GLU260     -0.2715
     33  CB        16.1340   -1.0820   38.0770 C.3   260  GLU260      0.0429
     34  CG        17.2630   -0.3770   37.2950 C.3   260  GLU260      0.1163
     35  CD        17.3320    1.1430   37.5120 C.2   260  GLU260      0.3649
     36  OE1       17.5240    1.8640   36.4950 O.co2 260  GLU260     -0.2457
     37  OE2       17.1980    1.6170   38.6750 O.co2 260  GLU260     -0.2457
     38  N         14.8490   -4.5600   37.6740 N.am  261  ILE261     -0.1977
     39  CA        14.2890   -5.7330   38.3420 C.3   261  ILE261      0.1596
     40  C         15.2540   -6.9150   38.2000 C.2   261  ILE261      0.2287
     41  O         16.0610   -6.9500   37.2560 O.2   261  ILE261     -0.2864
     42  CB        12.8690   -6.1080   37.8110 C.3   261  ILE261      0.0276
     43  CG1       12.9050   -6.5340   36.3320 C.3   261  ILE261      0.0022
     44  CG2       11.8790   -4.9400   38.0550 C.3   261  ILE261      0.0022
     45  CD1       11.6170   -7.1900   35.8440 C.3   261  ILE261      0.0001
     46  N          7.2670   -6.4600   27.3690 N.3   287  ILE287     -0.1245
     47  CA         7.0420   -5.4970   28.4440 C.3   287  ILE287      0.1561
     48  C          7.2850   -4.0790   27.9470 C.2   287  ILE287      0.2260
     49  O          8.4040   -3.7460   27.5340 O.2   287  ILE287     -0.2867
     50  CB         7.9050   -5.8040   29.6770 C.3   287  ILE287      0.0252
     51  CG1        7.4300   -7.1190   30.3010 C.3   287  ILE287      0.0019
     52  CG2        7.8440   -4.6330   30.6950 C.3   287  ILE287      0.0019
     53  CD1        8.4570   -7.7970   31.1900 C.3   287  ILE287      0.0001
     54  N          1.9370   -1.1200   31.6580 N.3   312  ARG312     -0.1245
     55  CA         1.9750   -0.3970   32.9210 C.3   312  ARG312      0.1563
     56  C          0.7530    0.5170   33.0990 C.2   312  ARG312      0.2260
     57  O          0.0910    0.4710   34.1460 O.2   312  ARG312     -0.2867
     58  CB         3.2820    0.3900   33.0240 C.3   312  ARG312      0.0307
     59  CG         3.4100    1.2950   34.2350 C.3   312  ARG312      0.0489
     60  CD         4.3240    2.4440   33.8830 C.3   312  ARG312      0.2205
     61  NE         5.6180    2.2980   34.5100 N.pl3 312  ARG312     -0.0865
     62  CZ         6.7320    2.9200   34.1300 C.cat 312  ARG312      0.5346
     63  NH1        6.7490    3.7310   33.0660 N.pl3 312  ARG312      0.1354
     64  NH2        7.8460    2.7060   34.8210 N.pl3 312  ARG312      0.1354
     65  N          2.7560   -4.5630   36.1580 N.3   343  VAL343     -0.1231
     66  CA         4.2020   -4.3160   36.0760 C.3   343  VAL343      0.1678
     67  C          4.9700   -5.5680   36.4810 C.2   343  VAL343      0.2434
     68  O          4.4970   -6.3370   37.3190 O.2   343  VAL343     -0.2733
     69  CB         4.6720   -3.0870   36.9510 C.3   343  VAL343      0.0265
     70  CG1        3.9680   -1.7820   36.5120 C.3   343  VAL343      0.0020
     71  CG2        4.4450   -3.3460   38.4190 C.3   343  VAL343      0.0020
     72  N          6.1550   -5.7780   35.8740 N.am  344  PRO344     -0.2729
     73  CA         6.9820   -6.9300   36.2100 C.3   344  PRO344      0.1401
     74  C          7.8170   -6.6990   37.4770 C.2   344  PRO344      0.2269
     75  O          8.3660   -5.6160   37.6540 O.2   344  PRO344     -0.2865
     76  CB         7.8850   -7.0610   34.9880 C.3   344  PRO344      0.0296
     77  CG         8.0360   -5.6680   34.4840 C.3   344  PRO344      0.0237
     78  CD         6.7470   -4.9630   34.7950 C.3   344  PRO344      0.0939
     79  N         10.8030   -0.7400   26.7930 N.3   386  VAL386     -0.1245
     80  CA        10.4070    0.2520   27.7820 C.3   386  VAL386      0.1561
     81  C         11.1670    1.5570   27.6070 C.2   386  VAL386      0.2260
     82  O         11.5330    2.1840   28.5940 O.2   386  VAL386     -0.2867
     83  CB        10.6690   -0.2550   29.2400 C.3   386  VAL386      0.0252
     84  CG1        9.6660   -1.3060   29.6400 C.3   386  VAL386      0.0019
     85  CG2       12.1090   -0.8080   29.3820 C.3   386  VAL386      0.0019
@<TRIPOS>BOND
     1    79    80    1
     2     1     2    1
     3    21    20    1
     4    46    47    1
     5    49    48    2
     6    81    80    1
     7    81    82    2
     8    80    83    1
     9    48    47    1
    10    20    19   ar
    11    20    18   ar
    12    19    17   ar
    13     4     3    2
    14    47    50    1
    15     2     3    1
    16     2     5    1
    17     6     7    1
    18     6     5    1
    19     3    10   am
    20     7     8    1
    21    18    16   ar
    22    83    85    1
    23    83    84    1
    24    17    15   ar
    25     8     9    1
    26    50    51    1
    27    50    52    1
    28    16    15   ar
    29    10    11    1
    30    15    14    1
    31    51    53    1
    32    11    14    1
    33    11    12    1
    34    54    55    1
    35    28    22    1
    36    28    27    1
    37    12    22   am
    38    12    13    2
    39    22    23    1
    40    55    58    1
    41    55    56    1
    42    58    59    1
    43    63    62    1
    44    56    57    2
    45    27    26    1
    46    60    59    1
    47    60    61    1
    48    23    26    1
    49    23    24    1
    50    62    61    2
    51    62    64    1
    52    77    78    1
    53    77    76    1
    54    78    72    1
    55    25    24    2
    56    76    73    1
    57    24    29   am
    58    45    43    1
    59    72    73    1
    60    72    67   am
    61    66    65    1
    62    66    67    1
    63    66    69    1
    64    73    74    1
    65    29    30    1
    66    43    42    1
    67    67    68    2
    68    36    35   ar
    69    70    69    1
    70    69    71    1
    71    41    40    2
    72    34    35    1
    73    34    33    1
    74    30    33    1
    75    30    31    1
    76    74    75    2
    77    35    37   ar
    78    38    31   am
    79    38    39    1
    80    42    44    1
    81    42    39    1
    82    40    39    1
    83    31    32    2
