@<TRIPOS>MOLECULE
tmp/2x99A06.pdb
 130 121 0 0 0
SMALL
GASTEIGER

@<TRIPOS>ATOM
      1  N         31.1580   11.3620   15.2360 N.3   108  ILE108     -0.1245
      2  CA        31.1660   10.2730   16.2090 C.3   108  ILE108      0.1561
      3  C         29.8110    9.5910   16.1970 C.2   108  ILE108      0.2260
      4  O         28.8170   10.1230   16.7300 O.2   108  ILE108     -0.2867
      5  CB        31.4790   10.7670   17.6640 C.3   108  ILE108      0.0252
      6  CG1       32.7650   11.6120   17.6920 C.3   108  ILE108      0.0019
      7  CG2       31.5330    9.5660   18.6250 C.3   108  ILE108      0.0019
      8  CD1       33.0590   12.3050   19.0320 C.3   108  ILE108      0.0001
      9  N         28.6310   -1.2570   20.7940 N.3   135  GLU135     -0.1245
     10  CA        28.7550   -1.9330   22.0650 C.3   135  GLU135      0.1567
     11  C         27.7940   -3.1230   22.0690 C.2   135  GLU135      0.2260
     12  O         26.6410   -2.9730   21.6830 O.2   135  GLU135     -0.2867
     13  CB        28.4740   -0.9950   23.2520 C.3   135  GLU135      0.0388
     14  CG        28.8560   -1.6300   24.5900 C.3   135  GLU135      0.1160
     15  CD        28.5430   -0.7750   25.8140 C.2   135  GLU135      0.3649
     16  OE1       28.4610    0.4720   25.6970 O.co2 135  GLU135     -0.2457
     17  OE2       28.3990   -1.3580   26.9140 O.co2 135  GLU135     -0.2457
     18  N         35.6140    3.3220   19.0060 N.3   222  LYS222     -0.1231
     19  CA        34.8590    4.1430   19.9450 C.3   222  LYS222      0.1693
     20  C         35.5390    5.4920   20.1300 C.2   222  LYS222      0.2593
     21  O         36.7030    5.5600   20.5280 O.2   222  LYS222     -0.2718
     22  CB        34.7190    3.4600   21.3070 C.3   222  LYS222      0.0285
     23  CG        33.7960    4.2220   22.2370 C.3   222  LYS222      0.0035
     24  CD        33.5020    3.4650   23.5310 C.3   222  LYS222      0.0206
     25  CE        32.5040    4.2580   24.3620 C.3   222  LYS222      0.1093
     26  NZ        32.3660    3.7330   25.7600 N.3   222  LYS222     -0.1314
     27  N         34.7940    6.5590   19.8580 N.am  223  GLY223     -0.1942
     28  CA        35.3070    7.9000   20.0220 C.3   223  GLY223      0.2014
     29  C         34.7900    8.5650   21.2760 C.2   223  GLY223      0.2639
     30  O         33.6170    8.3910   21.6510 O.2   223  GLY223     -0.2714
     31  N         35.6780    9.3110   21.9340 N.am  224  ARG224     -0.1963
     32  CA        35.3070   10.1890   23.0400 C.3   224  ARG224      0.1729
     33  C         35.8910   11.5700   22.7950 C.2   224  ARG224      0.2616
     34  O         37.0890   11.7130   22.5010 O.2   224  ARG224     -0.2715
     35  CB        35.7950    9.6470   24.4000 C.3   224  ARG224      0.0348
     36  CG        35.0590    8.4090   24.9090 C.3   224  ARG224      0.0492
     37  CD        35.7790    7.8310   26.1300 C.3   224  ARG224      0.2205
     38  NE        35.3700    6.4640   26.4990 N.pl3 224  ARG224     -0.0865
     39  CZ        35.7890    5.3410   25.9000 C.cat 224  ARG224      0.5346
     40  NH1       36.6150    5.3850   24.8530 N.pl3 224  ARG224      0.1354
     41  NH2       35.3660    4.1620   26.3460 N.pl3 224  ARG224      0.1354
     42  N         35.0360   12.5810   22.9110 N.am  225  LEU225     -0.1963
     43  CA        35.4730   13.9680   22.8430 C.3   225  LEU225      0.1728
     44  C         36.1210   14.3530   24.1670 C.2   225  LEU225      0.2616
     45  O         35.4870   14.2820   25.2230 O.2   225  LEU225     -0.2715
     46  CB        34.2970   14.9010   22.5110 C.3   225  LEU225      0.0311
     47  CG        34.5900   16.3330   22.0210 C.3   225  LEU225      0.0022
     48  CD1       35.2050   16.3470   20.6100 C.3   225  LEU225      0.0001
     49  CD2       33.3210   17.1830   22.0490 C.3   225  LEU225      0.0001
     50  N         37.3830   14.7510   24.1030 N.am  226  ILE226     -0.1977
     51  CA        38.1420   15.1020   25.3070 C.3   226  ILE226      0.1596
     52  C         38.4760   16.5910   25.4200 C.2   226  ILE226      0.2287
     53  O         38.8110   17.0660   26.4970 O.2   226  ILE226     -0.2864
     54  CB        39.4220   14.2410   25.4560 C.3   226  ILE226      0.0276
     55  CG1       40.3260   14.3890   24.2310 C.3   226  ILE226      0.0022
     56  CG2       39.0470   12.7830   25.6790 C.3   226  ILE226      0.0022
     57  CD1       41.7730   13.9850   24.4940 C.3   226  ILE226      0.0001
     58  N         28.3280   15.0460   16.9900 N.3   250  LEU250     -0.1245
     59  CA        27.9020   13.9550   17.8560 C.3   250  LEU250      0.1561
     60  C         26.6120   13.3410   17.2840 C.2   250  LEU250      0.2260
     61  O         25.5510   13.9850   17.2670 O.2   250  LEU250     -0.2867
     62  CB        27.6450   14.4550   19.2810 C.3   250  LEU250      0.0270
     63  CG        28.7360   15.2310   20.0420 C.3   250  LEU250      0.0019
     64  CD1       28.2260   15.6810   21.4080 C.3   250  LEU250      0.0001
     65  CD2       30.0250   14.4210   20.2000 C.3   250  LEU250      0.0001
     66  N         25.5720    9.8140   18.1870 N.3   252  THR252     -0.1218
     67  CA        25.8640    8.5400   18.8850 C.3   252  THR252      0.1862
     68  C         24.6180    7.7170   19.2330 C.2   252  THR252      0.2287
     69  O         24.7370    6.5880   19.7220 O.2   252  THR252     -0.2866
     70  CB        26.6850    8.7670   20.2030 C.3   252  THR252      0.1770
     71  OG1       26.0010    9.6900   21.0610 O.3   252  THR252     -0.2211
     72  CG2       28.0680    9.3180   19.9150 C.3   252  THR252      0.0375
     73  N         23.7790    7.4360   25.7280 N.3   391  GLN391     -0.1231
     74  CA        24.8270    6.7390   26.4640 C.3   391  GLN391      0.1698
     75  C         26.0270    7.6440   26.7210 C.2   391  GLN391      0.2592
     76  O         27.1610    7.1760   26.7180 O.2   391  GLN391     -0.2718
     77  CB        25.2940    5.5180   25.6480 C.3   391  GLN391      0.0381
     78  CG        24.1740    4.6520   25.0620 C.3   391  GLN391      0.0905
     79  CD        23.6910    3.5890   26.0390 C.2   391  GLN391      0.2608
     80  OE1       24.4350    2.6800   26.4010 O.2   391  GLN391     -0.2717
     81  NE2       22.4410    3.7030   26.4680 N.am  391  GLN391     -0.0878
     82  N         25.7690    8.9290   26.9400 N.am  392  LEU392     -0.1966
     83  CA        26.8330    9.8920   27.1970 C.3   392  LEU392      0.1728
     84  C         26.6360   10.2830   28.6580 C.2   392  LEU392      0.2616
     85  O         25.6600    9.8810   29.2930 O.2   392  LEU392     -0.2715
     86  CB        26.3990   11.2960   26.7720 C.3   392  LEU392      0.0311
     87  CG        26.0290   11.4740   25.2980 C.3   392  LEU392      0.0022
     88  CD1       25.5410   12.8900   25.0330 C.3   392  LEU392      0.0001
     89  CD2       27.2110   11.1340   24.4020 C.3   392  LEU392      0.0001
     90  N         27.5690   11.0690   29.1860 N.am  393  SER393     -0.1950
     91  CA        27.9720   11.2070   30.5800 C.3   393  SER393      0.1924
     92  C         27.6800   12.6100   31.1020 C.2   393  SER393      0.2314
     93  O         28.2210   13.5940   30.5980 O.2   393  SER393     -0.2863
     94  CB        29.4590   10.8840   30.7430 C.3   393  SER393      0.2116
     95  OG        29.8640   11.0130   32.0940 O.3   393  SER393     -0.2180
     96  N         31.3110   13.7620   32.4340 N.3   396  LEU396     -0.1231
     97  CA        32.3750   13.7860   31.4690 C.3   396  LEU396      0.1693
     98  C         32.0590   14.7650   30.3770 C.2   396  LEU396      0.2592
     99  O         32.9280   15.5250   29.8500 O.2   396  LEU396     -0.2718
    100  CB        32.5090   12.3960   30.8930 C.3   396  LEU396      0.0284
    101  CG        33.1640   11.3330   31.7400 C.3   396  LEU396      0.0019
    102  CD1       32.9150   11.5220   33.1810 C.3   396  LEU396      0.0001
    103  CD2       32.7720    9.9740   31.3000 C.3   396  LEU396      0.0001
    104  N         30.7780   14.7400   30.0400 N.am  397  CYS397     -0.1970
    105  CA        30.3100   15.5570   28.9520 C.3   397  CYS397      0.1712
    106  C         30.3620   17.0120   29.3250 C.2   397  CYS397      0.2296
    107  O         30.7810   17.8350   28.5180 O.2   397  CYS397     -0.2864
    108  CB        28.9430   15.0970   28.4490 C.3   397  CYS397      0.0983
    109  SG        29.0630   13.6460   27.4200 S.3   397  CYS397     -0.0798
    110  N         32.3530   18.1870   31.4760 N.3   399  THR399     -0.1203
    111  CA        33.7390   18.5730   31.5760 C.3   399  THR399      0.1994
    112  C         34.3560   18.9490   30.2790 C.2   399  THR399      0.2617
    113  O         35.2800   19.6970   30.2590 O.2   399  THR399     -0.2717
    114  CB        34.6230   17.5420   32.1170 C.3   399  THR399      0.1784
    115  OG1       35.9300   17.8380   31.6540 O.3   399  THR399     -0.2211
    116  CG2       34.2600   16.2510   31.5790 C.3   399  THR399      0.0376
    117  N         33.8690   18.4520   29.1730 N.am  400  VAL400     -0.1979
    118  CA        34.3780   19.0790   27.9610 C.3   400  VAL400      0.1595
    119  C         33.5840   20.3630   27.6530 C.2   400  VAL400      0.2287
    120  O         33.9460   21.1450   26.8470 O.2   400  VAL400     -0.2864
    121  CB        34.3380   18.1510   26.8110 C.3   400  VAL400      0.0276
    122  CG1       34.7810   18.8310   25.6160 C.3   400  VAL400      0.0022
    123  CG2       35.1880   16.9830   27.0630 C.3   400  VAL400      0.0022
    124  N         30.0400   20.2970   27.0020 N.3   402  VAL402     -0.1245
    125  CA        28.8180   20.0040   26.2490 C.3   402  VAL402      0.1561
    126  C         27.7000   19.7420   27.2590 C.2   402  VAL402      0.2260
    127  O         27.7910   18.8040   28.0610 O.2   402  VAL402     -0.2867
    128  CB        28.9990   18.7830   25.3110 C.3   402  VAL402      0.0252
    129  CG1       27.6660   18.3550   24.6800 C.3   402  VAL402      0.0019
    130  CG2       30.0400   19.0700   24.2380 C.3   402  VAL402      0.0019
@<TRIPOS>BOND
     1     1     2    1
     2     3     2    1
     3     3     4    2
     4     2     5    1
     5    58    59    1
     6    61    60    2
     7    60    59    1
     8     5     6    1
     9     5     7    1
    10     6     8    1
    11    59    62    1
    12    66    67    1
    13    67    68    1
    14    67    70    1
    15    18    19    1
    16    68    69    2
    17    62    63    1
    18    27    28    1
    19    27    20   am
    20    72    70    1
    21    19    20    1
    22    19    22    1
    23    28    29    1
    24    63    65    1
    25    63    64    1
    26    20    21    2
    27    70    71    1
    28    48    47    1
    29     9    10    1
    30    29    30    2
    31    29    31   am
    32    22    23    1
    33    12    11    2
    34    31    32    1
    35    47    49    1
    36    47    46    1
    37    10    11    1
    38    10    13    1
    39    23    24    1
    40    34    33    2
    41    46    43    1
    42    33    42   am
    43    33    32    1
    44    43    42    1
    45    43    44    1
    46    32    35    1
    47    13    14    1
    48    24    25    1
    49    50    44   am
    50    50    51    1
    51    44    45    2
    52    55    57    1
    53    55    54    1
    54   130   128    1
    55    25    26    1
    56    35    36    1
    57    89    87    1
    58    14    15    1
    59   129   128    1
    60    40    39    1
    61    36    37    1
    62    88    87    1
    63    78    77    1
    64    78    79    1
    65    87    86    1
    66    51    52    1
    67    51    54    1
    68   128   125    1
    69    52    53    2
    70    54    56    1
    71   122   121    1
    72    77    74    1
    73    16    15   ar
    74    73    74    1
    75    15    17   ar
    76    39    41    1
    77    39    38    2
    78    79    80    2
    79    79    81   am
    80    37    38    1
    81   125   124    1
    82   125   126    1
    83    74    75    1
    84    76    75    2
    85    75    82   am
    86    86    83    1
    87   121   123    1
    88   121   118    1
    89   120   119    2
    90    82    83    1
    91    83    84    1
    92   126   127    2
    93   109   108    1
    94   119   118    1
    95   118   117    1
    96   108   105    1
    97   107   106    2
    98    84    90   am
    99    84    85    2
   100   105   106    1
   101   105   104    1
   102   117   112   am
   103    90    91    1
   104    99    98    2
   105   104    98   am
   106   113   112    2
   107   112   111    1
   108    98    97    1
   109    91    94    1
   110    91    92    1
   111    93    92    2
   112    94    95    1
   113   100    97    1
   114   100   101    1
   115   103   101    1
   116    97    96    1
   117   110   111    1
   118   111   114    1
   119   116   114    1
   120   115   114    1
   121   101   102    1
