@<TRIPOS>MOLECULE
tmp/2x99A08.pdb
 84 80 0 0 0
SMALL
GASTEIGER

@<TRIPOS>ATOM
      1  N          1.1960  -13.3930    6.0880 N.3   167  SER167     -0.1202
      2  CA         0.3230  -14.3170    6.7870 C.3   167  SER167      0.2020
      3  C         -1.1260  -14.0680    6.3950 C.2   167  SER167      0.2618
      4  O         -1.8770  -14.9950    6.1390 O.2   167  SER167     -0.2717
      5  CB         0.4720  -14.1020    8.2980 C.3   167  SER167      0.2103
      6  OG        -0.1740  -15.1180    9.0510 O.3   167  SER167     -0.2182
      7  N         -1.5190  -12.8030    6.3360 N.am  168  HIS168     -0.1975
      8  CA        -2.9140  -12.4810    6.0950 C.3   168  HIS168      0.1656
      9  C         -3.2150  -12.4620    4.6170 C.2   168  HIS168      0.2291
     10  O         -4.3420  -12.7270    4.2000 O.2   168  HIS168     -0.2864
     11  CB        -3.2950  -11.2090    6.8390 C.3   168  HIS168      0.0771
     12  CG        -2.9760  -11.2910    8.2980 C.ar  168  HIS168      0.0820
     13  ND1       -2.0340  -10.4880    8.9070 N.ar  168  HIS168     -0.2267
     14  CD2       -3.4120  -12.1510    9.2510 C.ar  168  HIS168      0.1154
     15  CE1       -1.9280  -10.8310   10.1810 C.ar  168  HIS168      0.1986
     16  NE2       -2.7530  -11.8380   10.4140 N.ar  168  HIS168     -0.2212
     17  N         -4.3580  -15.9360    4.0050 N.3   171  GLU171     -0.1245
     18  CA        -5.7900  -16.0770    4.3180 C.3   171  GLU171      0.1567
     19  C         -6.6540  -15.4090    3.2290 C.2   171  GLU171      0.2260
     20  O         -7.6380  -15.9760    2.7690 O.2   171  GLU171     -0.2867
     21  CB        -6.1270  -15.4850    5.7020 C.3   171  GLU171      0.0388
     22  CG        -5.1300  -15.8120    6.8470 C.3   171  GLU171      0.1160
     23  CD        -5.3610  -15.0100    8.1440 C.2   171  GLU171      0.3649
     24  OE1       -6.1650  -14.0420    8.1500 O.co2 171  GLU171     -0.2457
     25  OE2       -4.7320  -15.3490    9.1720 O.co2 171  GLU171     -0.2457
     26  N          3.0650   -7.3160   17.4080 N.3   298  GLY298     -0.1225
     27  CA         2.1990   -7.4510   16.2680 C.3   298  GLY298      0.1811
     28  C          2.7040   -8.3800   15.1910 C.2   298  GLY298      0.2280
     29  O          1.9530   -9.2490   14.7440 O.2   298  GLY298     -0.2866
     30  N          2.7360  -12.0380   16.5660 N.3   301  ALA301     -0.1231
     31  CA         1.4220  -12.6580   16.5600 C.3   301  ALA301      0.1694
     32  C          1.0390  -13.1320   15.1580 C.2   301  ALA301      0.2592
     33  O          0.5190  -14.2270   15.0050 O.2   301  ALA301     -0.2718
     34  CB         0.3630  -11.6960   17.1110 C.3   301  ALA301      0.0304
     35  N          1.3350  -12.3130   14.1440 N.am  302  SER302     -0.1952
     36  CA         0.9320  -12.5940   12.7720 C.3   302  SER302      0.1924
     37  C          1.7080  -13.7700   12.2260 C.2   302  SER302      0.2314
     38  O          1.2770  -14.4290   11.2770 O.2   302  SER302     -0.2863
     39  CB         1.1400  -11.3660   11.8770 C.3   302  SER302      0.2116
     40  OG         0.2300  -10.3210   12.2080 O.3   302  SER302     -0.2180
     41  N          2.1220  -16.3150   14.0200 N.3   304  GLY304     -0.1225
     42  CA         1.5390  -17.4750   14.6930 C.3   304  GLY304      0.1811
     43  C          1.9650  -17.6350   16.1380 C.2   304  GLY304      0.2280
     44  O          1.6110  -18.6150   16.7780 O.2   304  GLY304     -0.2866
     45  N         -7.6890   -3.4010   17.8500 N.3   330  TYR330     -0.1241
     46  CA        -7.4400   -4.2570   16.6910 C.3   330  TYR330      0.1605
     47  C         -6.4950   -5.4350   17.0460 C.2   330  TYR330      0.2264
     48  O         -6.7610   -6.5780   16.6670 O.2   330  TYR330     -0.2867
     49  CB        -6.8740   -3.4650   15.5120 C.3   330  TYR330      0.0534
     50  CG        -6.6950   -4.3120   14.2570 C.ar  330  TYR330     -0.0201
     51  CD1       -7.7300   -4.4400   13.3230 C.ar  330  TYR330     -0.0009
     52  CD2       -5.4970   -4.9970   14.0150 C.ar  330  TYR330     -0.0009
     53  CE1       -7.5770   -5.2000   12.1650 C.ar  330  TYR330      0.0417
     54  CE2       -5.3260   -5.7770   12.8450 C.ar  330  TYR330      0.0417
     55  CZ        -6.3720   -5.8700   11.9370 C.ar  330  TYR330      0.1957
     56  OH        -6.2240   -6.6310   10.8080 O.3   330  TYR330     -0.2866
     57  N         -7.3010   -9.5610   17.3660 N.3   334  HIS334     -0.1226
     58  CA        -6.5920  -10.4850   16.4940 C.3   334  HIS334      0.1752
     59  C         -5.5440  -11.3340   17.2210 C.2   334  HIS334      0.2597
     60  O         -4.5050  -11.6650   16.6540 O.2   334  HIS334     -0.2718
     61  CB        -5.9950   -9.7430   15.3000 C.3   334  HIS334      0.0759
     62  CG        -7.0250   -9.3110   14.2990 C.ar  334  HIS334      0.0818
     63  ND1       -7.8210   -8.1950   14.4790 N.ar  334  HIS334     -0.2268
     64  CD2       -7.3990   -9.8530   13.1130 C.ar  334  HIS334      0.1154
     65  CE1       -8.6390   -8.0730   13.4500 C.ar  334  HIS334      0.1986
     66  NE2       -8.4000   -9.0600   12.6040 N.ar  334  HIS334     -0.2212
     67  N         -5.8090  -11.6660   18.4830 N.am  335  GLY335     -0.1942
     68  CA        -4.9930  -12.6590   19.1860 C.3   335  GLY335      0.2014
     69  C         -3.9470  -12.1790   20.1830 C.2   335  GLY335      0.2638
     70  O         -3.5690  -12.9410   21.0790 O.2   335  GLY335     -0.2714
     71  N         -3.4670  -10.9420   20.0460 N.am  336  VAL336     -0.1977
     72  CA        -2.4930  -10.3930   21.0070 C.3   336  VAL336      0.1596
     73  C         -3.1420  -10.2000   22.3850 C.2   336  VAL336      0.2287
     74  O         -4.1720   -9.5240   22.4970 O.2   336  VAL336     -0.2864
     75  CB        -1.8810   -9.0480   20.5460 C.3   336  VAL336      0.0276
     76  CG1       -0.8490   -8.5710   21.5450 C.3   336  VAL336      0.0022
     77  CG2       -1.2610   -9.1630   19.1370 C.3   336  VAL336      0.0022
     78  N          0.0840   -4.2430   13.2050 N.3   471  PRO471     -0.2116
     79  CA        -0.6200   -5.0910   12.2180 C.3   471  PRO471      0.1372
     80  C         -1.6130   -4.2930   11.3620 C.2   471  PRO471      0.2244
     81  O         -1.5810   -4.4040   10.1360 O.2   471  PRO471     -0.2868
     82  CB        -1.3340   -6.1230   13.0900 C.3   471  PRO471      0.0268
     83  CG        -0.4440   -6.2730   14.2860 C.3   471  PRO471      0.0207
     84  CD         0.1370   -4.8830   14.5380 C.3   471  PRO471      0.0892
@<TRIPOS>BOND
     1    20    19    2
     2    19    18    1
     3    17    18    1
     4    10     9    2
     5    18    21    1
     6     9     8    1
     7    21    22    1
     8     1     2    1
     9     8     7    1
    10     8    11    1
    11     4     3    2
    12     7     3   am
    13     3     2    1
    14     2     5    1
    15    11    12    1
    16    22    23    1
    17    23    24   ar
    18    23    25   ar
    19    12    13   ar
    20    12    14   ar
    21     5     6    1
    22    13    15   ar
    23    14    16   ar
    24    81    80    2
    25    15    16   ar
    26    56    55    1
    27    38    37    2
    28    80    79    1
    29    39    40    1
    30    39    36    1
    31    55    53   ar
    32    55    54   ar
    33    53    51   ar
    34    79    82    1
    35    79    78    1
    36    37    36    1
    37    66    64   ar
    38    66    65   ar
    39    36    35    1
    40    54    52   ar
    41    82    83    1
    42    64    62   ar
    43    78    84    1
    44    51    50   ar
    45    65    63   ar
    46    52    50   ar
    47    41    42    1
    48    35    32   am
    49    50    49    1
    50    83    84    1
    51    62    63   ar
    52    62    61    1
    53    42    43    1
    54    29    28    2
    55    33    32    2
    56    32    31    1
    57    28    27    1
    58    61    58    1
    59    49    46    1
    60    43    44    2
    61    27    26    1
    62    58    59    1
    63    58    57    1
    64    31    30    1
    65    31    34    1
    66    60    59    2
    67    48    47    2
    68    46    47    1
    69    46    45    1
    70    59    67   am
    71    67    68    1
    72    77    75    1
    73    68    69    1
    74    71    69   am
    75    71    72    1
    76    69    70    2
    77    75    72    1
    78    75    76    1
    79    72    73    1
    80    73    74    2
