@<TRIPOS>MOLECULE
tmp/2x9dA00.pdb
 171 162 0 0 0
SMALL
GASTEIGER

@<TRIPOS>ATOM
      1  N         18.7030   28.8480   27.5350 N.3    59  LEU59      -0.1245
      2  CA        18.2240   29.0590   28.8930 C.3    59  LEU59       0.1561
      3  C         16.8510   28.4100   29.1080 C.2    59  LEU59       0.2260
      4  O         16.7040   27.5760   30.0200 O.2    59  LEU59      -0.2867
      5  CB        18.2250   30.5620   29.2830 C.3    59  LEU59       0.0270
      6  CG        19.6130   31.2210   29.2920 C.3    59  LEU59       0.0019
      7  CD1       19.6840   32.5270   30.0910 C.3    59  LEU59       0.0001
      8  CD2       20.6900   30.2760   29.8080 C.3    59  LEU59       0.0001
      9  N         18.0270   25.4580   31.4500 N.3    63  HIS63      -0.1241
     10  CA        18.2960   26.1100   32.7450 C.3    63  HIS63       0.1621
     11  C         17.0020   26.1040   33.5610 C.2    63  HIS63       0.2264
     12  O         16.2140   27.0500   33.4940 O.2    63  HIS63      -0.2867
     13  CB        18.7760   27.5510   32.4980 C.3    63  HIS63       0.0745
     14  CG        19.1380   28.3200   33.7390 C.ar   63  HIS63       0.0817
     15  ND1       19.5450   27.7180   34.9100 N.ar   63  HIS63      -0.2268
     16  CD2       19.2090   29.6540   33.9600 C.ar   63  HIS63       0.1154
     17  CE1       19.8230   28.6470   35.8080 C.ar   63  HIS63       0.1986
     18  NE2       19.6280   29.8310   35.2560 N.ar   63  HIS63      -0.2212
     19  N         16.0640   28.2970   37.7390 N.3    66  SER66      -0.1217
     20  CA        16.1450   29.7440   37.6410 C.3    66  SER66       0.1889
     21  C         15.4800   30.3690   38.8510 C.2    66  SER66       0.2288
     22  O         15.6410   31.5590   39.1000 O.2    66  SER66      -0.2866
     23  CB        15.4970   30.2600   36.3290 C.3    66  SER66       0.2089
     24  OG        14.1500   29.8340   36.1470 O.3    66  SER66      -0.2183
     25  N         21.7310   30.2340   45.0940 N.3    78  LEU78      -0.1245
     26  CA        22.8120   30.6420   44.2280 C.3    78  LEU78       0.1561
     27  C         23.5860   29.3960   43.7560 C.2    78  LEU78       0.2260
     28  O         23.9430   29.2990   42.5800 O.2    78  LEU78      -0.2867
     29  CB        23.7380   31.6770   44.9020 C.3    78  LEU78       0.0270
     30  CG        23.1890   33.0810   45.1530 C.3    78  LEU78       0.0019
     31  CD1       24.2360   33.9650   45.8150 C.3    78  LEU78       0.0001
     32  CD2       22.6340   33.7620   43.8890 C.3    78  LEU78       0.0001
     33  N         21.3220   27.3730   41.2050 N.3    81  ASN81      -0.1240
     34  CA        21.2170   28.2550   40.0360 C.3    81  ASN81       0.1653
     35  C         22.5470   28.2800   39.2840 C.2    81  ASN81       0.2266
     36  O         22.5750   28.1850   38.0620 O.2    81  ASN81      -0.2867
     37  CB        20.7850   29.6550   40.4990 C.3    81  ASN81       0.1155
     38  CG        20.5200   30.6370   39.3470 C.2    81  ASN81       0.2627
     39  OD1       21.2280   31.6260   39.2050 O.2    81  ASN81      -0.2716
     40  ND2       19.4750   30.3940   38.5670 N.am   81  ASN81      -0.0877
     41  N         22.8820   26.8650   35.4560 N.3    85  PHE85      -0.1241
     42  CA        23.4070   27.7570   34.4140 C.3    85  PHE85       0.1605
     43  C         24.5870   27.1260   33.6940 C.2    85  PHE85       0.2264
     44  O         24.6090   27.0450   32.4400 O.2    85  PHE85      -0.2867
     45  CB        23.8230   29.1010   35.0190 C.3    85  PHE85       0.0534
     46  CG        24.2770   30.1360   34.0200 C.ar   85  PHE85      -0.0203
     47  CD1       23.7070   30.2320   32.7410 C.ar   85  PHE85      -0.0042
     48  CD2       25.2060   31.0940   34.4000 C.ar   85  PHE85      -0.0042
     49  CE1       24.1060   31.2410   31.8570 C.ar   85  PHE85      -0.0003
     50  CE2       25.6110   32.1030   33.5320 C.ar   85  PHE85      -0.0003
     51  CZ        25.0780   32.1710   32.2570 C.ar   85  PHE85      -0.0000
     52  N         25.9580   32.3370   24.5080 N.3    99  HIS99      -0.1241
     53  CA        25.3680   33.1560   25.5470 C.3    99  HIS99       0.1621
     54  C         26.0070   34.5600   25.6860 C.2    99  HIS99       0.2264
     55  O         25.2910   35.5410   25.8600 O.2    99  HIS99      -0.2867
     56  CB        25.3790   32.4080   26.8730 C.3    99  HIS99       0.0745
     57  CG        24.6720   33.1510   27.9470 C.ar   99  HIS99       0.0817
     58  ND1       23.2970   33.2720   27.9770 N.ar   99  HIS99      -0.2268
     59  CD2       25.1460   33.9020   28.9660 C.ar   99  HIS99       0.1154
     60  CE1       22.9590   34.0400   28.9930 C.ar   99  HIS99       0.1986
     61  NE2       24.0610   34.4270   29.6120 N.ar   99  HIS99      -0.2212
     62  N         24.4180   38.8210   25.0190 N.3   102  THR102     -0.1203
     63  CA        22.9780   38.9960   25.0110 C.3   102  THR102      0.1994
     64  C         22.5810   39.3310   26.4360 C.2   102  THR102      0.2618
     65  O         23.2990   38.9900   27.3790 O.2   102  THR102     -0.2717
     66  CB        22.2100   37.7230   24.5250 C.3   102  THR102      0.1784
     67  OG1       22.4850   36.5950   25.3780 O.3   102  THR102     -0.2211
     68  CG2       22.5730   37.3900   23.0770 C.3   102  THR102      0.0376
     69  N         21.4680   40.0340   26.6080 N.am  103  ARG103     -0.1965
     70  CA        20.9140   40.2250   27.9500 C.3   103  ARG103      0.1714
     71  C         19.6930   39.3210   28.0220 C.2   103  ARG103      0.2458
     72  O         19.3320   38.7240   27.0130 O.2   103  ARG103     -0.2730
     73  CB        20.6050   41.7030   28.2190 C.3   103  ARG103      0.0347
     74  CG        21.8790   42.5750   28.1750 C.3   103  ARG103      0.0492
     75  CD        21.9450   43.7070   29.2290 C.3   103  ARG103      0.2205
     76  NE        23.2930   43.7970   29.7990 N.pl3 103  ARG103     -0.0865
     77  CZ        23.7570   44.7790   30.5770 C.cat 103  ARG103      0.5346
     78  NH1       25.0100   44.7160   31.0210 N.pl3 103  ARG103      0.1354
     79  NH2       23.0060   45.8220   30.9080 N.pl3 103  ARG103      0.1354
     80  N         19.0840   39.1680   29.2150 N.am  104  PRO104     -0.2727
     81  CA        17.8380   38.4230   29.3040 C.3   104  PRO104      0.1402
     82  C         16.7950   38.9160   28.3220 C.2   104  PRO104      0.2269
     83  O         16.6840   40.1200   28.0800 O.2   104  PRO104     -0.2865
     84  CB        17.3750   38.7100   30.7290 C.3   104  PRO104      0.0296
     85  CG        18.6110   38.7940   31.4690 C.3   104  PRO104      0.0237
     86  CD        19.5590   39.5480   30.5570 C.3   104  PRO104      0.0939
     87  N         12.0960   36.2250   30.1530 N.3   108  GLN108     -0.1245
     88  CA        12.6770   35.8970   31.4560 C.3   108  GLN108      0.1566
     89  C         12.9460   37.0960   32.3650 C.2   108  GLN108      0.2260
     90  O         13.6370   36.9430   33.3820 O.2   108  GLN108     -0.2867
     91  CB        13.9900   35.1260   31.2570 C.3   108  GLN108      0.0367
     92  CG        13.8690   34.0000   30.2470 C.3   108  GLN108      0.0905
     93  CD        15.1910   33.3240   29.9160 C.2   108  GLN108      0.2608
     94  OE1       16.1740   33.4810   30.6450 O.2   108  GLN108     -0.2717
     95  NE2       15.2310   32.5900   28.8090 N.am  108  GLN108     -0.0878
     96  N         11.8390   36.6170   35.8120 N.3   111  THR111     -0.1203
     97  CA        12.6720   35.6130   36.4670 C.3   111  THR111      0.1994
     98  C         13.9430   36.2790   37.0620 C.2   111  THR111      0.2617
     99  O         14.3070   36.0360   38.2020 O.2   111  THR111     -0.2717
    100  CB        13.0380   34.4770   35.4500 C.3   111  THR111      0.1784
    101  OG1       11.8590   33.7020   35.1460 O.3   111  THR111     -0.2211
    102  CG2       14.1620   33.5680   35.9810 C.3   111  THR111      0.0376
    103  N         14.6150   37.1280   36.2950 N.am  112  VAL112     -0.1979
    104  CA        15.7490   37.8580   36.8510 C.3   112  VAL112      0.1595
    105  C         15.2570   38.8570   37.8980 C.2   112  VAL112      0.2287
    106  O         15.9280   39.0770   38.8960 O.2   112  VAL112     -0.2864
    107  CB        16.6150   38.5230   35.7730 C.3   112  VAL112      0.0276
    108  CG1       17.7210   39.3650   36.4170 C.3   112  VAL112      0.0022
    109  CG2       17.2520   37.4300   34.9000 C.3   112  VAL112      0.0022
    110  N         14.6690   36.7090   41.0780 N.3   115  GLN115     -0.1231
    111  CA        16.0120   36.4420   41.6230 C.3   115  GLN115      0.1698
    112  C         16.5060   37.6390   42.4720 C.2   115  GLN115      0.2592
    113  O         16.8970   37.4680   43.6420 O.2   115  GLN115     -0.2718
    114  CB        17.0130   36.1270   40.4790 C.3   115  GLN115      0.0381
    115  CG        16.5710   34.9180   39.5830 C.3   115  GLN115      0.0905
    116  CD        17.5980   34.4480   38.5500 C.2   115  GLN115      0.2608
    117  OE1       18.6260   35.0560   38.3730 O.2   115  GLN115     -0.2717
    118  NE2       17.2950   33.3440   37.8640 N.am  115  GLN115     -0.0878
    119  N         16.4400   38.8380   41.8940 N.am  116  LEU116     -0.1980
    120  CA        16.9240   40.0720   42.5530 C.3   116  LEU116      0.1596
    121  C         16.1170   40.4490   43.8030 C.2   116  LEU116      0.2287
    122  O         16.7000   40.8190   44.8370 O.2   116  LEU116     -0.2864
    123  CB        16.9020   41.2380   41.5580 C.3   116  LEU116      0.0297
    124  CG        17.8200   41.0250   40.3500 C.3   116  LEU116      0.0022
    125  CD1       17.4300   41.9220   39.1760 C.3   116  LEU116      0.0001
    126  CD2       19.2660   41.2660   40.7470 C.3   116  LEU116      0.0001
    127  N         22.7110   42.3870   43.4960 N.3   130  LEU130     -0.1245
    128  CA        23.1580   42.3330   42.0940 C.3   130  LEU130      0.1561
    129  C         24.6250   41.8810   41.9820 C.2   130  LEU130      0.2260
    130  O         24.9490   40.9720   41.2220 O.2   130  LEU130     -0.2867
    131  CB        22.9920   43.7080   41.4300 C.3   130  LEU130      0.0270
    132  CG        23.3360   43.7720   39.9350 C.3   130  LEU130      0.0019
    133  CD1       22.3260   42.9550   39.1370 C.3   130  LEU130      0.0001
    134  CD2       23.3830   45.1960   39.4310 C.3   130  LEU130      0.0001
    135  N         24.9540   38.0390   42.5180 N.3   133  ILE133     -0.1231
    136  CA        24.4030   37.3440   41.3550 C.3   133  ILE133      0.1692
    137  C         25.2300   37.5170   40.0690 C.2   133  ILE133      0.2592
    138  O         25.4080   36.5660   39.2950 O.2   133  ILE133     -0.2718
    139  CB        22.9170   37.7740   41.1550 C.3   133  ILE133      0.0266
    140  CG1       22.0200   36.8410   42.0060 C.3   133  ILE133      0.0019
    141  CG2       22.5260   37.7960   39.6940 C.3   133  ILE133      0.0020
    142  CD1       20.5970   37.1090   41.8930 C.3   133  ILE133      0.0001
    143  N         25.6950   38.7280   39.8180 N.am  134  SER134     -0.1952
    144  CA        26.5790   38.9780   38.6940 C.3   134  SER134      0.1924
    145  C         27.8590   38.1560   38.8840 C.2   134  SER134      0.2314
    146  O         28.3300   37.5050   37.9380 O.2   134  SER134     -0.2863
    147  CB        26.9140   40.4680   38.5770 C.3   134  SER134      0.2116
    148  OG        25.7590   41.2270   38.2370 O.3   134  SER134     -0.2180
    149  N         28.3580   35.3540   40.5630 N.3   136  VAL136     -0.1231
    150  CA        28.0650   33.9780   40.2540 C.3   136  VAL136      0.1692
    151  C         28.0930   33.7860   38.7320 C.2   136  VAL136      0.2593
    152  O         28.7760   32.8790   38.2490 O.2   136  VAL136     -0.2718
    153  CB        26.7300   33.5060   40.8980 C.3   136  VAL136      0.0266
    154  CG1       26.3190   32.1430   40.3690 C.3   136  VAL136      0.0020
    155  CG2       26.8850   33.4680   42.4230 C.3   136  VAL136      0.0020
    156  N         27.4040   34.6720   38.0090 N.am  137  SER137     -0.1938
    157  CA        27.2840   34.6140   36.5530 C.3   137  SER137      0.2055
    158  C         28.6160   34.7390   35.8120 C.2   137  SER137      0.2643
    159  O         28.8090   34.0870   34.7910 O.2   137  SER137     -0.2714
    160  CB        26.3310   35.7270   36.0360 C.3   137  SER137      0.2130
    161  OG        25.0790   35.7060   36.7100 O.3   137  SER137     -0.2179
    162  N         29.5090   35.5980   36.2850 N.am  138  HIS138     -0.1973
    163  CA        30.7880   35.8170   35.6110 C.3   138  HIS138      0.1656
    164  C         31.7870   34.6890   35.9040 C.2   138  HIS138      0.2291
    165  O         32.4960   34.2520   35.0110 O.2   138  HIS138     -0.2864
    166  CB        31.3890   37.1790   35.9930 C.3   138  HIS138      0.0771
    167  CG        30.5500   38.3470   35.5670 C.ar  138  HIS138      0.0820
    168  ND1       30.7280   39.6180   36.0720 N.ar  138  HIS138     -0.2267
    169  CD2       29.5140   38.4290   34.6980 C.ar  138  HIS138      0.1154
    170  CE1       29.8520   40.4370   35.5190 C.ar  138  HIS138      0.1986
    171  NE2       29.0900   39.7360   34.6970 N.ar  138  HIS138     -0.2212
@<TRIPOS>BOND
     1    68    66    1
     2    52    53    1
     3    66    63    1
     4    66    67    1
     5    63    62    1
     6    63    64    1
     7    53    54    1
     8    53    56    1
     9    54    55    2
    10    64    69   am
    11    64    65    2
    12    69    70    1
    13    56    57    1
    14    72    71    2
    15     1     2    1
    16    57    58   ar
    17    57    59   ar
    18    70    71    1
    19    70    73    1
    20    58    60   ar
    21    71    80   am
    22    83    82    2
    23    74    73    1
    24    74    75    1
    25    82    81    1
    26    95    93   am
    27     2     3    1
    28     2     5    1
    29    59    61   ar
    30    60    61   ar
    31     3     4    2
    32    80    81    1
    33    80    86    1
    34    75    76    1
    35     5     6    1
    36     6     8    1
    37     6     7    1
    38    81    84    1
    39    76    77    2
    40    93    92    1
    41    93    94    2
    42    87    88    1
    43    92    91    1
    44    86    85    1
    45    77    79    1
    46    77    78    1
    47    84    85    1
    48    91    88    1
    49     9    10    1
    50    88    89    1
    51    49    51   ar
    52    49    47   ar
    53    51    50   ar
    54    89    90    2
    55    44    43    2
    56    13    10    1
    57    13    14    1
    58    47    46   ar
    59    10    11    1
    60    12    11    2
    61    50    48   ar
    62    43    42    1
    63    14    16   ar
    64    14    15   ar
    65    16    18   ar
    66    46    48   ar
    67    46    45    1
    68    42    45    1
    69    42    41    1
    70   171   169   ar
    71   171   170   ar
    72   169   167   ar
    73   159   158    2
    74   109   107    1
    75    15    17   ar
    76   165   164    2
    77   101   100    1
    78    18    17   ar
    79   100   102    1
    80   100    97    1
    81   170   168   ar
    82   167   166    1
    83   167   168   ar
    84   163   164    1
    85   163   166    1
    86   163   162    1
    87   107   108    1
    88   107   104    1
    89   158   162   am
    90   158   157    1
    91    96    97    1
    92   160   157    1
    93   160   161    1
    94    24    23    1
    95   103   104    1
    96   103    98   am
    97    23    20    1
    98    97    98    1
    99   157   156    1
   100   104   105    1
   101    98    99    2
   102    20    19    1
   103    20    21    1
   104   118   116   am
   105   105   106    2
   106   146   145    2
   107   156   151   am
   108    36    35    2
   109   148   147    1
   110   152   151    2
   111   117   116    2
   112   116   115    1
   113    40    38   am
   114   147   144    1
   115   144   145    1
   116   144   143    1
   117   151   150    1
   118    21    22    2
   119   133   132    1
   120   125   124    1
   121    39    38    2
   122    35    34    1
   123   138   137    2
   124    38    37    1
   125   134   132    1
   126   115   114    1
   127   141   139    1
   128   143   137   am
   129   132   131    1
   130    34    37    1
   131    34    33    1
   132   137   136    1
   133   150   149    1
   134   150   153    1
   135   124   126    1
   136   124   123    1
   137   154   153    1
   138   114   111    1
   139   153   155    1
   140   110   111    1
   141   139   136    1
   142   139   140    1
   143   130   129    2
   144   136   135    1
   145   131   128    1
   146   123   120    1
   147   111   112    1
   148   142   140    1
   149   119   112   am
   150   119   120    1
   151   129   128    1
   152   128   127    1
   153   112   113    2
   154   120   121    1
   155    28    27    2
   156    27    26    1
   157   121   122    2
   158    32    30    1
   159    26    29    1
   160    26    25    1
   161    29    30    1
   162    30    31    1
