@<TRIPOS>MOLECULE
tmp/2x9fA00.pdb
 123 112 0 0 0
SMALL
GASTEIGER

@<TRIPOS>ATOM
      1  N          9.5870   13.1940   15.5320 N.3    14  ILE14      -0.1245
      2  CA        10.3090   13.2870   14.2550 C.3    14  ILE14       0.1561
      3  C          9.4510   12.9980   13.0330 C.2    14  ILE14       0.2260
      4  O          9.9010   13.1810   11.9060 O.2    14  ILE14      -0.2867
      5  CB        11.5590   12.3590   14.2240 C.3    14  ILE14       0.0252
      6  CG1       11.1520   10.8790   14.3730 C.3    14  ILE14       0.0019
      7  CG2       12.5510   12.7960   15.2940 C.3    14  ILE14       0.0019
      8  CD1       12.3290    9.9260   14.4500 C.3    14  ILE14       0.0001
      9  N          5.7430    9.4140   15.4630 N.3    22  VAL22      -0.1245
     10  CA         7.0560    8.7790   15.4420 C.3    22  VAL22       0.1561
     11  C          7.9950    9.7400   16.1700 C.2    22  VAL22       0.2260
     12  O          8.0550   10.9320   15.8420 O.2    22  VAL22      -0.2867
     13  CB         7.5520    8.5290   14.0270 C.3    22  VAL22       0.0252
     14  CG1        8.9070    7.7850   14.0480 C.3    22  VAL22       0.0019
     15  CG2        6.4980    7.7360   13.2400 C.3    22  VAL22       0.0019
     16  N         14.1200    4.7780   17.5210 N.3    38  ALA38      -0.1245
     17  CA        12.9130    5.3560   16.9840 C.3    38  ALA38       0.1562
     18  C         11.7230    4.7050   17.6880 C.2    38  ALA38       0.2260
     19  O         11.7940    3.5230   18.0510 O.2    38  ALA38      -0.2867
     20  CB        12.8430    5.1130   15.5110 C.3    38  ALA38       0.0290
     21  N          7.4000    4.3220   17.5050 N.3    40  LYS40      -0.1245
     22  CA         6.0100    4.5350   17.0730 C.3    40  LYS40       0.1561
     23  C          5.1400    4.4380   18.3050 C.2    40  LYS40       0.2260
     24  O          5.3120    3.5300   19.1190 O.2    40  LYS40      -0.2867
     25  CB         5.5420    3.4830   16.0550 C.3    40  LYS40       0.0271
     26  CG         5.7670    3.7890   14.5820 C.3    40  LYS40       0.0035
     27  CD         5.1210    2.6850   13.7350 C.3    40  LYS40       0.0206
     28  CE         5.2430    2.9450   12.2280 C.3    40  LYS40       0.1093
     29  NZ         4.7380    1.8000   11.4170 N.3    40  LYS40      -0.1314
     30  N          3.0750   -5.3340   13.6550 N.3    54  GLU54      -0.1245
     31  CA         4.3590   -4.8760   13.1340 C.3    54  GLU54       0.1567
     32  C          5.5120   -5.4310   13.9770 C.2    54  GLU54       0.2260
     33  O          6.4810   -5.9740   13.4090 O.2    54  GLU54      -0.2867
     34  CB         4.4550   -3.3540   13.0600 C.3    54  GLU54       0.0388
     35  CG         5.8340   -2.9230   12.5610 C.3    54  GLU54       0.1160
     36  CD         5.9070   -1.5290   11.9810 C.2    54  GLU54       0.3649
     37  OE1        5.2530   -0.6150   12.5160 O.co2  54  GLU54      -0.2457
     38  OE2        6.6680   -1.3740   10.9990 O.co2  54  GLU54      -0.2457
     39  N          8.4200   -7.9340   12.8710 N.3    58  MET58      -0.1245
     40  CA         9.7850   -7.3500   12.8390 C.3    58  MET58       0.1570
     41  C         10.7450   -8.0660   13.7670 C.2    58  MET58       0.2261
     42  O         11.8970   -8.2770   13.4090 O.2    58  MET58      -0.2867
     43  CB         9.7430   -5.8600   13.1860 C.3    58  MET58       0.0387
     44  CG        11.0330   -5.0940   12.8810 C.3    58  MET58       0.0595
     45  SD        10.9750   -3.4200   13.6190 S.3    58  MET58      -0.1393
     46  CE         9.4840   -2.7970   12.8810 C.3    58  MET58       0.0692
     47  N         14.9750   -3.0010    9.3260 N.3    67  ILE67      -0.1245
     48  CA        15.0790   -2.3620   10.6440 C.3    67  ILE67       0.1561
     49  C         14.8570   -3.3610   11.7680 C.2    67  ILE67       0.2260
     50  O         13.9740   -4.2230   11.7040 O.2    67  ILE67      -0.2867
     51  CB        14.1920   -1.0760   10.8160 C.3    67  ILE67       0.0252
     52  CG1       12.7140   -1.3590   10.7170 C.3    67  ILE67       0.0019
     53  CG2       14.6800    0.0120    9.8130 C.3    67  ILE67       0.0019
     54  CD1       11.8450   -0.1760   11.1810 C.3    67  ILE67       0.0001
     55  N          6.2370    0.9110   19.8650 N.3    81  ILE81      -0.1245
     56  CA         7.1580    0.0310   19.1640 C.3    81  ILE81       0.1561
     57  C          8.4770    0.7390   19.0660 C.2    81  ILE81       0.2260
     58  O          8.5410    1.8430   18.5350 O.2    81  ILE81      -0.2867
     59  CB         6.6280   -0.3420   17.7420 C.3    81  ILE81       0.0252
     60  CG1        5.2830   -1.0670   17.8640 C.3    81  ILE81       0.0019
     61  CG2        7.6680   -1.1850   16.9590 C.3    81  ILE81       0.0019
     62  CD1        4.6490   -1.3860   16.5120 C.3    81  ILE81       0.0001
     63  N         12.4250    0.7460   17.7430 N.3    83  THR83      -0.1203
     64  CA        13.3870    0.1800   16.8300 C.3    83  THR83       0.1994
     65  C         14.7300    0.8970   16.8810 C.2    83  THR83       0.2618
     66  O         14.8720    1.9630   17.4980 O.2    83  THR83      -0.2717
     67  CB        12.8770    0.2470   15.3640 C.3    83  THR83       0.1784
     68  OG1       12.8860    1.6140   14.9250 O.3    83  THR83      -0.2211
     69  CG2       11.4450   -0.3120   15.2370 C.3    83  THR83       0.0376
     70  N         15.7060    0.3470   16.1700 N.am   84  GLU84      -0.1965
     71  CA        16.9540    1.0580   15.9350 C.3    84  GLU84       0.1733
     72  C         16.5880    2.3830   15.2490 C.2    84  GLU84       0.2616
     73  O         15.5670    2.4660   14.5530 O.2    84  GLU84      -0.2715
     74  CB        17.8830    0.2630   15.0280 C.3    84  GLU84       0.0429
     75  CG        17.3900    0.0890   13.5810 C.3    84  GLU84       0.1163
     76  CD        18.3480   -0.6630   12.7080 C.2    84  GLU84       0.3649
     77  OE1       18.0000   -1.7770   12.2630 O.co2  84  GLU84      -0.2457
     78  OE2       19.4640   -0.1510   12.4790 O.co2  84  GLU84      -0.2457
     79  N         17.4200    3.3860   15.4480 N.am   85  PHE85      -0.1960
     80  CA        17.2050    4.7380   14.8880 C.3    85  PHE85       0.1771
     81  C         18.0460    4.9160   13.6230 C.2    85  PHE85       0.2619
     82  O         19.2750    4.6990   13.6470 O.2    85  PHE85      -0.2715
     83  CB        17.5540    5.8050   15.9260 C.3    85  PHE85       0.0574
     84  CG        17.3740    7.2050   15.4380 C.ar   85  PHE85      -0.0200
     85  CD1       16.1050    7.6800   15.1350 C.ar   85  PHE85      -0.0042
     86  CD2       18.4650    8.0420   15.2660 C.ar   85  PHE85      -0.0042
     87  CE1       15.9280    8.9680   14.6570 C.ar   85  PHE85      -0.0003
     88  CE2       18.2850    9.3430   14.8110 C.ar   85  PHE85      -0.0003
     89  CZ        17.0100    9.7980   14.4990 C.ar   85  PHE85      -0.0000
     90  N         17.3700    5.2970   12.5390 N.am   86  MET86      -0.1977
     91  CA        17.9840    5.6070   11.2600 C.3    86  MET86       0.1605
     92  C         18.0040    7.1300   11.1180 C.2    86  MET86       0.2287
     93  O         16.9840    7.7550   10.9240 O.2    86  MET86      -0.2864
     94  CB        17.1850    4.9540   10.1400 C.3    86  MET86       0.0413
     95  CG        17.0690    3.4430   10.3070 C.3    86  MET86       0.0598
     96  SD        18.6660    2.6460   10.0670 S.3    86  MET86      -0.1393
     97  CE        18.6920    2.6960    8.2570 C.3    86  MET86       0.0692
     98  N         16.3450    9.2060    8.0960 N.3    89  GLY89      -0.1225
     99  CA        14.9250    9.1420    7.8190 C.3    89  GLY89       0.1811
    100  C         14.5720    8.4650    6.5060 C.2    89  GLY89       0.2280
    101  O         15.2830    7.5660    6.0650 O.2    89  GLY89      -0.2866
    102  N         14.4280    3.4190    5.0840 N.3   137  LEU137     -0.1245
    103  CA        15.0840    4.3400    6.0100 C.3   137  LEU137      0.1561
    104  C         16.5750    4.2530    5.8130 C.2   137  LEU137      0.2260
    105  O         17.1310    3.1750    5.5040 O.2   137  LEU137     -0.2867
    106  CB        14.7510    3.9850    7.4590 C.3   137  LEU137      0.0270
    107  CG        13.2270    4.0110    7.7330 C.3   137  LEU137      0.0019
    108  CD1       12.9000    3.6210    9.1180 C.3   137  LEU137      0.0001
    109  CD2       12.5900    5.3700    7.3970 C.3   137  LEU137      0.0001
    110  N         11.4500   -0.8830    6.0350 N.3   147  SER147     -0.1202
    111  CA        10.6030   -0.6080    7.2000 C.3   147  SER147      0.2020
    112  C          9.1370   -0.8180    6.8150 C.2   147  SER147      0.2618
    113  O          8.8690   -1.3330    5.7260 O.2   147  SER147     -0.2717
    114  CB        10.8800    0.7930    7.7580 C.3   147  SER147      0.2103
    115  OG        10.3250    1.8370    6.9850 O.3   147  SER147     -0.2182
    116  N          8.2150   -0.4510    7.7180 N.am  148  ASP148     -0.1973
    117  CA         6.7610   -0.5410    7.4840 C.3   148  ASP148      0.1709
    118  C          6.2890   -1.9850    7.3260 C.2   148  ASP148      0.2293
    119  O          5.9230   -2.4220    6.2290 O.2   148  ASP148     -0.2864
    120  CB         6.3230    0.2920    6.2810 C.3   148  ASP148      0.1436
    121  CG         4.8120    0.4780    6.2300 C.2   148  ASP148      0.3671
    122  OD1        4.2720    0.6520    5.1520 O.co2 148  ASP148     -0.2456
    123  OD2        4.1590    0.4120    7.2790 O.co2 148  ASP148     -0.2456
@<TRIPOS>BOND
     1   102   103    1
     2   122   121   ar
     3   105   104    2
     4   113   112    2
     5   104   103    1
     6   103   106    1
     7   110   111    1
     8   101   100    2
     9   119   118    2
    10   121   120    1
    11   121   123   ar
    12   120   117    1
    13   100    99    1
    14   112   111    1
    15   112   116   am
    16   115   114    1
    17   111   114    1
    18   118   117    1
    19   109   107    1
    20   106   107    1
    21   117   116    1
    22   107   108    1
    23    99    98    1
    24    97    96    1
    25    47    48    1
    26    53    51    1
    27    96    95    1
    28    94    95    1
    29    94    91    1
    30    48    51    1
    31    48    49    1
    32    52    51    1
    33    52    54    1
    34    93    92    2
    35    38    36   ar
    36    92    91    1
    37    91    90    1
    38    29    28    1
    39    50    49    2
    40     4     3    2
    41    36    37   ar
    42    36    35    1
    43    28    27    1
    44    77    76   ar
    45    78    76   ar
    46    90    81   am
    47    35    34    1
    48    76    75    1
    49    40    39    1
    50    40    43    1
    51    40    41    1
    52    44    43    1
    53    44    45    1
    54    46    45    1
    55     3     2    1
    56    34    31    1
    57    31    30    1
    58    31    32    1
    59    15    13    1
    60    33    32    2
    61    42    41    2
    62    75    74    1
    63    81    82    2
    64    81    80    1
    65    27    26    1
    66    13    14    1
    67    13    10    1
    68     5     2    1
    69     5     6    1
    70     5     7    1
    71     2     1    1
    72     6     8    1
    73    89    87   ar
    74    89    88   ar
    75    73    72    2
    76    26    25    1
    77    87    85   ar
    78    88    86   ar
    79    80    79    1
    80    80    83    1
    81    68    67    1
    82    74    71    1
    83    85    84   ar
    84    69    67    1
    85    72    79   am
    86    72    71    1
    87    86    84   ar
    88    67    64    1
    89    84    83    1
    90    10     9    1
    91    10    11    1
    92    20    17    1
    93    12    11    2
    94    71    70    1
    95    25    22    1
    96    70    65   am
    97    62    60    1
    98    64    65    1
    99    64    63    1
   100    65    66    2
   101    61    59    1
   102    17    16    1
   103    17    18    1
   104    22    21    1
   105    22    23    1
   106    18    19    2
   107    59    60    1
   108    59    56    1
   109    23    24    2
   110    58    57    2
   111    57    56    1
   112    56    55    1
