@<TRIPOS>MOLECULE
tmp/2x9hA01.pdb
 141 132 0 0 0
SMALL
GASTEIGER

@<TRIPOS>ATOM
      1  N         67.5280   43.4200  -40.0030 N.3   258  LEU258     -0.1245
      2  CA        66.6930   44.5600  -39.6170 C.3   258  LEU258      0.1561
      3  C         65.3040   44.4090  -40.2160 C.2   258  LEU258      0.2260
      4  O         65.1450   44.3000  -41.4330 O.2   258  LEU258     -0.2867
      5  CB        67.3180   45.9130  -40.0200 C.3   258  LEU258      0.0270
      6  CG        66.6300   47.1690  -39.4450 C.3   258  LEU258      0.0019
      7  CD1       66.4990   47.1300  -37.8840 C.3   258  LEU258      0.0001
      8  CD2       67.2310   48.5350  -39.9690 C.3   258  LEU258      0.0001
      9  N         63.0540   46.0250  -41.6450 N.3   260  LYS260     -0.1245
     10  CA        62.9140   47.3130  -42.2890 C.3   260  LYS260      0.1561
     11  C         61.4670   47.7330  -42.4360 C.2   260  LYS260      0.2260
     12  O         61.1830   48.9150  -42.4360 O.2   260  LYS260     -0.2867
     13  CB        63.6160   47.3380  -43.6570 C.3   260  LYS260      0.0271
     14  CG        65.1070   47.2390  -43.5210 C.3   260  LYS260      0.0035
     15  CD        65.8500   47.1760  -44.8320 C.3   260  LYS260      0.0206
     16  CE        65.4930   46.0070  -45.7410 C.3   260  LYS260      0.1093
     17  NZ        65.1340   46.6260  -47.0980 N.3   260  LYS260     -0.1314
     18  N         59.4580   51.8610  -50.0730 N.3   415  ALA415     -0.1245
     19  CA        60.6560   51.1980  -50.5040 C.3   415  ALA415      0.1562
     20  C         61.8490   52.1270  -50.3580 C.2   415  ALA415      0.2260
     21  O         62.9060   51.6750  -49.8980 O.2   415  ALA415     -0.2867
     22  CB        60.5090   50.7230  -51.9570 C.3   415  ALA415      0.0290
     23  N         62.3960   52.4020  -46.4360 N.3   418  LYS418     -0.1231
     24  CA        63.0080   51.1680  -45.8760 C.3   418  LYS418      0.1693
     25  C         64.5070   51.0170  -46.2250 C.2   418  LYS418      0.2591
     26  O         65.2980   50.5460  -45.3960 O.2   418  LYS418     -0.2718
     27  CB        62.2150   49.9310  -46.2890 C.3   418  LYS418      0.0285
     28  CG        60.8390   49.7630  -45.6000 C.3   418  LYS418      0.0035
     29  CD        59.7710   49.0240  -46.4660 C.3   418  LYS418      0.0206
     30  CE        60.2480   47.6660  -47.0220 C.3   418  LYS418      0.1093
     31  NZ        59.1670   46.8130  -47.5850 N.3   418  LYS418     -0.1314
     32  N         64.8810   51.4260  -47.4430 N.am  419  ALA419     -0.1980
     33  CA        66.2530   51.4470  -47.9050 C.3   419  ALA419      0.1597
     34  C         67.0850   52.5370  -47.2490 C.2   419  ALA419      0.2287
     35  O         68.2110   52.2920  -46.8840 O.2   419  ALA419     -0.2864
     36  CB        66.2900   51.6200  -49.3750 C.3   419  ALA419      0.0319
     37  N         67.4350   51.1370  -43.6260 N.3   422  GLY422     -0.1210
     38  CA        68.2940   49.9630  -43.6230 C.3   422  GLY422      0.1956
     39  C         69.7680   50.2750  -43.8710 C.2   422  GLY422      0.2611
     40  O         70.6570   49.7170  -43.2130 O.2   422  GLY422     -0.2717
     41  N         70.0090   51.1810  -44.8170 N.am  423  ARG423     -0.1979
     42  CA        71.3610   51.6300  -45.1750 C.3   423  ARG423      0.1597
     43  C         71.9850   52.4770  -44.0860 C.2   423  ARG423      0.2287
     44  O         73.1550   52.3320  -43.8040 O.2   423  ARG423     -0.2864
     45  CB        71.3660   52.3850  -46.5030 C.3   423  ARG423      0.0334
     46  CG        71.2190   51.4870  -47.7180 C.3   423  ARG423      0.0492
     47  CD        70.5540   52.2690  -48.8100 C.3   423  ARG423      0.2205
     48  NE        70.2010   51.4210  -49.9310 N.pl3 423  ARG423     -0.0865
     49  CZ        70.6800   51.5960  -51.1470 C.cat 423  ARG423      0.5346
     50  NH1       71.5030   52.5920  -51.3860 N.pl3 423  ARG423      0.1354
     51  NH2       70.3280   50.7990  -52.1260 N.pl3 423  ARG423      0.1354
     52  N         73.0570   49.9860  -41.4860 N.3   426  LEU426     -0.1245
     53  CA        74.2900   49.3440  -41.8970 C.3   426  LEU426      0.1561
     54  C         75.4930   50.2940  -41.6720 C.2   426  LEU426      0.2260
     55  O         76.5150   49.8730  -41.1440 O.2   426  LEU426     -0.2867
     56  CB        74.1880   48.8640  -43.3480 C.3   426  LEU426      0.0270
     57  CG        74.4320   47.3750  -43.6630 C.3   426  LEU426      0.0019
     58  CD1       75.2260   46.6000  -42.5500 C.3   426  LEU426      0.0001
     59  CD2       73.1210   46.6250  -43.9970 C.3   426  LEU426      0.0001
     60  N         62.7550   42.7940  -52.9000 N.3   585  ASP585     -0.1225
     61  CA        63.2010   44.0040  -52.2290 C.3   585  ASP585      0.1790
     62  C         63.6420   45.0340  -53.2620 C.2   585  ASP585      0.2440
     63  O         64.8060   45.4710  -53.2400 O.2   585  ASP585     -0.2733
     64  CB        64.3450   43.6700  -51.2610 C.3   585  ASP585      0.1423
     65  CG        64.6190   44.7770  -50.2310 C.2   585  ASP585      0.3668
     66  OD1       65.8170   44.9960  -49.8700 O.co2 585  ASP585     -0.2456
     67  OD2       63.6300   45.4190  -49.7800 O.co2 585  ASP585     -0.2456
     68  N         62.7080   45.4350  -54.1580 N.am  586  PRO586     -0.2718
     69  CA        63.0810   46.3070  -55.2600 C.3   586  PRO586      0.1535
     70  C         63.1370   47.7970  -54.8440 C.2   586  PRO586      0.2598
     71  O         62.4360   48.2500  -53.9580 O.2   586  PRO586     -0.2715
     72  CB        61.9570   46.0530  -56.2940 C.3   586  PRO586      0.0310
     73  CG        60.7640   45.7580  -55.4680 C.3   586  PRO586      0.0237
     74  CD        61.2390   45.3410  -54.0630 C.3   586  PRO586      0.0939
     75  N         63.9860   48.5500  -55.4880 N.am  587  LEU587     -0.1978
     76  CA        63.9590   49.9850  -55.3190 C.3   587  LEU587      0.1596
     77  C         64.1300   50.5590  -56.7060 C.2   587  LEU587      0.2287
     78  O         65.0030   50.1190  -57.4090 O.2   587  LEU587     -0.2864
     79  CB        65.1060   50.4320  -54.3940 C.3   587  LEU587      0.0297
     80  CG        65.1390   51.9200  -54.0960 C.3   587  LEU587      0.0022
     81  CD1       63.9720   52.3740  -53.1860 C.3   587  LEU587      0.0001
     82  CD2       66.4540   52.2020  -53.4630 C.3   587  LEU587      0.0001
     83  N         67.3100   55.9970  -56.6030 N.3   592  GLU592     -0.1245
     84  CA        68.7280   55.8750  -56.3010 C.3   592  GLU592      0.1567
     85  C         69.4760   57.0340  -56.9440 C.2   592  GLU592      0.2260
     86  O         70.2710   57.6680  -56.2460 O.2   592  GLU592     -0.2867
     87  CB        69.3140   54.4840  -56.6890 C.3   592  GLU592      0.0388
     88  CG        68.9840   53.3760  -55.6710 C.3   592  GLU592      0.1160
     89  CD        69.5730   52.0110  -55.9520 C.2   592  GLU592      0.3649
     90  OE1       69.4860   51.5150  -57.1000 O.co2 592  GLU592     -0.2457
     91  OE2       70.0950   51.4130  -54.9870 O.co2 592  GLU592     -0.2457
     92  N         77.5410   49.7510  -48.9510 N.3   612  ILE612     -0.1231
     93  CA        76.2190   49.9510  -48.3810 C.3   612  ILE612      0.1692
     94  C         75.1040   49.9440  -49.4520 C.2   612  ILE612      0.2592
     95  O         74.0090   49.4150  -49.2100 O.2   612  ILE612     -0.2718
     96  CB        76.2390   51.2210  -47.5090 C.3   612  ILE612      0.0266
     97  CG1       76.9600   50.9220  -46.1930 C.3   612  ILE612      0.0019
     98  CG2       74.8540   51.7470  -47.2260 C.3   612  ILE612      0.0020
     99  CD1       77.6990   52.1180  -45.6100 C.3   612  ILE612      0.0001
    100  N         75.4100   50.4690  -50.6410 N.am  613  ALA613     -0.1966
    101  CA        74.4140   50.6700  -51.7120 C.3   613  ALA613      0.1728
    102  C         74.3130   49.5620  -52.7920 C.2   613  ALA613      0.2617
    103  O         73.3460   49.5360  -53.5590 O.2   613  ALA613     -0.2715
    104  CB        74.6090   52.0520  -52.3530 C.3   613  ALA613      0.0334
    105  N         75.2920   48.6520  -52.8240 N.am  614  SER614     -0.1936
    106  CA        75.4180   47.6280  -53.8710 C.3   614  SER614      0.2055
    107  C         74.5730   46.4010  -53.6100 C.2   614  SER614      0.2642
    108  O         74.1050   46.1710  -52.5030 O.2   614  SER614     -0.2714
    109  CB        76.8870   47.1880  -54.0390 C.3   614  SER614      0.2130
    110  OG        77.5030   47.7800  -55.1780 O.3   614  SER614     -0.2179
    111  N         74.3940   45.5990  -54.6440 N.am  615  ARG615     -0.1977
    112  CA        73.7300   44.3220  -54.4990 C.3   615  ARG615      0.1597
    113  C         74.4890   43.3180  -55.3200 C.2   615  ARG615      0.2287
    114  O         74.8310   43.6020  -56.4680 O.2   615  ARG615     -0.2864
    115  CB        72.2970   44.4260  -55.0060 C.3   615  ARG615      0.0334
    116  CG        71.3230   45.1090  -54.0480 C.3   615  ARG615      0.0492
    117  CD        70.5900   44.0680  -53.2140 C.3   615  ARG615      0.2205
    118  NE        69.2160   43.8360  -53.6480 N.pl3 615  ARG615     -0.0865
    119  CZ        68.4900   42.7890  -53.2700 C.cat 615  ARG615      0.5346
    120  NH1       69.0020   41.8750  -52.4570 N.pl3 615  ARG615      0.1354
    121  NH2       67.2510   42.6570  -53.6950 N.pl3 615  ARG615      0.1354
    122  N         69.4680   40.1410  -59.2910 N.3   622  PHE622     -0.1241
    123  CA        70.0180   40.4180  -57.9520 C.3   622  PHE622      0.1605
    124  C         69.7320   39.2450  -56.9690 C.2   622  PHE622      0.2264
    125  O         68.7590   38.4750  -57.1440 O.2   622  PHE622     -0.2867
    126  CB        69.4390   41.7140  -57.3620 C.3   622  PHE622      0.0534
    127  CG        69.5900   42.9450  -58.2410 C.ar  622  PHE622     -0.0203
    128  CD1       70.8640   43.5410  -58.4540 C.ar  622  PHE622     -0.0042
    129  CD2       68.4430   43.5520  -58.8130 C.ar  622  PHE622     -0.0042
    130  CE1       71.0040   44.7140  -59.2520 C.ar  622  PHE622     -0.0003
    131  CE2       68.5490   44.7310  -59.6130 C.ar  622  PHE622     -0.0003
    132  CZ        69.8370   45.3140  -59.8320 C.ar  622  PHE622     -0.0000
    133  N         70.3860   35.6710  -49.4800 N.3   628  GLN628     -0.1245
    134  CA        71.3640   36.4830  -48.7840 C.3   628  GLN628      0.1566
    135  C         71.3760   36.1480  -47.2850 C.2   628  GLN628      0.2260
    136  O         72.4390   36.0270  -46.6820 O.2   628  GLN628     -0.2867
    137  CB        71.0510   37.9720  -49.0060 C.3   628  GLN628      0.0367
    138  CG        72.1760   38.9590  -48.6490 C.3   628  GLN628      0.0905
    139  CD        71.7420   40.4410  -48.7140 C.2   628  GLN628      0.2608
    140  OE1       72.0120   41.2180  -47.7810 O.2   628  GLN628     -0.2717
    141  NE2       71.0910   40.8390  -49.8200 N.am  628  GLN628     -0.0878
@<TRIPOS>BOND
     1   132   131   ar
     2   132   130   ar
     3   131   129   ar
     4   122   123    1
     5   130   128   ar
     6   129   127   ar
     7   128   127   ar
     8   127   126    1
     9   123   126    1
    10   123   124    1
    11    78    77    2
    12   125   124    2
    13    90    89   ar
    14    85    84    1
    15    85    86    2
    16    77    76    1
    17    87    84    1
    18    87    88    1
    19    83    84    1
    20   114   113    2
    21    72    73    1
    22    72    69    1
    23    89    88    1
    24    89    91   ar
    25    75    76    1
    26    75    70   am
    27    73    74    1
    28   113   112    1
    29    76    79    1
    30    69    70    1
    31    69    68    1
    32   110   109    1
    33   115   112    1
    34   115   116    1
    35    70    71    2
    36   111   112    1
    37   111   107   am
    38    79    80    1
    39    68    74    1
    40    68    62   am
    41    80    82    1
    42    80    81    1
    43   116   117    1
    44   109   106    1
    45   106   107    1
    46   106   105    1
    47   121   119    1
    48   118   119    2
    49   118   117    1
    50   107   108    2
    51   103   102    2
    52   119   120    1
    53    62    63    2
    54    62    61    1
    55    60    61    1
    56   105   102   am
    57   102   101    1
    58   104   101    1
    59    61    64    1
    60    51    49    1
    61    22    19    1
    62   101   100    1
    63    50    49    1
    64    64    65    1
    65    49    48    2
    66   100    94   am
    67    19    20    1
    68    19    18    1
    69    20    21    2
    70    65    66   ar
    71    65    67   ar
    72    48    47    1
    73   141   139   am
    74   133   134    1
    75    94    95    2
    76    94    93    1
    77    36    33    1
    78   137   134    1
    79   137   138    1
    80    92    93    1
    81    47    46    1
    82   134   135    1
    83   139   138    1
    84   139   140    2
    85    93    96    1
    86    33    32    1
    87    33    34    1
    88    46    45    1
    89    31    30    1
    90    96    98    1
    91    96    97    1
    92    32    25   am
    93   135   136    2
    94    34    35    2
    95    17    16    1
    96    30    29    1
    97    45    42    1
    98    29    28    1
    99    23    24    1
   100    27    24    1
   101    27    28    1
   102    25    24    1
   103    25    26    2
   104    97    99    1
   105    16    15    1
   106    42    41    1
   107    42    43    1
   108    15    14    1
   109    41    39   am
   110    43    44    2
   111    59    57    1
   112    39    38    1
   113    39    40    2
   114    57    56    1
   115    57    58    1
   116    13    14    1
   117    13    10    1
   118    37    38    1
   119    56    53    1
   120    12    11    2
   121    11    10    1
   122    10     9    1
   123    53    54    1
   124    53    52    1
   125    54    55    2
   126     4     3    2
   127     3     2    1
   128     5     2    1
   129     5     6    1
   130     1     2    1
   131     8     6    1
   132     6     7    1
