@<TRIPOS>MOLECULE
tmp/2x9kA03.pdb
 134 129 0 0 0
SMALL
GASTEIGER

@<TRIPOS>ATOM
      1  N         19.0290  -19.9880   21.5670 N.3    74  GLN74      -0.1245
      2  CA        19.4600  -18.6530   22.0150 C.3    74  GLN74       0.1566
      3  C         20.8810  -18.4020   21.5100 C.2    74  GLN74       0.2260
      4  O         21.8150  -18.9370   22.0800 O.2    74  GLN74      -0.2867
      5  CB        19.4740  -18.5920   23.5580 C.3    74  GLN74       0.0367
      6  CG        19.5530  -17.1990   24.1460 C.3    74  GLN74       0.0905
      7  CD        18.3390  -16.3200   23.7510 C.2    74  GLN74       0.2608
      8  OE1       18.4880  -15.1320   23.4500 O.2    74  GLN74      -0.2717
      9  NE2       17.1460  -16.9200   23.7300 N.am   74  GLN74      -0.0878
     10  N         20.2280   -9.6700   23.4020 N.3    82  SER82      -0.1217
     11  CA        19.7990  -11.0500   23.3760 C.3    82  SER82       0.1889
     12  C         19.2670  -11.2620   21.9720 C.2    82  SER82       0.2288
     13  O         18.6310  -10.3530   21.3770 O.2    82  SER82      -0.2866
     14  CB        18.6980  -11.3200   24.4070 C.3    82  SER82       0.2089
     15  OG        19.2220  -11.1860   25.7190 O.3    82  SER82      -0.2183
     16  N         13.8340  -13.5320   17.6280 N.3   115  ASP115     -0.1225
     17  CA        13.4590  -12.6690   18.7440 C.3   115  ASP115      0.1805
     18  C         14.7190  -11.9490   19.2620 C.2   115  ASP115      0.2598
     19  O         15.8210  -12.5020   19.2430 O.2   115  ASP115     -0.2718
     20  CB        12.7910  -13.4810   19.8510 C.3   115  ASP115      0.1424
     21  CG        13.7600  -14.4400   20.5530 C.2   115  ASP115      0.3668
     22  OD1       14.4000  -14.0120   21.5360 O.co2 115  ASP115     -0.2456
     23  OD2       13.8560  -15.6240   20.1560 O.co2 115  ASP115     -0.2456
     24  N         14.5610  -10.7040   19.6910 N.am  116  TRP116     -0.1962
     25  CA        15.6860   -9.8630   20.0760 C.3   116  TRP116      0.1771
     26  C         15.3490   -8.9440   21.2540 C.2   116  TRP116      0.2619
     27  O         14.1760   -8.6410   21.5390 O.2   116  TRP116     -0.2715
     28  CB        16.1580   -9.0100   18.9020 C.3   116  TRP116      0.0590
     29  CG        15.1020   -8.0350   18.3960 C.ar  116  TRP116      0.0006
     30  CD1       14.9080   -6.7310   18.7910 C.ar  116  TRP116      0.0946
     31  CD2       14.1140   -8.3010   17.3990 C.ar  116  TRP116      0.0152
     32  NE1       13.8410   -6.1780   18.1040 N.ar  116  TRP116     -0.2442
     33  CE2       13.3450   -7.1180   17.2370 C.ar  116  TRP116      0.0810
     34  CE3       13.7910   -9.4310   16.6350 C.ar  116  TRP116      0.0012
     35  CZ2       12.2770   -7.0380   16.3380 C.ar  116  TRP116      0.0191
     36  CZ3       12.7250   -9.3460   15.7320 C.ar  116  TRP116      0.0001
     37  CH2       11.9870   -8.1490   15.5930 C.ar  116  TRP116      0.0015
     38  N         16.3990   -8.4970   21.9260 N.am  117  ASP117     -0.1971
     39  CA        16.2630   -7.6140   23.0640 C.3   117  ASP117      0.1709
     40  C         17.5590   -6.8210   23.1440 C.2   117  ASP117      0.2293
     41  O         18.6230   -7.3830   23.3880 O.2   117  ASP117     -0.2864
     42  CB        16.0090   -8.4300   24.3400 C.3   117  ASP117      0.1436
     43  CG        15.8360   -7.5560   25.5960 C.2   117  ASP117      0.3671
     44  OD1       16.0370   -8.0530   26.7190 O.co2 117  ASP117     -0.2456
     45  OD2       15.4830   -6.3810   25.4790 O.co2 117  ASP117     -0.2456
     46  N         12.8600   -4.2300   21.9540 N.3   127  ASN127     -0.1225
     47  CA        12.7400   -5.6780   21.8520 C.3   127  ASN127      0.1785
     48  C         11.5950   -6.0660   20.9550 C.2   127  ASN127      0.2598
     49  O         10.8180   -5.2150   20.5360 O.2   127  ASN127     -0.2718
     50  CB        12.6500   -6.3470   23.2290 C.3   127  ASN127      0.1169
     51  CG        11.6020   -5.7250   24.1120 C.2   127  ASN127      0.2627
     52  OD1       10.5290   -5.3350   23.6460 O.2   127  ASN127     -0.2716
     53  ND2       11.9020   -5.6300   25.4000 N.am  127  ASN127     -0.0877
     54  N         11.5090   -7.3440   20.6320 N.am  128  GLY128     -0.1942
     55  CA        10.4970   -7.7990   19.7020 C.3   128  GLY128      0.2014
     56  C         10.7280   -9.2080   19.1880 C.2   128  GLY128      0.2638
     57  O         11.6970   -9.9110   19.5680 O.2   128  GLY128     -0.2714
     58  N          9.8050   -9.6400   18.3420 N.am  129  TRP129     -0.1973
     59  CA         9.9720  -10.8730   17.6150 C.3   129  TRP129      0.1640
     60  C          9.3520  -10.6050   16.2780 C.2   129  TRP129      0.2290
     61  O          8.5230   -9.6920   16.1230 O.2   129  TRP129     -0.2864
     62  CB         9.3320  -12.0760   18.3120 C.3   129  TRP129      0.0576
     63  CG         7.8850  -11.8430   18.6920 C.ar  129  TRP129      0.0006
     64  CD1        7.4140  -11.4160   19.9050 C.ar  129  TRP129      0.0946
     65  CD2        6.7410  -11.9710   17.8340 C.ar  129  TRP129      0.0152
     66  NE1        6.0280  -11.2710   19.8600 N.ar  129  TRP129     -0.2442
     67  CE2        5.5920  -11.6220   18.6060 C.ar  129  TRP129      0.0810
     68  CE3        6.5690  -12.3760   16.5030 C.ar  129  TRP129      0.0012
     69  CZ2        4.2820  -11.6630   18.0790 C.ar  129  TRP129      0.0191
     70  CZ3        5.2780  -12.4270   15.9820 C.ar  129  TRP129      0.0001
     71  CH2        4.1470  -12.0570   16.7710 C.ar  129  TRP129      0.0015
     72  N          5.5890   -8.2300   16.6000 N.3   152  GLU152     -0.1245
     73  CA         5.3380   -7.2490   17.6380 C.3   152  GLU152      0.1567
     74  C          6.7280   -6.7740   18.0830 C.2   152  GLU152      0.2260
     75  O          7.5660   -7.5930   18.4470 O.2   152  GLU152     -0.2867
     76  CB         4.5820   -7.8480   18.8380 C.3   152  GLU152      0.0388
     77  CG         4.2180   -6.7700   19.8510 C.3   152  GLU152      0.1160
     78  CD         3.1310   -7.1910   20.8420 C.2   152  GLU152      0.3649
     79  OE1        2.4270   -8.1620   20.5620 O.co2 152  GLU152     -0.2457
     80  OE2        2.9890   -6.5600   21.9020 O.co2 152  GLU152     -0.2457
     81  N         10.5650   -0.7880   25.7360 N.3   156  GLN156     -0.1245
     82  CA        10.2210   -1.0360   27.1110 C.3   156  GLN156      0.1566
     83  C         10.9570   -0.0880   28.0520 C.2   156  GLN156      0.2260
     84  O         12.2010   -0.0190   28.0550 O.2   156  GLN156     -0.2867
     85  CB        10.5890   -2.4510   27.4600 C.3   156  GLN156      0.0367
     86  CG        10.5640   -2.7190   28.9290 C.3   156  GLN156      0.0905
     87  CD        11.3320   -4.0020   29.2380 C.2   156  GLN156      0.2608
     88  OE1       10.8220   -5.0720   29.0320 O.2   156  GLN156     -0.2717
     89  NE2       12.5790   -3.8770   29.6900 N.am  156  GLN156     -0.0878
     90  N          5.4620   -0.9770   28.4020 N.3   166  ARG166     -0.1245
     91  CA         5.8560   -1.4140   27.0750 C.3   166  ARG166      0.1563
     92  C          4.9280   -0.9380   26.0320 C.2   166  ARG166      0.2260
     93  O          3.7100   -1.0080   26.2170 O.2   166  ARG166     -0.2867
     94  CB         5.9590   -2.9510   27.0090 C.3   166  ARG166      0.0307
     95  CG         6.9230   -3.4630   28.0320 C.3   166  ARG166      0.0489
     96  CD         7.0570   -4.9610   27.9590 C.3   166  ARG166      0.2205
     97  NE         7.9010   -5.3760   26.8450 N.pl3 166  ARG166     -0.0865
     98  CZ         8.5220   -6.5470   26.8260 C.cat 166  ARG166      0.5346
     99  NH1        9.2830   -6.9050   25.7960 N.pl3 166  ARG166      0.1354
    100  NH2        8.3630   -7.3590   27.8590 N.pl3 166  ARG166      0.1354
    101  N          4.3570   -1.2140   21.7920 N.3   168  ASN168     -0.1240
    102  CA         4.7980   -1.9830   20.6650 C.3   168  ASN168      0.1653
    103  C          3.9830   -1.6660   19.4420 C.2   168  ASN168      0.2266
    104  O          2.7680   -1.3550   19.5300 O.2   168  ASN168     -0.2867
    105  CB         4.7070   -3.5140   20.9850 C.3   168  ASN168      0.1155
    106  CG         5.5870   -3.9330   22.1570 C.2   168  ASN168      0.2627
    107  OD1        6.5840   -3.2940   22.4480 O.2   168  ASN168     -0.2716
    108  ND2        5.2280   -5.0190   22.8160 N.am  168  ASN168     -0.0877
    109  N          1.3020   -2.0670   27.3640 N.3   194  TYR194     -0.1241
    110  CA         1.1910   -2.9190   28.5430 C.3   194  TYR194      0.1605
    111  C          1.8250   -2.2210   29.7270 C.2   194  TYR194      0.2264
    112  O          2.8510   -1.5700   29.5750 O.2   194  TYR194     -0.2867
    113  CB         1.9730   -4.2450   28.3470 C.3   194  TYR194      0.0534
    114  CG         1.7050   -4.9910   27.0570 C.ar  194  TYR194     -0.0201
    115  CD1        2.2880   -4.5720   25.8580 C.ar  194  TYR194     -0.0009
    116  CD2        0.9080   -6.1590   27.0480 C.ar  194  TYR194     -0.0009
    117  CE1        2.0660   -5.2580   24.6690 C.ar  194  TYR194      0.0417
    118  CE2        0.6810   -6.8610   25.8630 C.ar  194  TYR194      0.0417
    119  CZ         1.2610   -6.4120   24.6840 C.ar  194  TYR194      0.1957
    120  OH         1.0430   -7.1170   23.5290 O.3   194  TYR194     -0.2866
    121  N          3.1840   -3.9660   32.8320 N.3   196  PRO196     -0.2116
    122  CA         3.3750   -5.1670   33.6850 C.3   196  PRO196      0.1372
    123  C          3.7920   -4.7540   35.0860 C.2   196  PRO196      0.2244
    124  O          4.7510   -3.9990   35.2100 O.2   196  PRO196     -0.2868
    125  CB         4.5770   -5.9010   33.0450 C.3   196  PRO196      0.0268
    126  CG         5.0550   -5.0530   31.8830 C.3   196  PRO196      0.0207
    127  CD         4.0060   -3.9740   31.6140 C.3   196  PRO196      0.0892
    128  N         -0.8220   -7.3550   34.5930 N.3   205  THR205     -0.1218
    129  CA        -0.5570   -6.5880   33.3980 C.3   205  THR205      0.1862
    130  C         -1.8600   -6.0990   32.7420 C.2   205  THR205      0.2287
    131  O         -2.4830   -6.8380   31.9910 O.2   205  THR205     -0.2866
    132  CB         0.2810   -7.4220   32.4080 C.3   205  THR205      0.1770
    133  OG1        1.4460   -7.8970   33.0910 O.3   205  THR205     -0.2211
    134  CG2        0.7530   -6.5840   31.2350 C.3   205  THR205      0.0375
@<TRIPOS>BOND
     1    37    36   ar
     2    37    35   ar
     3    36    34   ar
     4    70    68   ar
     5    70    71   ar
     6    61    60    2
     7    60    59    1
     8    35    33   ar
     9    68    65   ar
    10    72    73    1
    11    34    31   ar
    12    71    69   ar
    13    33    31   ar
    14    33    32   ar
    15    31    29   ar
    16    59    62    1
    17    59    58    1
    18    16    17    1
    19    73    74    1
    20    73    76    1
    21    65    67   ar
    22    65    63   ar
    23    69    67   ar
    24    74    75    2
    25    32    30   ar
    26    62    63    1
    27    58    56   am
    28    29    30   ar
    29    29    28    1
    30    67    66   ar
    31    63    64   ar
    32    17    18    1
    33    17    20    1
    34    76    77    1
    35    28    25    1
    36    56    57    2
    37    56    55    1
    38    19    18    2
    39    18    24   am
    40   103   104    2
    41   103   102    1
    42    24    25    1
    43    55    54    1
    44    20    21    1
    45    77    78    1
    46    66    64   ar
    47    25    26    1
    48    23    21   ar
    49    49    48    2
    50    21    22   ar
    51    79    78   ar
    52    54    48   am
    53   102   105    1
    54   102   101    1
    55    78    80   ar
    56    48    47    1
    57   105   106    1
    58    26    27    2
    59    26    38   am
    60    13    12    2
    61     3     2    1
    62     3     4    2
    63     1     2    1
    64    47    46    1
    65    47    50    1
    66    38    39    1
    67    12    11    1
    68     2     5    1
    69   106   107    2
    70   106   108   am
    71    39    40    1
    72    39    42    1
    73    40    41    2
    74    50    51    1
    75    11    10    1
    76    11    14    1
    77     8     7    2
    78   120   119    1
    79     5     6    1
    80    52    51    2
    81     9     7   am
    82     7     6    1
    83    51    53   am
    84    42    43    1
    85    14    15    1
    86   117   119   ar
    87   117   115   ar
    88   119   118   ar
    89    45    43   ar
    90    43    44   ar
    91    81    82    1
    92    99    98    1
    93   115   114   ar
    94   118   116   ar
    95    92    93    2
    96    92    91    1
    97    98    97    2
    98    98   100    1
    99    97    96    1
   100    94    91    1
   101    94    95    1
   102   116   114   ar
   103   114   113    1
   104    91    90    1
   105    82    85    1
   106    82    83    1
   107   109   110    1
   108    85    86    1
   109    96    95    1
   110    83    84    2
   111   113   110    1
   112   110   111    1
   113    86    87    1
   114    88    87    2
   115    87    89   am
   116   112   111    2
   117   134   132    1
   118   127   126    1
   119   127   121    1
   120   126   125    1
   121   131   130    2
   122   132   133    1
   123   132   129    1
   124   130   129    1
   125   121   122    1
   126   125   122    1
   127   129   128    1
   128   122   123    1
   129   123   124    2
