@<TRIPOS>MOLECULE
tmp/2x9kA00.pdb
 73 70 0 0 0
SMALL
GASTEIGER

@<TRIPOS>ATOM
      1  N         -1.3540  -26.2890   30.9160 N.3    10  ALA10      -0.1231
      2  CA        -2.6030  -26.4500   30.2210 C.3    10  ALA10       0.1694
      3  C         -3.2810  -25.1150   30.3090 C.2    10  ALA10       0.2592
      4  O         -3.0400  -24.3580   31.2520 O.2    10  ALA10      -0.2718
      5  CB        -3.4590  -27.5320   30.8870 C.3    10  ALA10       0.0304
      6  N         -4.1330  -24.8380   29.3260 N.am   11  MET11      -0.1965
      7  CA        -4.8740  -23.5780   29.2770 C.3    11  MET11       0.1736
      8  C         -6.2440  -23.8340   28.7450 C.2    11  MET11       0.2616
      9  O         -6.4610  -24.7280   27.9240 O.2    11  MET11      -0.2715
     10  CB        -4.2320  -22.5670   28.3350 C.3    11  MET11       0.0427
     11  CG        -2.7760  -22.2740   28.6170 C.3    11  MET11       0.0599
     12  SD        -2.3090  -20.8500   27.6170 S.3    11  MET11      -0.1393
     13  CE        -3.7050  -19.7860   27.9300 C.3    11  MET11       0.0692
     14  N         -7.1750  -23.0280   29.2090 N.am   12  TYR12      -0.1974
     15  CA        -8.5080  -23.0330   28.6450 C.3    12  TYR12       0.1639
     16  C         -8.9340  -21.5940   28.3420 C.2    12  TYR12       0.2290
     17  O         -9.0530  -20.8020   29.2550 O.2    12  TYR12      -0.2864
     18  CB        -9.4530  -23.6170   29.6540 C.3    12  TYR12       0.0560
     19  CG       -10.8090  -23.8850   29.0760 C.ar   12  TYR12      -0.0198
     20  CD1      -11.9160  -23.1350   29.4600 C.ar   12  TYR12      -0.0009
     21  CD2      -10.9800  -24.8950   28.1340 C.ar   12  TYR12      -0.0009
     22  CE1      -13.1800  -23.4070   28.9090 C.ar   12  TYR12       0.0417
     23  CE2      -12.2140  -25.1690   27.5820 C.ar   12  TYR12       0.0417
     24  CZ       -13.3060  -24.4240   27.9720 C.ar   12  TYR12       0.1957
     25  OH       -14.5120  -24.7210   27.4090 O.3    12  TYR12      -0.2866
     26  N        -11.6530  -18.9100   26.1040 N.3    14  ILE14      -0.1245
     27  CA       -12.9930  -18.7580   25.5390 C.3    14  ILE14       0.1561
     28  C        -13.0040  -17.4800   24.7250 C.2    14  ILE14       0.2260
     29  O        -12.3850  -16.5000   25.1270 O.2    14  ILE14      -0.2867
     30  CB       -14.0430  -18.6110   26.6460 C.3    14  ILE14       0.0252
     31  CG1      -14.2570  -19.9560   27.3340 C.3    14  ILE14       0.0019
     32  CG2      -15.3530  -18.1230   26.0670 C.3    14  ILE14       0.0019
     33  CD1      -14.3930  -21.0350   26.3860 C.3    14  ILE14       0.0001
     34  N         -9.2730  -25.3080   24.4420 N.3    30  PRO30      -0.2102
     35  CA        -8.3900  -26.0390   25.3500 C.3    30  PRO30       0.1504
     36  C         -7.0070  -26.1860   24.7040 C.2    30  PRO30       0.2576
     37  O         -6.8750  -26.3220   23.4780 O.2    30  PRO30      -0.2718
     38  CB        -9.0580  -27.4380   25.4520 C.3    30  PRO30       0.0282
     39  CG        -9.7730  -27.5880   24.1510 C.3    30  PRO30       0.0208
     40  CD       -10.2740  -26.1850   23.7940 C.3    30  PRO30       0.0893
     41  N         -5.9690  -26.1350   25.5270 N.am   31  SER31      -0.1938
     42  CA        -4.6830  -26.5850   25.0630 C.3    31  SER31       0.2055
     43  C         -3.7610  -27.0790   26.1610 C.2    31  SER31       0.2642
     44  O         -4.0010  -26.8510   27.3490 O.2    31  SER31      -0.2714
     45  CB        -3.9870  -25.5120   24.2350 C.3    31  SER31       0.2130
     46  OG        -3.8390  -24.3440   24.9800 O.3    31  SER31      -0.2179
     47  N         -2.7000  -27.7700   25.7440 N.am   32  VAL32      -0.1977
     48  CA        -1.7160  -28.3070   26.6900 C.3    32  VAL32       0.1596
     49  C         -0.3540  -28.2210   26.0470 C.2    32  VAL32       0.2287
     50  O         -0.2350  -28.2140   24.7970 O.2    32  VAL32      -0.2864
     51  CB        -1.8990  -29.8270   26.9720 C.3    32  VAL32       0.0276
     52  CG1       -3.0890  -30.0880   27.8130 C.3    32  VAL32       0.0022
     53  CG2       -1.9600  -30.5870   25.6660 C.3    32  VAL32       0.0022
     54  N        -18.2970  -23.7640   21.5680 N.3    53  VAL53      -0.1231
     55  CA       -18.2600  -24.0420   23.0010 C.3    53  VAL53       0.1692
     56  C        -19.1930  -25.1860   23.4690 C.2    53  VAL53       0.2592
     57  O        -18.8150  -25.9990   24.3230 O.2    53  VAL53      -0.2718
     58  CB       -18.4730  -22.7550   23.8450 C.3    53  VAL53       0.0266
     59  CG1      -19.9320  -22.2930   23.8170 C.3    53  VAL53       0.0020
     60  CG2      -17.9950  -23.0000   25.2710 C.3    53  VAL53       0.0020
     61  N        -20.4000  -25.2590   22.9140 N.am   54  ASP54      -0.1974
     62  CA       -21.3240  -26.3350   23.2870 C.3    54  ASP54       0.1709
     63  C        -21.4880  -27.3800   22.1790 C.2    54  ASP54       0.2293
     64  O        -22.6010  -27.7560   21.8060 O.2    54  ASP54      -0.2864
     65  CB       -22.6690  -25.7650   23.7430 C.3    54  ASP54       0.1436
     66  CG       -22.5970  -25.1590   25.1400 C.2    54  ASP54       0.3671
     67  OD1      -22.7820  -23.9280   25.2700 O.co2  54  ASP54      -0.2456
     68  OD2      -22.3450  -25.9150   26.1080 O.co2  54  ASP54      -0.2456
     69  N        -22.0980  -31.0430   23.8550 N.3    57  ALA57      -0.1245
     70  CA       -23.2910  -31.0470   24.6920 C.3    57  ALA57       0.1562
     71  C        -24.4970  -30.7150   23.8330 C.2    57  ALA57       0.2260
     72  O        -25.1130  -29.6530   23.9730 O.2    57  ALA57      -0.2867
     73  CB       -23.1450  -30.0320   25.8100 C.3    57  ALA57       0.0290
@<TRIPOS>BOND
     1    54    55    1
     2    64    63    2
     3    63    62    1
     4    61    62    1
     5    61    56   am
     6    55    56    1
     7    55    58    1
     8    62    65    1
     9    56    57    2
    10    37    36    2
    11    65    66    1
    12    40    39    1
    13    40    34    1
    14    59    58    1
    15    71    72    2
    16    71    70    1
    17    58    60    1
    18    69    70    1
    19    39    38    1
    20    45    46    1
    21    45    42    1
    22    34    35    1
    23    70    73    1
    24    36    35    1
    25    36    41   am
    26    28    29    2
    27    28    27    1
    28    50    49    2
    29    42    41    1
    30    42    43    1
    31    66    67   ar
    32    66    68   ar
    33    35    38    1
    34    27    26    1
    35    27    30    1
    36    53    51    1
    37    47    43   am
    38    47    48    1
    39    49    48    1
    40    32    30    1
    41    43    44    2
    42    33    31    1
    43    30    31    1
    44    48    51    1
    45    51    52    1
    46    25    24    1
    47    23    24   ar
    48    23    21   ar
    49    12    13    1
    50    12    11    1
    51     9     8    2
    52    24    22   ar
    53    21    19   ar
    54    10    11    1
    55    10     7    1
    56    16    15    1
    57    16    17    2
    58    15    14    1
    59    15    18    1
    60     8    14   am
    61     8     7    1
    62    22    20   ar
    63    19    20   ar
    64    19    18    1
    65     7     6    1
    66     6     3   am
    67     2     3    1
    68     2     5    1
    69     2     1    1
    70     3     4    2
