@<TRIPOS>MOLECULE
tmp/2x9kA05.pdb
 134 125 0 0 0
SMALL
GASTEIGER

@<TRIPOS>ATOM
      1  N         13.8160  -23.7890   19.7040 N.3    72  HIS72      -0.1241
      2  CA        14.3630  -22.4550   19.8540 C.3    72  HIS72       0.1621
      3  C         15.8610  -22.5380   20.1820 C.2    72  HIS72       0.2264
      4  O         16.2650  -23.4140   20.9270 O.2    72  HIS72      -0.2867
      5  CB        13.6280  -21.7460   20.9910 C.3    72  HIS72       0.0745
      6  CG        14.1410  -20.3680   21.2720 C.ar   72  HIS72       0.0817
      7  ND1       15.0830  -20.1070   22.2420 N.ar   72  HIS72      -0.2268
      8  CD2       13.8450  -19.1770   20.7000 C.ar   72  HIS72       0.1154
      9  CE1       15.3350  -18.8110   22.2710 C.ar   72  HIS72       0.1986
     10  NE2       14.6060  -18.2270   21.3380 N.ar   72  HIS72      -0.2212
     11  N         19.0290  -19.9880   21.5670 N.3    74  GLN74      -0.1245
     12  CA        19.4600  -18.6530   22.0150 C.3    74  GLN74       0.1566
     13  C         20.8810  -18.4020   21.5100 C.2    74  GLN74       0.2260
     14  O         21.8150  -18.9370   22.0800 O.2    74  GLN74      -0.2867
     15  CB        19.4740  -18.5920   23.5580 C.3    74  GLN74       0.0367
     16  CG        19.5530  -17.1990   24.1460 C.3    74  GLN74       0.0905
     17  CD        18.3390  -16.3200   23.7510 C.2    74  GLN74       0.2608
     18  OE1       18.4880  -15.1320   23.4500 O.2    74  GLN74      -0.2717
     19  NE2       17.1460  -16.9200   23.7300 N.am   74  GLN74      -0.0878
     20  N         13.5060  -19.2120   16.5500 N.3    86  THR86      -0.1218
     21  CA        12.5870  -20.3550   16.6100 C.3    86  THR86       0.1862
     22  C         12.3060  -20.8910   15.2110 C.2    86  THR86       0.2287
     23  O         12.1130  -20.1220   14.2460 O.2    86  THR86      -0.2866
     24  CB        11.2180  -19.9500   17.2500 C.3    86  THR86       0.1770
     25  OG1       11.4430  -19.4170   18.5490 O.3    86  THR86      -0.2211
     26  CG2       10.2500  -21.1680   17.3810 C.3    86  THR86       0.0375
     27  N          3.4290  -26.7560   12.5690 N.3    90  ARG90      -0.1245
     28  CA         2.0940  -27.0460   13.0410 C.3    90  ARG90       0.1563
     29  C          1.3650  -27.7980   11.9640 C.2    90  ARG90       0.2260
     30  O          1.5580  -27.5180   10.7670 O.2    90  ARG90      -0.2867
     31  CB         1.2710  -25.7470   13.2470 C.3    90  ARG90       0.0307
     32  CG         1.5550  -24.9730   14.4790 C.3    90  ARG90       0.0489
     33  CD         0.6320  -23.7120   14.5630 C.3    90  ARG90       0.2205
     34  NE         0.8510  -23.0610   15.8440 N.pl3  90  ARG90      -0.0865
     35  CZ         0.2700  -21.9370   16.2520 C.cat  90  ARG90       0.5346
     36  NH1       -0.6140  -21.2860   15.4800 N.pl3  90  ARG90       0.1354
     37  NH2        0.5850  -21.4800   17.4460 N.pl3  90  ARG90       0.1354
     38  N          1.6830  -25.3940    8.7730 N.3   109  ARG109     -0.1245
     39  CA         2.3190  -24.0810    8.8470 C.3   109  ARG109      0.1563
     40  C          3.7730  -24.2230    9.2680 C.2   109  ARG109      0.2260
     41  O          4.0930  -24.8590   10.2810 O.2   109  ARG109     -0.2867
     42  CB         1.6210  -23.1860    9.8520 C.3   109  ARG109      0.0307
     43  CG         2.1460  -21.7620    9.8190 C.3   109  ARG109      0.0489
     44  CD         1.6320  -20.9620   10.9930 C.3   109  ARG109      0.2205
     45  NE         2.3300  -21.3340   12.2080 N.pl3 109  ARG109     -0.0865
     46  CZ         2.2070  -20.6690   13.3510 C.cat 109  ARG109      0.5346
     47  NH1        1.3700  -19.6390   13.4170 N.pl3 109  ARG109      0.1354
     48  NH2        2.8700  -21.0620   14.4370 N.pl3 109  ARG109      0.1354
     49  N          7.2540  -22.1790   10.3570 N.3   111  LYS111     -0.1245
     50  CA         7.5980  -20.9440   11.0170 C.3   111  LYS111      0.1561
     51  C          9.1220  -20.7440   11.2040 C.2   111  LYS111      0.2260
     52  O          9.8320  -21.6660   11.6190 O.2   111  LYS111     -0.2867
     53  CB         6.9330  -20.9450   12.3940 C.3   111  LYS111      0.0271
     54  CG         7.3440  -19.7480   13.3090 C.3   111  LYS111      0.0035
     55  CD         7.0670  -20.1380   14.7620 C.3   111  LYS111      0.0206
     56  CE         6.7040  -18.9540   15.6440 C.3   111  LYS111      0.1093
     57  NZ         6.3810  -19.4150   17.0330 N.3   111  LYS111     -0.1314
     58  N         11.2670  -17.6820   13.2480 N.3   113  ALA113     -0.1245
     59  CA        11.0430  -16.4520   13.9750 C.3   113  ALA113      0.1562
     60  C         12.2270  -15.9690   14.8360 C.2   113  ALA113      0.2260
     61  O         12.4610  -16.4970   15.9110 O.2   113  ALA113     -0.2867
     62  CB         9.7740  -16.6070   14.8450 C.3   113  ALA113      0.0290
     63  N         13.8340  -13.5320   17.6280 N.3   115  ASP115     -0.1239
     64  CA        13.4590  -12.6690   18.7440 C.3   115  ASP115      0.1674
     65  C         14.7190  -11.9490   19.2620 C.2   115  ASP115      0.2266
     66  O         15.8210  -12.5020   19.2430 O.2   115  ASP115     -0.2867
     67  CB        12.7910  -13.4810   19.8510 C.3   115  ASP115      0.1410
     68  CG        13.7600  -14.4400   20.5530 C.2   115  ASP115      0.3668
     69  OD1       14.4000  -14.0120   21.5360 O.co2 115  ASP115     -0.2456
     70  OD2       13.8560  -15.6240   20.1560 O.co2 115  ASP115     -0.2456
     71  N          9.8050   -9.6400   18.3420 N.3   129  TRP129     -0.1241
     72  CA         9.9720  -10.8730   17.6150 C.3   129  TRP129      0.1605
     73  C          9.3520  -10.6050   16.2780 C.2   129  TRP129      0.2264
     74  O          8.5230   -9.6920   16.1230 O.2   129  TRP129     -0.2867
     75  CB         9.3320  -12.0760   18.3120 C.3   129  TRP129      0.0550
     76  CG         7.8850  -11.8430   18.6920 C.ar  129  TRP129      0.0003
     77  CD1        7.4140  -11.4160   19.9050 C.ar  129  TRP129      0.0946
     78  CD2        6.7410  -11.9710   17.8340 C.ar  129  TRP129      0.0152
     79  NE1        6.0280  -11.2710   19.8600 N.ar  129  TRP129     -0.2442
     80  CE2        5.5920  -11.6220   18.6060 C.ar  129  TRP129      0.0810
     81  CE3        6.5690  -12.3760   16.5030 C.ar  129  TRP129      0.0012
     82  CZ2        4.2820  -11.6630   18.0790 C.ar  129  TRP129      0.0191
     83  CZ3        5.2780  -12.4270   15.9820 C.ar  129  TRP129      0.0001
     84  CH2        4.1470  -12.0570   16.7710 C.ar  129  TRP129      0.0015
     85  N          7.9770  -13.1490   12.8680 N.3   131  SER131     -0.1217
     86  CA         7.7370  -14.5310   12.3820 C.3   131  SER131      0.1889
     87  C          7.3790  -14.5410   10.9050 C.2   131  SER131      0.2288
     88  O          6.5590  -13.7400   10.4630 O.2   131  SER131     -0.2866
     89  CB         6.5710  -15.2000   13.1240 C.3   131  SER131      0.2089
     90  OG         6.7140  -15.1690   14.5340 O.3   131  SER131     -0.2183
     91  N          5.7640  -17.2560    8.1700 N.3   133  TYR133     -0.1241
     92  CA         5.1090  -18.5290    8.1220 C.3   133  TYR133      0.1605
     93  C          4.8460  -18.8930    6.6850 C.2   133  TYR133      0.2264
     94  O          4.5470  -18.0350    5.8790 O.2   133  TYR133     -0.2867
     95  CB         3.7780  -18.4100    8.8010 C.3   133  TYR133      0.0534
     96  CG         3.7760  -17.8860   10.2190 C.ar  133  TYR133     -0.0201
     97  CD1        3.2110  -16.6470   10.4930 C.ar  133  TYR133     -0.0009
     98  CD2        4.2490  -18.6480   11.2910 C.ar  133  TYR133     -0.0009
     99  CE1        3.1280  -16.1560   11.7650 C.ar  133  TYR133      0.0417
    100  CE2        4.1510  -18.1600   12.6080 C.ar  133  TYR133      0.0417
    101  CZ         3.5760  -16.9030   12.8170 C.ar  133  TYR133      0.1957
    102  OH         3.4390  -16.3270   14.0520 O.3   133  TYR133     -0.2866
    103  N          4.3610  -11.7560   10.6560 N.3   150  GLU150     -0.1245
    104  CA         3.8030  -11.2070   11.8690 C.3   150  GLU150      0.1567
    105  C          4.9340  -10.7120   12.7640 C.2   150  GLU150      0.2260
    106  O          5.9850  -11.3610   12.8770 O.2   150  GLU150     -0.2867
    107  CB         2.9500  -12.2870   12.5690 C.3   150  GLU150      0.0388
    108  CG         2.2290  -11.8080   13.8330 C.3   150  GLU150      0.1160
    109  CD         1.4650  -12.9270   14.5260 C.2   150  GLU150      0.3649
    110  OE1        1.7890  -14.1060   14.2700 O.co2 150  GLU150     -0.2457
    111  OE2        0.5490  -12.6310   15.3400 O.co2 150  GLU150     -0.2457
    112  N          2.5200   -3.6770   16.1880 N.3   170  TYR170     -0.1241
    113  CA         2.1310   -5.0140   15.7740 C.3   170  TYR170      0.1605
    114  C          1.6770   -4.9610   14.3220 C.2   170  TYR170      0.2264
    115  O          0.9120   -4.0600   13.9070 O.2   170  TYR170     -0.2867
    116  CB         1.0280   -5.5900   16.6940 C.3   170  TYR170      0.0534
    117  CG         0.4400   -6.9280   16.2430 C.ar  170  TYR170     -0.0201
    118  CD1       -0.6820   -6.9840   15.3910 C.ar  170  TYR170     -0.0009
    119  CD2        1.0190   -8.1150   16.6460 C.ar  170  TYR170     -0.0009
    120  CE1       -1.1850   -8.1990   14.9440 C.ar  170  TYR170      0.0417
    121  CE2        0.5270   -9.3480   16.2310 C.ar  170  TYR170      0.0417
    122  CZ        -0.5810   -9.3830   15.3730 C.ar  170  TYR170      0.1957
    123  OH        -1.0700  -10.6000   14.9540 O.3   170  TYR170     -0.2866
    124  N          0.2260   -1.6450   20.5820 N.3   192  ARG192     -0.1245
    125  CA        -0.1020   -2.3550   21.7960 C.3   192  ARG192      0.1563
    126  C          0.6830   -1.8520   22.9860 C.2   192  ARG192      0.2260
    127  O          1.9130   -1.6320   22.9050 O.2   192  ARG192     -0.2867
    128  CB         0.1790   -3.8660   21.6200 C.3   192  ARG192      0.0307
    129  CG        -0.4950   -4.4960   20.4180 C.3   192  ARG192      0.0489
    130  CD        -0.2720   -6.0510   20.4180 C.3   192  ARG192      0.2205
    131  NE        -1.2120   -6.6610   19.4910 N.pl3 192  ARG192     -0.0865
    132  CZ        -1.2640   -7.9650   19.2060 C.cat 192  ARG192      0.5346
    133  NH1       -0.3990   -8.8060   19.7570 N.pl3 192  ARG192      0.1354
    134  NH2       -2.1810   -8.4240   18.3550 N.pl3 192  ARG192      0.1354
@<TRIPOS>BOND
     1    94    93    2
     2    93    92    1
     3    92    91    1
     4    92    95    1
     5    38    39    1
     6    95    96    1
     7    39    40    1
     8    39    42    1
     9    40    41    2
    10    43    42    1
    11    43    44    1
    12    96    97   ar
    13    96    98   ar
    14    49    50    1
    15    88    87    2
    16    97    99   ar
    17   103   104    1
    18    30    29    2
    19    87    86    1
    20    44    45    1
    21    50    51    1
    22    50    53    1
    23    51    52    2
    24    98   100   ar
    25    99   101   ar
    26   104   107    1
    27   104   105    1
    28    29    28    1
    29    45    46    2
    30    86    85    1
    31    86    89    1
    32    53    54    1
    33    27    28    1
    34   107   108    1
    35   100   101   ar
    36   105   106    2
    37   101   102    1
    38    28    31    1
    39    89    90    1
    40    31    32    1
    41    58    59    1
    42    54    55    1
    43    46    47    1
    44    46    48    1
    45   108   109    1
    46   115   114    2
    47    59    60    1
    48    59    62    1
    49    23    22    2
    50   110   109   ar
    51   114   113    1
    52    32    33    1
    53   109   111   ar
    54    33    34    1
    55    55    56    1
    56    60    61    2
    57   120   122   ar
    58   120   118   ar
    59   123   122    1
    60    22    21    1
    61   122   121   ar
    62   118   117   ar
    63    36    35    1
    64    56    57    1
    65   113   112    1
    66   113   116    1
    67    34    35    2
    68    83    81   ar
    69    83    84   ar
    70    74    73    2
    71   121   119   ar
    72   117   119   ar
    73   117   116    1
    74    35    37    1
    75    73    72    1
    76    81    78   ar
    77    20    21    1
    78    21    24    1
    79    84    82   ar
    80    24    26    1
    81    24    25    1
    82    72    75    1
    83    72    71    1
    84    63    64    1
    85    78    80   ar
    86    78    76   ar
    87    82    80   ar
    88    75    76    1
    89   134   132    1
    90    80    79   ar
    91    76    77   ar
    92    64    65    1
    93    64    67    1
    94   132   131    2
    95   132   133    1
    96    66    65    2
    97   131   130    1
    98     1     2    1
    99    67    68    1
   100     2     3    1
   101     2     5    1
   102    79    77   ar
   103    70    68   ar
   104     3     4    2
   105   130   129    1
   106   129   128    1
   107    68    69   ar
   108   124   125    1
   109     8     6   ar
   110     8    10   ar
   111     5     6    1
   112     6     7   ar
   113    10     9   ar
   114    13    12    1
   115    13    14    2
   116    11    12    1
   117   128   125    1
   118   125   126    1
   119    12    15    1
   120     7     9   ar
   121   127   126    2
   122    18    17    2
   123    15    16    1
   124    19    17   am
   125    17    16    1
