@<TRIPOS>MOLECULE
tmp/2x9kA02.pdb
 123 121 0 0 0
SMALL
GASTEIGER

@<TRIPOS>ATOM
      1  N         -2.7000  -27.7700   25.7440 N.3    32  VAL32      -0.1231
      2  CA        -1.7160  -28.3070   26.6900 C.3    32  VAL32       0.1692
      3  C         -0.3540  -28.2210   26.0470 C.2    32  VAL32       0.2592
      4  O         -0.2350  -28.2140   24.7970 O.2    32  VAL32      -0.2718
      5  CB        -1.8990  -29.8270   26.9720 C.3    32  VAL32       0.0266
      6  CG1       -3.0890  -30.0880   27.8130 C.3    32  VAL32       0.0020
      7  CG2       -1.9600  -30.5870   25.6660 C.3    32  VAL32       0.0020
      8  N          0.6800  -28.2010   26.8770 N.am   33  TYR33      -0.1962
      9  CA         1.9950  -28.0720   26.3020 C.3    33  TYR33       0.1771
     10  C          3.0260  -28.6680   27.2450 C.2    33  TYR33       0.2619
     11  O          2.7830  -28.8520   28.4590 O.2    33  TYR33      -0.2715
     12  CB         2.2980  -26.5810   25.9530 C.3    33  TYR33       0.0574
     13  CG         2.3600  -25.7300   27.1930 C.ar   33  TYR33      -0.0198
     14  CD1        1.2420  -25.0490   27.6130 C.ar   33  TYR33      -0.0009
     15  CD2        3.5310  -25.6800   28.0010 C.ar   33  TYR33      -0.0009
     16  CE1        1.2510  -24.3050   28.7680 C.ar   33  TYR33       0.0417
     17  CE2        3.5560  -24.9420   29.1800 C.ar   33  TYR33       0.0417
     18  CZ         2.3870  -24.2400   29.5500 C.ar   33  TYR33       0.1957
     19  OH         2.2970  -23.4650   30.6870 O.3    33  TYR33      -0.2866
     20  N          4.1830  -28.9310   26.6530 N.am   34  PHE34      -0.1974
     21  CA         5.3600  -29.4360   27.3440 C.3    34  PHE34       0.1639
     22  C          6.5720  -28.7870   26.7300 C.2    34  PHE34       0.2290
     23  O          6.6920  -28.6480   25.4990 O.2    34  PHE34      -0.2864
     24  CB         5.4560  -30.9670   27.2080 C.3    34  PHE34       0.0560
     25  CG         6.8120  -31.5330   27.5690 C.ar   34  PHE34      -0.0200
     26  CD1        7.7370  -31.8530   26.5770 C.ar   34  PHE34      -0.0042
     27  CD2        7.1650  -31.7490   28.8960 C.ar   34  PHE34      -0.0042
     28  CE1        8.9950  -32.3780   26.9000 C.ar   34  PHE34      -0.0003
     29  CE2        8.4200  -32.2850   29.2260 C.ar   34  PHE34      -0.0003
     30  CZ         9.3320  -32.5900   28.2230 C.ar   34  PHE34      -0.0000
     31  N          6.5030  -28.9130   22.6690 N.3    45  LEU45      -0.1231
     32  CA         5.3920  -29.5980   22.0220 C.3    45  LEU45       0.1693
     33  C          4.0900  -29.0710   22.6150 C.2    45  LEU45       0.2592
     34  O          4.0100  -28.7900   23.8230 O.2    45  LEU45      -0.2718
     35  CB         5.4710  -31.0990   22.2970 C.3    45  LEU45       0.0284
     36  CG         6.6170  -31.9450   21.6950 C.3    45  LEU45       0.0019
     37  CD1        7.9860  -31.3260   21.9370 C.3    45  LEU45       0.0001
     38  CD2        6.6070  -33.4090   22.2270 C.3    45  LEU45       0.0001
     39  N          3.0570  -28.9520   21.7850 N.am   46  ALA46      -0.1966
     40  CA         1.7880  -28.3950   22.2510 C.3    46  ALA46       0.1728
     41  C          0.6200  -28.9420   21.4500 C.2    46  ALA46       0.2616
     42  O          0.7520  -29.2840   20.2540 O.2    46  ALA46      -0.2715
     43  CB         1.8030  -26.7750   22.1720 C.3    46  ALA46       0.0334
     44  N         -0.5370  -29.0010   22.0970 N.am   47  TYR47      -0.1974
     45  CA        -1.7220  -29.4140   21.3840 C.3    47  TYR47       0.1639
     46  C         -2.8250  -28.4360   21.7080 C.2    47  TYR47       0.2290
     47  O         -3.0670  -28.0870   22.8850 O.2    47  TYR47      -0.2864
     48  CB        -2.1350  -30.8300   21.7260 C.3    47  TYR47       0.0560
     49  CG        -3.3150  -31.3570   20.9070 C.ar   47  TYR47      -0.0198
     50  CD1       -4.6000  -31.4790   21.4660 C.ar   47  TYR47      -0.0009
     51  CD2       -3.1270  -31.7850   19.5900 C.ar   47  TYR47      -0.0009
     52  CE1       -5.6790  -31.9940   20.7060 C.ar   47  TYR47       0.0417
     53  CE2       -4.1660  -32.3060   18.8380 C.ar   47  TYR47       0.0417
     54  CZ        -5.4420  -32.3870   19.3850 C.ar   47  TYR47       0.1957
     55  OH        -6.4360  -32.9330   18.6110 O.3    47  TYR47      -0.2866
     56  N        -14.6520  -27.2080   13.6170 N.3    63  TRP63      -0.1241
     57  CA       -13.5820  -27.1240   14.6040 C.3    63  TRP63       0.1605
     58  C        -12.2480  -27.5150   13.9790 C.2    63  TRP63       0.2264
     59  O        -12.2080  -28.0720   12.8940 O.2    63  TRP63      -0.2867
     60  CB       -13.8880  -27.9980   15.8270 C.3    63  TRP63       0.0550
     61  CG       -14.0150  -29.4880   15.5470 C.ar   63  TRP63       0.0003
     62  CD1      -15.1430  -30.1570   15.0250 C.ar   63  TRP63       0.0946
     63  CD2      -13.0140  -30.5100   15.7700 C.ar   63  TRP63       0.0152
     64  NE1      -14.8690  -31.5180   14.9140 N.ar   63  TRP63      -0.2442
     65  CE2      -13.5860  -31.7630   15.3610 C.ar   63  TRP63       0.0810
     66  CE3      -11.6960  -30.4970   16.2720 C.ar   63  TRP63       0.0012
     67  CZ2      -12.8760  -32.9850   15.4540 C.ar   63  TRP63       0.0191
     68  CZ3      -10.9890  -31.7110   16.3590 C.ar   63  TRP63       0.0001
     69  CH2      -11.5900  -32.9520   15.9490 C.ar   63  TRP63       0.0015
     70  N         -8.0080  -28.9110   15.1770 N.3    65  ASP65      -0.1239
     71  CA        -6.9600  -29.0930   16.1550 C.3    65  ASP65       0.1674
     72  C         -5.6340  -28.6930   15.5440 C.2    65  ASP65       0.2266
     73  O         -5.5030  -28.5020   14.3260 O.2    65  ASP65      -0.2867
     74  CB        -6.9390  -30.5150   16.7530 C.3    65  ASP65       0.1410
     75  CG        -6.4860  -31.5560   15.7770 C.2    65  ASP65       0.3668
     76  OD1       -6.2280  -32.7000   16.2350 O.co2  65  ASP65      -0.2456
     77  OD2       -6.3730  -31.2530   14.5700 O.co2  65  ASP65      -0.2456
     78  N         -1.7950  -29.6320   16.3940 N.3    67  PRO67      -0.2102
     79  CA        -0.5860  -30.1020   17.0790 C.3    67  PRO67       0.1504
     80  C          0.6080  -29.2760   16.6330 C.2    67  PRO67       0.2575
     81  O          0.6850  -28.8310   15.4750 O.2    67  PRO67      -0.2718
     82  CB        -0.4110  -31.5480   16.5700 C.3    67  PRO67       0.0282
     83  CG        -1.1860  -31.6030   15.2630 C.3    67  PRO67       0.0208
     84  CD        -2.3400  -30.6330   15.4500 C.3    67  PRO67       0.0893
     85  N          1.5620  -29.1200   17.5310 N.am   68  GLU68      -0.1980
     86  CA         2.6970  -28.2790   17.2360 C.3    68  GLU68       0.1602
     87  C          4.0420  -28.7580   17.8060 C.2    68  GLU68       0.2287
     88  O          4.1150  -29.2130   18.9370 O.2    68  GLU68      -0.2864
     89  CB         2.4220  -26.8800   17.7780 C.3    68  GLU68       0.0415
     90  CG         3.5500  -25.8910   17.5030 C.3    68  GLU68       0.1163
     91  CD         3.1900  -24.4960   17.9570 C.2    68  GLU68       0.3649
     92  OE1        2.6500  -24.3540   19.0760 O.co2  68  GLU68      -0.2457
     93  OE2        3.4400  -23.5450   17.1900 O.co2  68  GLU68      -0.2457
     94  N          0.4680  -28.6910   12.3910 N.3    91  ASN91      -0.1240
     95  CA        -0.6300  -29.1120   11.5140 C.3    91  ASN91       0.1653
     96  C         -1.9650  -28.4370   11.9370 C.2    91  ASN91       0.2266
     97  O         -2.2660  -28.3310   13.1330 O.2    91  ASN91      -0.2867
     98  CB        -0.7810  -30.6520   11.4770 C.3    91  ASN91       0.1155
     99  CG        -1.7460  -31.1060   10.3810 C.2    91  ASN91       0.2627
    100  OD1       -1.4490  -30.9760    9.1880 O.2    91  ASN91      -0.2716
    101  ND2       -2.9230  -31.5990   10.7800 N.am   91  ASN91      -0.0877
    102  N         -5.6500  -29.3190   11.5200 N.3    93  GLY93      -0.1225
    103  CA        -6.5170  -30.3980   11.0580 C.3    93  GLY93       0.1811
    104  C         -7.9580  -29.9330   11.1790 C.2    93  GLY93       0.2280
    105  O         -8.5360  -29.9890   12.2550 O.2    93  GLY93      -0.2866
    106  N        -12.0290  -29.7410   10.6750 N.3    95  HIS95      -0.1241
    107  CA       -13.2200  -30.5490   10.4520 C.3    95  HIS95       0.1621
    108  C        -14.4120  -29.6250   10.1830 C.2    95  HIS95       0.2264
    109  O        -14.9400  -28.9850   11.0910 O.2    95  HIS95      -0.2867
    110  CB       -13.4660  -31.4400   11.6610 C.3    95  HIS95       0.0745
    111  CG       -12.3010  -32.3270   11.9920 C.ar   95  HIS95       0.0817
    112  ND1      -12.2250  -33.6400   11.5820 N.ar   95  HIS95      -0.2268
    113  CD2      -11.1500  -32.0780   12.6670 C.ar   95  HIS95       0.1154
    114  CE1      -11.0870  -34.1670   12.0000 C.ar   95  HIS95       0.1986
    115  NE2      -10.4210  -33.2430   12.6660 N.ar   95  HIS95      -0.2212
    116  N         -6.0820  -30.8400    6.0860 N.3   106  ASN106     -0.1240
    117  CA        -4.8380  -30.7990    6.8270 C.3   106  ASN106      0.1653
    118  C         -3.9210  -29.8390    6.1250 C.2   106  ASN106      0.2266
    119  O         -3.5110  -30.0770    4.9850 O.2   106  ASN106     -0.2867
    120  CB        -4.2080  -32.1850    6.9270 C.3   106  ASN106      0.1155
    121  CG        -5.0590  -33.1370    7.7320 C.2   106  ASN106      0.2627
    122  OD1       -5.7220  -34.0070    7.1810 O.2   106  ASN106     -0.2716
    123  ND2       -5.0640  -32.9640    9.0330 N.am  106  ASN106     -0.0877
@<TRIPOS>BOND
     1   119   118    2
     2   116   117    1
     3   118   117    1
     4   117   120    1
     5   120   121    1
     6   122   121    2
     7   121   123   am
     8   100    99    2
     9   108   107    1
    10   108   109    2
    11    99   101   am
    12    99    98    1
    13   107   106    1
    14   107   110    1
    15   103   104    1
    16   103   102    1
    17   104   105    2
    18    98    95    1
    19    95    96    1
    20    95    94    1
    21   112   111   ar
    22   112   114   ar
    23   110   111    1
    24    96    97    2
    25   111   113   ar
    26   114   115   ar
    27   115   113   ar
    28    59    58    2
    29    56    57    1
    30    58    57    1
    31    73    72    2
    32    77    75   ar
    33    57    60    1
    34    64    62   ar
    35    64    65   ar
    36    62    61   ar
    37    70    71    1
    38    83    84    1
    39    83    82    1
    40    65    67   ar
    41    65    63   ar
    42    84    78    1
    43    67    69   ar
    44    81    80    2
    45    72    71    1
    46    61    63   ar
    47    61    60    1
    48    63    66   ar
    49    75    76   ar
    50    75    74    1
    51    69    68   ar
    52    71    74    1
    53    66    68   ar
    54    78    79    1
    55    82    79    1
    56    80    79    1
    57    80    85   am
    58    93    91   ar
    59    86    85    1
    60    86    89    1
    61    86    87    1
    62    90    89    1
    63    90    91    1
    64    87    88    2
    65    91    92   ar
    66    55    54    1
    67    53    54   ar
    68    53    51   ar
    69    54    52   ar
    70    51    49   ar
    71    42    41    2
    72    52    50   ar
    73    49    50   ar
    74    49    48    1
    75    45    46    1
    76    45    48    1
    77    45    44    1
    78    41    44   am
    79    41    40    1
    80    36    37    1
    81    36    38    1
    82    36    35    1
    83    46    47    2
    84    39    40    1
    85    39    33   am
    86    32    35    1
    87    32    33    1
    88    32    31    1
    89    43    40    1
    90    33    34    2
    91     4     3    2
    92    23    22    2
    93     7     5    1
    94     1     2    1
    95    12     9    1
    96    12    13    1
    97     3     2    1
    98     3     8   am
    99     9     8    1
   100     9    10    1
   101    26    28   ar
   102    26    25   ar
   103    20    10   am
   104    20    21    1
   105     2     5    1
   106    22    21    1
   107    28    30   ar
   108     5     6    1
   109    13    14   ar
   110    13    15   ar
   111    24    21    1
   112    24    25    1
   113    10    11    2
   114    25    27   ar
   115    14    16   ar
   116    15    17   ar
   117    30    29   ar
   118    16    18   ar
   119    27    29   ar
   120    17    18   ar
   121    18    19    1
