@<TRIPOS>MOLECULE
tmp/2x9lA00.pdb
 159 154 0 0 0
SMALL
GASTEIGER

@<TRIPOS>ATOM
      1  N          0.6160   33.7710   37.6220 N.3     9  HIS9       -0.1241
      2  CA         1.1510   34.8820   38.4020 C.3     9  HIS9        0.1621
      3  C          2.6500   34.8140   38.4920 C.2     9  HIS9        0.2264
      4  O          3.2570   33.8060   38.1370 O.2     9  HIS9       -0.2867
      5  CB         0.5990   34.8730   39.8340 C.3     9  HIS9        0.0745
      6  CG        -0.8890   34.9960   39.9020 C.ar    9  HIS9        0.0817
      7  ND1       -1.6990   34.0040   40.4160 N.ar    9  HIS9       -0.2268
      8  CD2       -1.7170   35.9880   39.5060 C.ar    9  HIS9        0.1154
      9  CE1       -2.9600   34.3830   40.3300 C.ar    9  HIS9        0.1986
     10  NE2       -2.9970   35.5870   39.7910 N.ar    9  HIS9       -0.2212
     11  N          5.3200   33.8530   40.1280 N.3    11  ASP11      -0.1225
     12  CA         5.8650   32.8500   41.0550 C.3    11  ASP11       0.1805
     13  C          5.3250   31.4430   40.8040 C.2    11  ASP11       0.2597
     14  O          5.9290   30.4580   41.2270 O.2    11  ASP11      -0.2718
     15  CB         5.7080   33.2080   42.5350 C.3    11  ASP11       0.1424
     16  CG         4.2660   33.2640   42.9940 C.2    11  ASP11       0.3668
     17  OD1        3.3380   33.1310   42.1630 O.co2  11  ASP11      -0.2456
     18  OD2        4.0670   33.4680   44.2150 O.co2  11  ASP11      -0.2456
     19  N          4.2180   31.3370   40.0800 N.am   12  ASP12      -0.1974
     20  CA         3.5780   30.0260   39.9510 C.3    12  ASP12       0.1709
     21  C          4.4450   28.9890   39.2490 C.2    12  ASP12       0.2293
     22  O          4.5080   27.8480   39.6910 O.2    12  ASP12      -0.2864
     23  CB         2.2400   30.1240   39.2340 C.3    12  ASP12       0.1436
     24  CG         1.1740   30.7970   40.0700 C.2    12  ASP12       0.3671
     25  OD1        0.9080   30.3420   41.2040 O.co2  12  ASP12      -0.2456
     26  OD2        0.5770   31.7640   39.5590 O.co2  12  ASP12      -0.2456
     27  N          2.2200   41.4470   51.5520 N.3    55  TRP55      -0.1241
     28  CA         3.4270   41.2430   50.7690 C.3    55  TRP55       0.1605
     29  C          4.5840   42.0940   51.2700 C.2    55  TRP55       0.2264
     30  O          5.6130   42.1560   50.6240 O.2    55  TRP55      -0.2867
     31  CB         3.1830   41.5510   49.2950 C.3    55  TRP55       0.0550
     32  CG         2.2500   40.5740   48.6350 C.ar   55  TRP55       0.0003
     33  CD1        2.0180   39.2840   49.0090 C.ar   55  TRP55       0.0946
     34  CD2        1.4370   40.8110   47.4760 C.ar   55  TRP55       0.0152
     35  NE1        1.1040   38.7020   48.1600 N.ar   55  TRP55      -0.2442
     36  CE2        0.7380   39.6160   47.2080 C.ar   55  TRP55       0.0810
     37  CE3        1.2390   41.9160   46.6340 C.ar   55  TRP55       0.0012
     38  CZ2       -0.1500   39.4940   46.1400 C.ar   55  TRP55       0.0191
     39  CZ3        0.3470   41.7910   45.5720 C.ar   55  TRP55       0.0001
     40  CH2       -0.3330   40.5880   45.3370 C.ar   55  TRP55       0.0015
     41  N          7.1900   42.7070   42.1670 N.3    67  ARG67      -0.1245
     42  CA         7.0800   41.2830   41.8290 C.3    67  ARG67       0.1563
     43  C          7.7560   40.9420   40.5070 C.2    67  ARG67       0.2260
     44  O          8.3270   39.8670   40.3480 O.2    67  ARG67      -0.2867
     45  CB         5.6140   40.8420   41.8000 C.3    67  ARG67       0.0307
     46  CG         4.9170   40.9790   43.1370 C.3    67  ARG67       0.0489
     47  CD         3.5210   40.3600   43.0830 C.3    67  ARG67       0.2205
     48  NE         3.5710   38.9110   42.9100 N.pl3  67  ARG67      -0.0865
     49  CZ         2.4860   38.1360   42.8820 C.cat  67  ARG67       0.5346
     50  NH1        1.2800   38.6870   42.9940 N.pl3  67  ARG67       0.1354
     51  NH2        2.5990   36.8270   42.7310 N.pl3  67  ARG67       0.1354
     52  N         -3.6000   41.3340   37.4490 N.3    89  ASP89      -0.1225
     53  CA        -3.9220   40.4190   38.5420 C.3    89  ASP89       0.1805
     54  C         -5.3510   40.6690   39.0170 C.2    89  ASP89       0.2598
     55  O         -5.8590   41.7740   38.9110 O.2    89  ASP89      -0.2718
     56  CB        -2.9470   40.6750   39.6930 C.3    89  ASP89       0.1424
     57  CG        -2.8740   39.5300   40.6940 C.2    89  ASP89       0.3668
     58  OD1       -3.5220   38.4830   40.5120 O.co2  89  ASP89      -0.2456
     59  OD2       -2.1370   39.6870   41.6860 O.co2  89  ASP89      -0.2456
     60  N         -5.9840   39.6350   39.5500 N.am   90  SER90      -0.1938
     61  CA        -7.3820   39.6960   39.9590 C.3    90  SER90       0.2055
     62  C         -7.6930   40.8690   40.8930 C.2    90  SER90       0.2642
     63  O         -8.7850   41.4520   40.8190 O.2    90  SER90      -0.2714
     64  CB        -7.8160   38.3860   40.6070 C.3    90  SER90       0.2130
     65  OG        -7.1640   38.1800   41.8510 O.3    90  SER90      -0.2179
     66  N         -6.7440   41.2170   41.7540 N.am   91  ILE91      -0.1977
     67  CA        -6.9800   42.2900   42.7140 C.3    91  ILE91       0.1596
     68  C         -6.9870   43.6900   42.0910 C.2    91  ILE91       0.2287
     69  O         -7.2750   44.6710   42.7730 O.2    91  ILE91      -0.2864
     70  CB        -5.9530   42.2890   43.8650 C.3    91  ILE91       0.0276
     71  CG1       -4.5220   42.3190   43.3100 C.3    91  ILE91       0.0022
     72  CG2       -6.1570   41.0890   44.7760 C.3    91  ILE91       0.0022
     73  CD1       -3.4520   42.5650   44.4090 C.3    91  ILE91       0.0001
     74  N        -12.4950   41.7000   42.9320 N.3   102  THR102     -0.1218
     75  CA       -12.2680   40.9900   44.1760 C.3   102  THR102      0.1862
     76  C        -12.5490   41.8630   45.4010 C.2   102  THR102      0.2287
     77  O        -12.3120   43.0600   45.3860 O.2   102  THR102     -0.2866
     78  CB       -10.8360   40.4000   44.2300 C.3   102  THR102      0.1770
     79  OG1       -9.8830   41.4600   44.2490 O.3   102  THR102     -0.2211
     80  CG2      -10.5790   39.5220   43.0080 C.3   102  THR102      0.0375
     81  N        -12.1400   36.8490   47.9320 N.3   104  ALA104     -0.1231
     82  CA       -13.4540   36.5190   47.4000 C.3   104  ALA104      0.1694
     83  C        -13.6950   37.2480   46.0950 C.2   104  ALA104      0.2591
     84  O        -13.2320   38.3690   45.9040 O.2   104  ALA104     -0.2718
     85  CB       -14.5450   36.8750   48.4070 C.3   104  ALA104      0.0304
     86  N        -14.4440   36.6140   45.2070 N.am  105  VAL105     -0.1980
     87  CA       -14.7390   37.1960   43.9090 C.3   105  VAL105      0.1595
     88  C        -16.1790   37.6660   43.8880 C.2   105  VAL105      0.2287
     89  O        -17.0690   36.9230   44.3010 O.2   105  VAL105     -0.2864
     90  CB       -14.5080   36.1580   42.7970 C.3   105  VAL105      0.0276
     91  CG1      -14.9120   36.7080   41.4490 C.3   105  VAL105      0.0022
     92  CG2      -13.0420   35.7150   42.7940 C.3   105  VAL105      0.0022
     93  N         -7.0540   24.2640   42.9530 N.3   143  GLY143     -0.1210
     94  CA        -7.2440   25.3670   43.8790 C.3   143  GLY143      0.1956
     95  C         -8.2600   26.3680   43.3710 C.2   143  GLY143      0.2612
     96  O         -8.7900   27.1700   44.1470 O.2   143  GLY143     -0.2717
     97  N         -8.5100   26.3360   42.0640 N.am  144  GLU144     -0.1965
     98  CA        -9.5980   27.1130   41.4620 C.3   144  GLU144      0.1733
     99  C         -9.4370   28.6310   41.4820 C.2   144  GLU144      0.2616
    100  O        -10.4240   29.3560   41.3470 O.2   144  GLU144     -0.2715
    101  CB       -10.9280   26.7340   42.1140 C.3   144  GLU144      0.0429
    102  CG       -11.2600   25.2780   41.9680 C.3   144  GLU144      0.1163
    103  CD       -12.6040   24.9380   42.5700 C.2   144  GLU144      0.3649
    104  OE1      -12.6470   24.6530   43.7850 O.co2 144  GLU144     -0.2457
    105  OE2      -13.6100   24.9740   41.8320 O.co2 144  GLU144     -0.2457
    106  N         -8.2080   29.1230   41.6210 N.am  145  HIS145     -0.1960
    107  CA        -7.9750   30.5570   41.4610 C.3   145  HIS145      0.1772
    108  C         -8.4250   30.9650   40.0580 C.2   145  HIS145      0.2462
    109  O         -8.0400   30.3310   39.0710 O.2   145  HIS145     -0.2730
    110  CB        -6.4960   30.9130   41.6650 C.3   145  HIS145      0.0785
    111  CG        -6.2440   32.3900   41.7190 C.ar  145  HIS145      0.0821
    112  ND1       -5.6050   33.0030   42.7760 N.ar  145  HIS145     -0.2267
    113  CD2       -6.5910   33.3790   40.8650 C.ar  145  HIS145      0.1154
    114  CE1       -5.5540   34.3070   42.5620 C.ar  145  HIS145      0.1986
    115  NE2       -6.1440   34.5610   41.4050 N.ar  145  HIS145     -0.2212
    116  N         -9.2500   32.0200   39.9530 N.am  146  PRO146     -0.2727
    117  CA        -9.7970   32.3660   38.6320 C.3   146  PRO146      0.1402
    118  C         -8.7240   32.7460   37.6060 C.2   146  PRO146      0.2269
    119  O         -8.9400   32.5230   36.4100 O.2   146  PRO146     -0.2865
    120  CB       -10.6920   33.5820   38.9160 C.3   146  PRO146      0.0296
    121  CG       -10.2330   34.1070   40.2500 C.3   146  PRO146      0.0237
    122  CD        -9.7370   32.9170   41.0160 C.3   146  PRO146      0.0939
    123  N         -0.8320   24.9590   46.2690 N.3   174  TYR174     -0.1241
    124  CA        -2.2790   24.7250   46.3640 C.3   174  TYR174      0.1605
    125  C         -2.6300   23.2490   46.5160 C.2   174  TYR174      0.2264
    126  O         -3.5460   22.8950   47.2580 O.2   174  TYR174     -0.2867
    127  CB        -3.0000   25.2710   45.1360 C.3   174  TYR174      0.0534
    128  CG        -2.8550   26.7560   44.9480 C.ar  174  TYR174     -0.0201
    129  CD1       -1.7230   27.2960   44.3410 C.ar  174  TYR174     -0.0009
    130  CD2       -3.8640   27.6230   45.3490 C.ar  174  TYR174     -0.0009
    131  CE1       -1.5920   28.6620   44.1610 C.ar  174  TYR174      0.0417
    132  CE2       -3.7450   28.9960   45.1690 C.ar  174  TYR174      0.0417
    133  CZ        -2.6080   29.5050   44.5740 C.ar  174  TYR174      0.1957
    134  OH        -2.4840   30.8680   44.3920 O.3   174  TYR174     -0.2866
    135  N          6.2160   37.0960   48.6810 N.3   215  GLN215     -0.1245
    136  CA         5.2030   36.0550   48.7710 C.3   215  GLN215      0.1566
    137  C          5.4820   35.0970   49.9310 C.2   215  GLN215      0.2260
    138  O          4.6590   34.2490   50.2460 O.2   215  GLN215     -0.2867
    139  CB         5.1290   35.2770   47.4510 C.3   215  GLN215      0.0367
    140  CG         4.8960   36.1570   46.2370 C.3   215  GLN215      0.0905
    141  CD         3.6210   36.9630   46.3500 C.2   215  GLN215      0.2608
    142  OE1        2.5370   36.4080   46.5480 O.2   215  GLN215     -0.2717
    143  NE2        3.7460   38.2920   46.2640 N.am  215  GLN215     -0.0878
    144  N          2.9750   34.8730   52.9400 N.3   217  LEU217     -0.1231
    145  CA         1.7310   34.3000   52.4280 C.3   217  LEU217      0.1693
    146  C          1.8690   32.7990   52.1700 C.2   217  LEU217      0.2591
    147  O          1.0240   32.0020   52.5970 O.2   217  LEU217     -0.2718
    148  CB         1.2950   35.0300   51.1470 C.3   217  LEU217      0.0284
    149  CG         0.0120   34.5860   50.4290 C.3   217  LEU217      0.0019
    150  CD1       -1.2270   34.9460   51.2380 C.3   217  LEU217      0.0001
    151  CD2       -0.0870   35.2050   49.0390 C.3   217  LEU217      0.0001
    152  N          2.9420   32.4210   51.4770 N.am  218  LEU218     -0.1980
    153  CA         3.1430   31.0320   51.0680 C.3   218  LEU218      0.1596
    154  C          3.5130   30.1140   52.2310 C.2   218  LEU218      0.2287
    155  O          3.1510   28.9410   52.2360 O.2   218  LEU218     -0.2864
    156  CB         4.2150   30.9390   49.9800 C.3   218  LEU218      0.0297
    157  CG         3.7890   31.1700   48.5190 C.3   218  LEU218      0.0022
    158  CD1        2.7100   32.2160   48.3930 C.3   218  LEU218      0.0001
    159  CD2        5.0010   31.5190   47.6640 C.3   218  LEU218      0.0001
@<TRIPOS>BOND
     1   119   118    2
     2    52    53    1
     3   118   117    1
     4     1     2    1
     5     4     3    2
     6     2     3    1
     7     2     5    1
     8    53    54    1
     9    53    56    1
    10   117   120    1
    11   117   116    1
    12    55    54    2
    13   120   121    1
    14    54    60   am
    15   109   108    2
    16    23    20    1
    17    23    24    1
    18    21    22    2
    19    21    20    1
    20     8    10   ar
    21     8     6   ar
    22    60    61    1
    23    26    24   ar
    24    56    57    1
    25    10     9   ar
    26     5     6    1
    27     6     7   ar
    28    20    19    1
    29   116   108   am
    30   116   122    1
    31    61    64    1
    32    61    62    1
    33   108   107    1
    34    24    25   ar
    35    19    13   am
    36    11    12    1
    37   121   122    1
    38     9     7   ar
    39    44    43    2
    40    43    42    1
    41    58    57   ar
    42    64    65    1
    43    57    59   ar
    44    13    12    1
    45    13    14    2
    46    63    62    2
    47   113   115   ar
    48   113   111   ar
    49    62    66   am
    50    12    15    1
    51   100    99    2
    52   115   114   ar
    53    91    90    1
    54   107   106    1
    55   107   110    1
    56    98    99    1
    57    98    97    1
    58    98   101    1
    59    99   106   am
    60   110   111    1
    61   111   112   ar
    62    66    67    1
    63    45    42    1
    64    45    46    1
    65    42    41    1
    66   105   103   ar
    67   102   101    1
    68   102   103    1
    69    97    95   am
    70    68    67    1
    71    68    69    2
    72    17    16   ar
    73    15    16    1
    74   114   112   ar
    75   103   104   ar
    76    67    70    1
    77    51    49    1
    78    92    90    1
    79    90    87    1
    80    49    48    2
    81    49    50    1
    82    48    47    1
    83    74    75    1
    84    93    94    1
    85    16    18   ar
    86    80    78    1
    87    47    46    1
    88    71    70    1
    89    71    73    1
    90    95    94    1
    91    95    96    2
    92    70    72    1
    93    88    87    1
    94    88    89    2
    95    87    86    1
    96   131   129   ar
    97   131   133   ar
    98    75    78    1
    99    75    76    1
   100    78    79    1
   101   129   128   ar
   102   134   133    1
   103   133   132   ar
   104   128   127    1
   105   128   130   ar
   106   127   124    1
   107   132   130   ar
   108    86    83   am
   109    40    39   ar
   110    40    38   ar
   111    77    76    2
   112    39    37   ar
   113    84    83    2
   114    83    82    1
   115    38    36   ar
   116   140   141    1
   117   140   139    1
   118   143   141   am
   119   123   124    1
   120   141   142    2
   121   124   125    1
   122   125   126    2
   123    37    34   ar
   124    36    34   ar
   125    36    35   ar
   126    82    81    1
   127    82    85    1
   128   139   136    1
   129    34    32   ar
   130   159   157    1
   131    35    33   ar
   132   158   157    1
   133   157   156    1
   134    32    33   ar
   135    32    31    1
   136   135   136    1
   137   136   137    1
   138   151   149    1
   139    31    28    1
   140   137   138    2
   141   156   153    1
   142   149   148    1
   143   149   150    1
   144    30    29    2
   145    28    29    1
   146    28    27    1
   147   153   152    1
   148   153   154    1
   149   148   145    1
   150   152   146   am
   151   146   145    1
   152   146   147    2
   153   154   155    2
   154   145   144    1
