@<TRIPOS>MOLECULE
tmp/2x9nB02.pdb
 107 104 0 0 0
SMALL
GASTEIGER

@<TRIPOS>ATOM
      1  N          9.4320  -11.7010   93.7970 N.3    96  PHE96      -0.1241
      2  CA        10.6640  -12.3700   93.5450 C.3    96  PHE96       0.1605
      3  C         10.3950  -13.7360   92.9150 C.2    96  PHE96       0.2264
      4  O          9.8840  -14.6390   93.5500 O.2    96  PHE96      -0.2867
      5  CB        11.4500  -12.5580   94.8520 C.3    96  PHE96       0.0534
      6  CG        12.6930  -13.4370   94.7820 C.ar   96  PHE96      -0.0203
      7  CD1       13.8770  -12.9200   94.3190 C.ar   96  PHE96      -0.0042
      8  CD2       12.7230  -14.7630   95.2000 C.ar   96  PHE96      -0.0042
      9  CE1       15.0480  -13.6250   94.2520 C.ar   96  PHE96      -0.0003
     10  CE2       13.8740  -15.5110   95.1060 C.ar   96  PHE96      -0.0003
     11  CZ        15.0590  -14.9420   94.6440 C.ar   96  PHE96      -0.0000
     12  N         19.2820   -5.5330   97.9610 N.3   141  ASP141     -0.1239
     13  CA        19.7600   -6.9000   97.8070 C.3   141  ASP141      0.1674
     14  C         21.2570   -6.8250   97.6880 C.2   141  ASP141      0.2266
     15  O         21.7880   -6.1810   96.8000 O.2   141  ASP141     -0.2867
     16  CB        19.0690   -7.5450   96.6280 C.3   141  ASP141      0.1410
     17  CG        19.3390   -9.0270   96.5250 C.2   141  ASP141      0.3668
     18  OD1       20.4520   -9.4490   96.9270 O.co2 141  ASP141     -0.2456
     19  OD2       18.4550   -9.7130   96.0090 O.co2 141  ASP141     -0.2456
     20  N         23.3120   -8.9560   96.6930 N.3   143  MET143     -0.1245
     21  CA        23.7520   -9.7270   95.5690 C.3   143  MET143      0.1570
     22  C         23.3940   -9.1260   94.2060 C.2   143  MET143      0.2261
     23  O         23.4960   -9.7860   93.1930 O.2   143  MET143     -0.2867
     24  CB        23.2140  -11.1520   95.6820 C.3   143  MET143      0.0387
     25  CG        23.6870  -11.8280   96.9830 C.3   143  MET143      0.0595
     26  SD        25.4580  -12.0020   97.1390 S.3   143  MET143     -0.1393
     27  CE        25.7570  -13.3200   95.9770 C.3   143  MET143      0.0692
     28  N         21.1640  -13.8180   90.8540 N.3   148  CYS148     -0.1235
     29  CA        20.7030  -15.1660   90.6340 C.3   148  CYS148      0.1677
     30  C         20.3740  -15.3370   89.1480 C.2   148  CYS148      0.2270
     31  O         19.8320  -14.4500   88.4380 O.2   148  CYS148     -0.2867
     32  CB        19.4650  -15.5600   91.4550 C.3   148  CYS148      0.0956
     33  SG        19.6590  -15.6110   93.2410 S.3   148  CYS148     -0.0801
     34  N         13.7130   -9.0780   88.3330 N.3   154  TYR154     -0.1241
     35  CA        13.9300   -8.8380   89.7430 C.3   154  TYR154      0.1605
     36  C         15.1730   -7.9870   90.0000 C.2   154  TYR154      0.2264
     37  O         15.1880   -7.0210   90.7230 O.2   154  TYR154     -0.2867
     38  CB        14.0400  -10.1850   90.5080 C.3   154  TYR154      0.0534
     39  CG        14.4710   -9.9690   91.9510 C.ar  154  TYR154     -0.0201
     40  CD1       13.5940   -9.5210   92.9530 C.ar  154  TYR154     -0.0009
     41  CD2       15.8130  -10.2080   92.2950 C.ar  154  TYR154     -0.0009
     42  CE1       14.0720   -9.3590   94.2310 C.ar  154  TYR154      0.0417
     43  CE2       16.2700   -9.9940   93.5700 C.ar  154  TYR154      0.0417
     44  CZ        15.4060   -9.5660   94.5270 C.ar  154  TYR154      0.1957
     45  OH        15.8500   -9.3440   95.8300 O.3   154  TYR154     -0.2866
     46  N         21.6870  -10.5250  102.2190 N.3   185  GLY185     -0.1210
     47  CA        22.2320  -11.5470  101.3410 C.3   185  GLY185      0.1956
     48  C         21.2410  -12.6740  101.2580 C.2   185  GLY185      0.2612
     49  O         20.3240  -12.6630  100.4470 O.2   185  GLY185     -0.2717
     50  N         21.4140  -13.6390  102.1280 N.am  186  VAL186     -0.1965
     51  CA        20.3710  -14.6220  102.3790 C.3   186  VAL186      0.1727
     52  C         19.9040  -14.4190  103.7950 C.2   186  VAL186      0.2617
     53  O         20.6570  -14.3940  104.7840 O.2   186  VAL186     -0.2715
     54  CB        20.7250  -16.0550  102.1020 C.3   186  VAL186      0.0290
     55  CG1       21.0510  -16.2770  100.6360 C.3   186  VAL186      0.0023
     56  CG2       21.9100  -16.4710  102.8410 C.3   186  VAL186      0.0023
     57  N         18.5820  -14.2170  103.9290 N.am  187  SER187     -0.1936
     58  CA        17.8760  -14.1170  105.1770 C.3   187  SER187      0.2055
     59  C         16.8510  -15.2130  105.0910 C.2   187  SER187      0.2643
     60  O         17.1990  -16.2730  104.5660 O.2   187  SER187     -0.2714
     61  CB        17.3440  -12.7410  105.4130 C.3   187  SER187      0.2130
     62  OG        16.6440  -12.5930  106.6340 O.3   187  SER187     -0.2179
     63  N         15.6450  -14.9700  105.4820 N.am  188  LEU188     -0.1963
     64  CA        14.6490  -16.0210  105.5210 C.3   188  LEU188      0.1728
     65  C         14.4790  -16.5660  104.1180 C.2   188  LEU188      0.2616
     66  O         14.1310  -15.8000  103.2040 O.2   188  LEU188     -0.2715
     67  CB        13.3170  -15.4630  106.0050 C.3   188  LEU188      0.0311
     68  CG        13.2640  -15.0310  107.4450 C.3   188  LEU188      0.0022
     69  CD1       11.7810  -14.7680  107.8250 C.3   188  LEU188      0.0001
     70  CD2       13.9010  -16.0250  108.3790 C.3   188  LEU188      0.0001
     71  N         14.7530  -17.8640  103.9330 N.am  189  LEU189     -0.1964
     72  CA        14.7420  -18.2990  102.5420 C.3   189  LEU189      0.1713
     73  C         13.3230  -18.3980  102.0250 C.2   189  LEU189      0.2458
     74  O         12.3370  -18.5210  102.7770 O.2   189  LEU189     -0.2730
     75  CB        15.5260  -19.6160  102.5780 C.3   189  LEU189      0.0310
     76  CG        17.0320  -19.3260  102.8170 C.3   189  LEU189      0.0022
     77  CD1       17.8080  -20.4540  103.4270 C.3   189  LEU189      0.0001
     78  CD2       17.6400  -18.9610  101.4670 C.3   189  LEU189      0.0001
     79  N         13.1840  -18.3810  100.7020 N.am  190  PRO190     -0.2727
     80  CA        11.7910  -18.4370  100.1570 C.3   190  PRO190      0.1402
     81  C         11.0340  -19.6290  100.5840 C.2   190  PRO190      0.2269
     82  O         11.6060  -20.7060  100.6360 O.2   190  PRO190     -0.2865
     83  CB        11.9690  -18.3590   98.6220 C.3   190  PRO190      0.0296
     84  CG        13.4080  -18.0730   98.3750 C.3   190  PRO190      0.0237
     85  CD        14.1580  -18.4830   99.6030 C.3   190  PRO190      0.0939
     86  N         11.4170  -22.5130   98.2740 N.3   193  MET193     -0.1245
     87  CA        12.6940  -23.1550   98.0930 C.3   193  MET193      0.1570
     88  C         12.7780  -24.4860   98.8410 C.2   193  MET193      0.2261
     89  O         12.3880  -24.7110  100.0010 O.2   193  MET193     -0.2867
     90  CB        13.7910  -22.1940   98.5550 C.3   193  MET193      0.0387
     91  CG        15.1940  -22.6810   98.2280 C.3   193  MET193      0.0595
     92  SD        16.4570  -21.4720   98.6090 S.3   193  MET193     -0.1393
     93  CE        16.3030  -20.3570   97.2230 C.3   193  MET193      0.0692
     94  N         22.6830  -22.6290   99.9080 N.3   201  TRP201     -0.1241
     95  CA        22.8940  -21.1920  100.1620 C.3   201  TRP201      0.1605
     96  C         23.5360  -20.9440  101.5270 C.2   201  TRP201      0.2264
     97  O         24.4410  -20.1250  101.7060 O.2   201  TRP201     -0.2867
     98  CB        21.5860  -20.4150  100.0390 C.3   201  TRP201      0.0550
     99  CG        21.2600  -20.0490   98.6300 C.ar  201  TRP201      0.0003
    100  CD1       20.2630  -20.5710   97.8500 C.ar  201  TRP201      0.0946
    101  CD2       21.9590  -19.0610   97.8300 C.ar  201  TRP201      0.0152
    102  NE1       20.3240  -19.9330   96.6070 N.ar  201  TRP201     -0.2442
    103  CE2       21.3460  -19.0240   96.5740 C.ar  201  TRP201      0.0810
    104  CE3       23.0620  -18.2140   98.0640 C.ar  201  TRP201      0.0012
    105  CZ2       21.7810  -18.1730   95.5540 C.ar  201  TRP201      0.0191
    106  CZ3       23.4620  -17.3900   97.0400 C.ar  201  TRP201      0.0001
    107  CH2       22.8360  -17.3600   95.8110 C.ar  201  TRP201      0.0015
@<TRIPOS>BOND
     1    34    35    1
     2    31    30    2
     3    30    29    1
     4    35    36    1
     5    35    38    1
     6    36    37    2
     7    38    39    1
     8    29    28    1
     9    29    32    1
    10    32    33    1
    11    39    41   ar
    12    39    40   ar
    13    41    43   ar
    14     3     2    1
    15     3     4    2
    16    40    42   ar
    17    23    22    2
    18     2     1    1
    19     2     5    1
    20    43    44   ar
    21    22    21    1
    22    42    44   ar
    23     9     7   ar
    24     9    11   ar
    25     7     6   ar
    26    44    45    1
    27    11    10   ar
    28     6     5    1
    29     6     8   ar
    30    10     8   ar
    31   105   107   ar
    32   105   103   ar
    33    21    24    1
    34    21    20    1
    35    24    25    1
    36   107   106   ar
    37    27    26    1
    38    19    17   ar
    39    17    16    1
    40    17    18   ar
    41   103   102   ar
    42   103   101   ar
    43   102   100   ar
    44    16    13    1
    45    15    14    2
    46    25    26    1
    47   106   104   ar
    48    93    92    1
    49    14    13    1
    50    13    12    1
    51   101   104   ar
    52   101    99   ar
    53   100    99   ar
    54    87    86    1
    55    87    90    1
    56    87    88    1
    57    91    90    1
    58    91    92    1
    59    84    83    1
    60    84    85    1
    61    83    80    1
    62    99    98    1
    63    88    89    2
    64    85    79    1
    65    94    95    1
    66    98    95    1
    67    80    81    1
    68    80    79    1
    69    95    96    1
    70    49    48    2
    71    81    82    2
    72    55    54    1
    73    79    73   am
    74    48    47    1
    75    48    50   am
    76    47    46    1
    77    78    76    1
    78    96    97    2
    79    73    72    1
    80    73    74    2
    81    54    51    1
    82    54    56    1
    83    50    51    1
    84    51    52    1
    85    72    75    1
    86    72    71    1
    87    75    76    1
    88    76    77    1
    89    66    65    2
    90    52    57   am
    91    52    53    2
    92    57    58    1
    93    71    65   am
    94    65    64    1
    95    60    59    2
    96    59    58    1
    97    59    63   am
    98    58    61    1
    99    61    62    1
   100    63    64    1
   101    64    67    1
   102    67    68    1
   103    68    69    1
   104    68    70    1
