@<TRIPOS>MOLECULE
tmp/2x9vA01.pdb
 157 152 0 0 0
SMALL
GASTEIGER

@<TRIPOS>ATOM
      1  N         15.0360  -11.3250    4.8670 N.3    13  ARG13      -0.1245
      2  CA        13.6530  -11.3190    5.3080 C.3    13  ARG13       0.1563
      3  C         12.9390  -10.0410    4.8470 C.2    13  ARG13       0.2260
      4  O         13.0960   -9.6470    3.7030 O.2    13  ARG13      -0.2867
      5  CB        13.6140  -11.5860    6.8200 C.3    13  ARG13       0.0307
      6  CG        14.0950  -13.0080    7.1650 C.3    13  ARG13       0.0489
      7  CD        14.3560  -13.2220    8.6320 C.3    13  ARG13       0.2205
      8  NE        13.1670  -12.9770    9.4290 N.pl3  13  ARG13      -0.0865
      9  CZ        12.1600  -13.8280    9.6020 C.cat  13  ARG13       0.5346
     10  NH1       11.1190  -13.4590   10.3410 N.pl3  13  ARG13       0.1354
     11  NH2       12.1620  -15.0310    9.0480 N.pl3  13  ARG13       0.1354
     12  N         14.7900   -4.8380   14.2210 N.3    94  SER94      -0.1217
     13  CA        13.9630   -5.0560   15.3950 C.3    94  SER94       0.1889
     14  C         14.3730   -6.2990   16.1280 C.2    94  SER94       0.2288
     15  O         14.4060   -7.3800   15.5430 O.2    94  SER94      -0.2866
     16  CB        12.4970   -5.1780   14.9720 C.3    94  SER94       0.2089
     17  OG        11.6890   -5.7010   16.0070 O.3    94  SER94      -0.2183
     18  N         13.2490   -9.0310   18.9700 N.3    96  PHE96      -0.1227
     19  CA        11.9550   -9.6240   19.3190 C.3    96  PHE96       0.1736
     20  C         12.2140  -10.9150   20.0770 C.2    96  PHE96       0.2595
     21  O         12.7010  -11.8780   19.5030 O.2    96  PHE96      -0.2718
     22  CB        11.1510   -9.8990   18.0430 C.3    96  PHE96       0.0547
     23  CG         9.8660  -10.6840   18.2420 C.ar   96  PHE96      -0.0202
     24  CD1        9.7520  -11.9860   17.7930 C.ar   96  PHE96      -0.0042
     25  CD2        8.7560  -10.1030   18.8160 C.ar   96  PHE96      -0.0042
     26  CE1        8.5620  -12.6940   17.9610 C.ar   96  PHE96      -0.0003
     27  CE2        7.5780  -10.8120   18.9770 C.ar   96  PHE96      -0.0003
     28  CZ         7.4830  -12.1030   18.5260 C.ar   96  PHE96      -0.0000
     29  N         11.9100  -10.9160   21.3700 N.am   97  TYR97      -0.1976
     30  CA        12.0590  -12.0740   22.2290 C.3    97  TYR97       0.1639
     31  C         11.3160  -11.7890   23.5170 C.2    97  TYR97       0.2290
     32  O         11.0580  -10.6220   23.8400 O.2    97  TYR97      -0.2864
     33  CB        13.5320  -12.4030   22.4880 C.3    97  TYR97       0.0560
     34  CG        14.4060  -11.2970   23.0180 C.ar   97  TYR97      -0.0198
     35  CD1       14.3570  -10.9120   24.3600 C.ar   97  TYR97      -0.0009
     36  CD2       15.3280  -10.6630   22.1960 C.ar   97  TYR97      -0.0009
     37  CE1       15.1950   -9.9270   24.8560 C.ar   97  TYR97       0.0417
     38  CE2       16.1590   -9.6790   22.6790 C.ar   97  TYR97       0.0417
     39  CZ        16.1040   -9.3190   24.0200 C.ar   97  TYR97       0.1957
     40  OH        16.9480   -8.3420   24.5110 O.3    97  TYR97      -0.2866
     41  N          3.5170   -3.1620   14.1090 N.3   143  ASP143     -0.1239
     42  CA         3.0460   -4.5070   14.4330 C.3   143  ASP143      0.1674
     43  C          1.5360   -4.4140   14.5870 C.2   143  ASP143      0.2266
     44  O          1.0390   -3.7190   15.4770 O.2   143  ASP143     -0.2867
     45  CB         3.7400   -5.0140   15.7080 C.3   143  ASP143      0.1410
     46  CG         3.4060   -6.4440   16.0570 C.2   143  ASP143      0.3668
     47  OD1        2.3410   -6.9460   15.6540 O.co2 143  ASP143     -0.2456
     48  OD2        4.2290   -7.0770   16.7560 O.co2 143  ASP143     -0.2456
     49  N          1.6140  -10.8970   21.9570 N.3   150  CYS150     -0.1235
     50  CA         2.0780  -12.2020   22.4120 C.3   150  CYS150      0.1677
     51  C          2.3260  -12.1570   23.9300 C.2   150  CYS150      0.2270
     52  O          2.8790  -11.1970   24.4700 O.2   150  CYS150     -0.2867
     53  CB         3.3450  -12.6330   21.6570 C.3   150  CYS150      0.0956
     54  SG         3.1380  -12.9130   19.8640 S.3   150  CYS150     -0.0801
     55  N          5.7240  -10.7900   26.1770 N.3   153  PHE153     -0.1241
     56  CA         6.5210   -9.8840   25.3210 C.3   153  PHE153      0.1605
     57  C          6.3350   -8.4200   25.6830 C.2   153  PHE153      0.2264
     58  O          6.2670   -7.5440   24.8150 O.2   153  PHE153     -0.2867
     59  CB         6.1870  -10.1160   23.8360 C.3   153  PHE153      0.0534
     60  CG         6.8090  -11.3520   23.2390 C.ar  153  PHE153     -0.0203
     61  CD1        6.2720  -12.6040   23.4810 C.ar  153  PHE153     -0.0042
     62  CD2        7.9010  -11.2640   22.3940 C.ar  153  PHE153     -0.0042
     63  CE1        6.8300  -13.7640   22.9210 C.ar  153  PHE153     -0.0003
     64  CE2        8.4420  -12.4010   21.8110 C.ar  153  PHE153     -0.0003
     65  CZ         7.9130  -13.6500   22.0780 C.ar  153  PHE153     -0.0000
     66  N          9.0970   -5.7960   24.2830 N.3   156  TYR156     -0.1241
     67  CA         8.9110   -5.7040   22.8370 C.3   156  TYR156      0.1605
     68  C          7.6670   -4.8720   22.4950 C.2   156  TYR156      0.2264
     69  O          7.7210   -3.9580   21.6670 O.2   156  TYR156     -0.2867
     70  CB         8.7970   -7.0980   22.2090 C.3   156  TYR156      0.0534
     71  CG         8.2930   -7.0330   20.7900 C.ar  156  TYR156     -0.0201
     72  CD1        9.1330   -6.6570   19.7490 C.ar  156  TYR156     -0.0009
     73  CD2        6.9570   -7.2440   20.5100 C.ar  156  TYR156     -0.0009
     74  CE1        8.6520   -6.5420   18.4510 C.ar  156  TYR156      0.0417
     75  CE2        6.4670   -7.1370   19.2270 C.ar  156  TYR156      0.0417
     76  CZ         7.3060   -6.7590   18.2030 C.ar  156  TYR156      0.1957
     77  OH         6.8420   -6.6380   16.9170 O.3   156  TYR156     -0.2866
     78  N          7.1680   -1.3440   20.3720 N.3   160  LYS160     -0.1245
     79  CA         6.3520   -1.1250   19.1870 C.3   160  LYS160      0.1561
     80  C          5.2800   -0.0530   19.4340 C.2   160  LYS160      0.2260
     81  O          4.9800    0.7320   18.5470 O.2   160  LYS160     -0.2867
     82  CB         5.7260   -2.4210   18.6700 C.3   160  LYS160      0.0271
     83  CG         6.7300   -3.3690   18.0000 C.3   160  LYS160      0.0035
     84  CD         7.4320   -2.7340   16.8020 C.3   160  LYS160      0.0206
     85  CE         8.0800   -3.7970   15.9430 C.3   160  LYS160      0.1093
     86  NZ         8.9860   -3.2250   14.9090 N.3   160  LYS160     -0.1314
     87  N          1.0310   -8.5400   10.4930 N.3   187  GLY187     -0.1210
     88  CA         0.4430   -9.4490   11.4900 C.3   187  GLY187      0.1956
     89  C          1.3880  -10.6010   11.6840 C.2   187  GLY187      0.2612
     90  O          2.3010  -10.5370   12.5070 O.2   187  GLY187     -0.2717
     91  N          1.1900  -11.6520   10.9090 N.am  188  VAL188     -0.1965
     92  CA         2.2120  -12.6750   10.8080 C.3   188  VAL188      0.1727
     93  C          2.6950  -12.6750    9.3720 C.2   188  VAL188      0.2617
     94  O          1.9260  -12.7610    8.4100 O.2   188  VAL188     -0.2715
     95  CB         1.7440  -14.0440   11.3360 C.3   188  VAL188      0.0290
     96  CG1        0.6800  -14.5950   10.4620 C.3   188  VAL188      0.0023
     97  CG2        2.9090  -15.0120   11.4830 C.3   188  VAL188      0.0023
     98  N          3.9880  -12.4600    9.2440 N.am  189  SER189     -0.1936
     99  CA         4.6800  -12.5650    7.9840 C.3   189  SER189      0.2055
    100  C          5.6920  -13.6690    8.1910 C.2   189  SER189      0.2643
    101  O          5.3600  -14.7000    8.8120 O.2   189  SER189     -0.2714
    102  CB         5.2740  -11.1990    7.6040 C.3   189  SER189      0.2130
    103  OG         5.9890  -11.2160    6.3800 O.3   189  SER189     -0.2179
    104  N          6.9030  -13.5070    7.6930 N.am  190  LEU190     -0.1963
    105  CA         7.8400  -14.6430    7.6920 C.3   190  LEU190      0.1728
    106  C          8.0740  -15.1340    9.1060 C.2   190  LEU190      0.2616
    107  O          8.4370  -14.3520   10.0260 O.2   190  LEU190     -0.2715
    108  CB         9.1910  -14.2680    7.0950 C.3   190  LEU190      0.0311
    109  CG         9.1870  -13.8120    5.6470 C.3   190  LEU190      0.0022
    110  CD1       10.5870  -13.3290    5.2530 C.3   190  LEU190      0.0001
    111  CD2        8.7150  -14.9250    4.7240 C.3   190  LEU190      0.0001
    112  N          7.8870  -16.4390    9.2840 N.am  191  LEU191     -0.1964
    113  CA         8.1270  -17.0250   10.5800 C.3   191  LEU191      0.1713
    114  C          9.6420  -17.2140   10.7330 C.2   191  LEU191      0.2458
    115  O         10.3810  -17.2350    9.7430 O.2   191  LEU191     -0.2730
    116  CB         7.3610  -18.3440   10.7320 C.3   191  LEU191      0.0310
    117  CG         5.8370  -18.3190   10.9660 C.3   191  LEU191      0.0022
    118  CD1        5.3750  -17.3330   12.0660 C.3   191  LEU191      0.0001
    119  CD2        5.0900  -18.0660    9.6690 C.3   191  LEU191      0.0001
    120  N         10.1230  -17.3120   11.9780 N.am  192  PRO192     -0.2727
    121  CA        11.5690  -17.3800   12.1480 C.3   192  PRO192      0.1402
    122  C         12.1420  -18.6850   11.6400 C.2   192  PRO192      0.2269
    123  O         11.4460  -19.6980   11.5820 O.2   192  PRO192     -0.2865
    124  CB        11.7600  -17.3090   13.6700 C.3   192  PRO192      0.0296
    125  CG        10.4840  -16.9660   14.2200 C.3   192  PRO192      0.0237
    126  CD         9.4270  -17.3850   13.2640 C.3   192  PRO192      0.0939
    127  N         11.7560  -21.6570   14.0590 N.3   195  MET195     -0.1245
    128  CA        10.4390  -22.1720   14.3990 C.3   195  MET195      0.1570
    129  C         10.1340  -23.4120   13.5820 C.2   195  MET195      0.2261
    130  O         10.3640  -23.4250   12.3670 O.2   195  MET195     -0.2867
    131  CB         9.3660  -21.1120   14.1450 C.3   195  MET195      0.0387
    132  CG         7.9860  -21.5390   14.6050 C.3   195  MET195      0.0595
    133  SD         6.7260  -20.2730   14.3670 S.3   195  MET195     -0.1393
    134  CE         7.1280  -19.1900   15.7420 C.3   195  MET195      0.0692
    135  N          4.4720  -25.2800   14.5460 N.3   199  GLU199     -0.1245
    136  CA         4.2320  -23.9920   15.2060 C.3   199  GLU199      0.1567
    137  C          3.9010  -22.9030   14.1840 C.2   199  GLU199      0.2260
    138  O          3.0130  -22.0700   14.4160 O.2   199  GLU199     -0.2867
    139  CB         5.4290  -23.5990   16.0720 C.3   199  GLU199      0.0388
    140  CG         5.1250  -22.4330   17.0000 C.3   199  GLU199      0.1160
    141  CD         6.2390  -22.1210   17.9940 C.2   199  GLU199      0.3649
    142  OE1        6.0120  -21.2390   18.8520 O.co2 199  GLU199     -0.2457
    143  OE2        7.3290  -22.7360   17.9270 O.co2 199  GLU199     -0.2457
    144  N          0.1420  -20.5430   13.6860 N.3   203  TRP203     -0.1241
    145  CA        -0.0750  -19.1260   13.3760 C.3   203  TRP203      0.1605
    146  C         -0.8060  -18.9060   12.0550 C.2   203  TRP203      0.2264
    147  O         -1.7400  -18.1020   11.9710 O.2   203  TRP203     -0.2867
    148  CB         1.2440  -18.3650   13.4020 C.3   203  TRP203      0.0550
    149  CG         1.6500  -18.0990   14.7850 C.ar  203  TRP203      0.0003
    150  CD1        2.5290  -18.8050   15.5290 C.ar  203  TRP203      0.0946
    151  CD2        1.1380  -17.0580   15.6360 C.ar  203  TRP203      0.0152
    152  NE1        2.6170  -18.2620   16.7910 N.ar  203  TRP203     -0.2442
    153  CE2        1.7670  -17.1920   16.8790 C.ar  203  TRP203      0.0810
    154  CE3        0.2130  -16.0250   15.4550 C.ar  203  TRP203      0.0012
    155  CZ2        1.5100  -16.3230   17.9480 C.ar  203  TRP203      0.0191
    156  CZ3       -0.0380  -15.1590   16.5130 C.ar  203  TRP203      0.0001
    157  CH2        0.6000  -15.3210   17.7400 C.ar  203  TRP203      0.0015
@<TRIPOS>BOND
     1     4     3    2
     2   111   109    1
     3     3     2    1
     4     1     2    1
     5   110   109    1
     6     2     5    1
     7   109   108    1
     8   103   102    1
     9     5     6    1
    10   108   105    1
    11     6     7    1
    12   102    99    1
    13   105   104    1
    14   105   106    1
    15   104   100   am
    16    99   100    1
    17    99    98    1
    18   100   101    2
    19    94    93    2
    20     7     8    1
    21    11     9    1
    22   106   112   am
    23   106   107    2
    24    98    93   am
    25   112   113    1
    26    93    92    1
    27     8     9    2
    28     9    10    1
    29   119   117    1
    30   115   114    2
    31    96    95    1
    32    87    88    1
    33   113   116    1
    34   113   114    1
    35   116   117    1
    36   114   120   am
    37    92    91    1
    38    92    95    1
    39    91    89   am
    40   117   118    1
    41    95    97    1
    42    88    89    1
    43   123   122    2
    44   122   121    1
    45    89    90    2
    46   147   146    2
    47   120   121    1
    48   120   126    1
    49   146   145    1
    50   121   124    1
    51   130   129    2
    52   126   125    1
    53   145   148    1
    54   145   144    1
    55   148   149    1
    56   129   128    1
    57   124   125    1
    58   127   128    1
    59    41    42    1
    60   131   128    1
    61   131   132    1
    62   137   138    2
    63   137   136    1
    64    12    13    1
    65   133   132    1
    66   133   134    1
    67    42    43    1
    68    42    45    1
    69   135   136    1
    70    43    44    2
    71   149   150   ar
    72   149   151   ar
    73    86    85    1
    74    16    13    1
    75    16    17    1
    76   136   139    1
    77    13    14    1
    78   154   151   ar
    79   154   156   ar
    80   150   152   ar
    81    15    14    2
    82   151   153   ar
    83    47    46   ar
    84    45    46    1
    85    85    84    1
    86    46    48   ar
    87   139   140    1
    88   156   157   ar
    89   152   153   ar
    90    84    83    1
    91   153   155   ar
    92    77    76    1
    93   140   141    1
    94   157   155   ar
    95    24    26   ar
    96    24    23   ar
    97   143   141   ar
    98    26    28   ar
    99   141   142   ar
   100    83    82    1
   101    22    23    1
   102    22    19    1
   103    76    74   ar
   104    76    75   ar
   105    23    25   ar
   106    74    72   ar
   107    28    27   ar
   108    81    80    2
   109    82    79    1
   110    25    27   ar
   111    18    19    1
   112    79    80    1
   113    79    78    1
   114    75    73   ar
   115    19    20    1
   116    21    20    2
   117    72    71   ar
   118    54    53    1
   119    20    29   am
   120    73    71   ar
   121    71    70    1
   122    29    30    1
   123    53    50    1
   124    69    68    2
   125    64    65   ar
   126    64    62   ar
   127    49    50    1
   128    65    63   ar
   129    36    38   ar
   130    36    34   ar
   131    70    67    1
   132    30    33    1
   133    30    31    1
   134    62    60   ar
   135    50    51    1
   136    33    34    1
   137    68    67    1
   138    38    39   ar
   139    67    66    1
   140    63    61   ar
   141    34    35   ar
   142    60    61   ar
   143    60    59    1
   144    31    32    2
   145    59    56    1
   146    51    52    2
   147    39    40    1
   148    39    37   ar
   149    35    37   ar
   150    58    57    2
   151    56    57    1
   152    56    55    1
