@<TRIPOS>MOLECULE
tmp/2xa4A00.pdb
 153 147 0 0 0
SMALL
GASTEIGER

@<TRIPOS>ATOM
      1  N         -5.1850   -0.9040   22.8820 N.3    13  LEU13      -0.1231
      2  CA        -4.7470    0.3330   23.5080 C.3    13  LEU13       0.1693
      3  C         -4.9630    1.5620   22.6350 C.2    13  LEU13       0.2593
      4  O         -5.2120    2.6460   23.1510 O.2    13  LEU13      -0.2718
      5  CB        -3.2970    0.2080   23.9510 C.3    13  LEU13       0.0284
      6  CG        -3.0750   -0.7630   25.1060 C.3    13  LEU13       0.0019
      7  CD1       -1.5730   -0.8490   25.4410 C.3    13  LEU13       0.0001
      8  CD2       -3.8680   -0.2910   26.2970 C.3    13  LEU13       0.0001
      9  N         -4.8930    1.3970   21.3240 N.am   14  GLY14      -0.1942
     10  CA        -5.1410    2.5040   20.4130 C.3    14  GLY14       0.2014
     11  C         -4.5820    2.2600   19.0210 C.2    14  GLY14       0.2638
     12  O         -4.0060    1.2030   18.7490 O.2    14  GLY14      -0.2714
     13  N         -4.7740    3.2520   18.1510 N.am   15  LYS15      -0.1977
     14  CA        -4.3430    3.2000   16.7490 C.3    15  LYS15       0.1596
     15  C         -3.0740    4.0390   16.5360 C.2    15  LYS15       0.2287
     16  O         -2.4520    4.5010   17.5030 O.2    15  LYS15      -0.2864
     17  CB        -5.4670    3.7120   15.8310 C.3    15  LYS15       0.0298
     18  CG        -6.5670    2.6790   15.5450 C.3    15  LYS15       0.0038
     19  CD        -6.1310    1.6900   14.4670 C.3    15  LYS15       0.0206
     20  CE        -7.0830    0.5100   14.3760 C.3    15  LYS15       0.1093
     21  NZ        -6.8430   -0.4900   15.4590 N.3    15  LYS15      -0.1314
     22  N         -1.9620   -0.6240   18.6550 N.3    19  VAL19      -0.1245
     23  CA        -1.2900   -1.0890   19.8690 C.3    19  VAL19       0.1561
     24  C         -2.2500   -1.9100   20.7480 C.2    19  VAL19       0.2260
     25  O         -3.4050   -1.5210   20.9560 O.2    19  VAL19      -0.2867
     26  CB        -0.7010    0.0650   20.6820 C.3    19  VAL19       0.0252
     27  CG1        0.1660   -0.4820   21.8230 C.3    19  VAL19       0.0019
     28  CG2        0.1240    1.0030   19.7720 C.3    19  VAL19       0.0019
     29  N          3.1620   -4.1970   26.1200 N.3    36  ALA36      -0.1245
     30  CA         2.5200   -3.4830   25.0160 C.3    36  ALA36       0.1562
     31  C          3.0520   -4.0230   23.6810 C.2    36  ALA36       0.2260
     32  O          4.2430   -4.2720   23.5400 O.2    36  ALA36      -0.2867
     33  CB         2.7500   -2.0000   25.1300 C.3    36  ALA36       0.0290
     34  N         10.5540    4.9860   26.7300 N.3    67  VAL67      -0.1245
     35  CA         9.9020    3.7070   26.9230 C.3    67  VAL67       0.1561
     36  C         10.8710    2.5690   26.5940 C.2    67  VAL67       0.2260
     37  O         11.6640    2.6640   25.6580 O.2    67  VAL67      -0.2867
     38  CB         8.5710    3.5980   26.1120 C.3    67  VAL67       0.0252
     39  CG1        8.8110    3.6160   24.6050 C.3    67  VAL67       0.0019
     40  CG2        7.7690    2.3580   26.5140 C.3    67  VAL67       0.0019
     41  N          7.1450   -3.8730   23.9450 N.3    81  MET81      -0.1230
     42  CA         7.6530   -2.8290   24.8340 C.3    81  MET81       0.1702
     43  C          7.0900   -3.0000   26.2440 C.2    81  MET81       0.2592
     44  O          6.1160   -3.7360   26.4600 O.2    81  MET81      -0.2718
     45  CB         7.2560   -1.4470   24.2950 C.3    81  MET81       0.0401
     46  CG         7.8330   -1.0960   22.9030 C.3    81  MET81       0.0596
     47  SD         7.1050    0.3930   22.1240 S.3    81  MET81      -0.1393
     48  CE         5.6030   -0.3490   21.4450 C.3    81  MET81       0.0692
     49  N          7.6840   -2.2940   27.2050 N.am   82  GLU82      -0.1966
     50  CA         7.1340   -2.2870   28.5530 C.3    82  GLU82       0.1733
     51  C          5.7670   -1.6180   28.5000 C.2    82  GLU82       0.2616
     52  O          5.5180   -0.7500   27.6380 O.2    82  GLU82      -0.2715
     53  CB         8.0490   -1.6020   29.5730 C.3    82  GLU82       0.0429
     54  CG         8.3640   -0.1410   29.2670 C.3    82  GLU82       0.1163
     55  CD         9.0920    0.5820   30.3990 C.2    82  GLU82       0.3649
     56  OE1        9.5740    1.7130   30.1530 O.co2  82  GLU82      -0.2457
     57  OE2        9.2020    0.0330   31.5270 O.co2  82  GLU82      -0.2457
     58  N          4.8740   -2.0910   29.3650 N.am   83  TYR83      -0.1960
     59  CA         3.5270   -1.5160   29.4890 C.3    83  TYR83       0.1771
     60  C          3.6080   -0.4440   30.5510 C.2    83  TYR83       0.2619
     61  O          4.1050   -0.6900   31.6440 O.2    83  TYR83      -0.2715
     62  CB         2.5030   -2.5830   29.8670 C.3    83  TYR83       0.0574
     63  CG         1.1210   -2.0320   30.1510 C.ar   83  TYR83      -0.0198
     64  CD1        0.3720   -1.4350   29.1420 C.ar   83  TYR83      -0.0009
     65  CD2        0.5690   -2.1030   31.4330 C.ar   83  TYR83      -0.0009
     66  CE1       -0.8920   -0.9300   29.3910 C.ar   83  TYR83       0.0417
     67  CE2       -0.6870   -1.6060   31.6960 C.ar   83  TYR83       0.0417
     68  CZ        -1.4230   -1.0140   30.6680 C.ar   83  TYR83       0.1957
     69  OH        -2.7000   -0.5150   30.9290 O.3    83  TYR83      -0.2866
     70  N          3.1920    0.7620   30.2040 N.am   84  LEU84      -0.1964
     71  CA         3.1910    1.8670   31.1380 C.3    84  LEU84       0.1713
     72  C          1.7320    2.0800   31.5100 C.2    84  LEU84       0.2458
     73  O          0.9040    2.2540   30.6350 O.2    84  LEU84      -0.2730
     74  CB         3.7960    3.1160   30.5210 C.3    84  LEU84       0.0310
     75  CG         5.3030    3.1050   30.3020 C.3    84  LEU84       0.0022
     76  CD1        5.7800    4.5350   30.0230 C.3    84  LEU84       0.0001
     77  CD2        6.0250    2.5690   31.4960 C.3    84  LEU84       0.0001
     78  N          1.4110    2.0240   32.8130 N.am   85  PRO85      -0.2716
     79  CA         0.0080    1.7950   33.1540 C.3    85  PRO85       0.1536
     80  C         -0.9330    3.0120   33.1700 C.2    85  PRO85       0.2599
     81  O         -2.1380    2.8110   33.1450 O.2    85  PRO85      -0.2715
     82  CB         0.0800    1.1480   34.5350 C.3    85  PRO85       0.0310
     83  CG         1.3860    1.5740   35.1150 C.3    85  PRO85       0.0237
     84  CD         2.3080    1.8860   33.9750 C.3    85  PRO85       0.0939
     85  N         -0.4190    4.2400   33.1650 N.am   86  TYR86      -0.1960
     86  CA        -1.2890    5.4070   33.2780 C.3    86  TYR86       0.1771
     87  C         -1.6750    6.0730   31.9500 C.2    86  TYR86       0.2620
     88  O         -2.3550    7.0980   31.9600 O.2    86  TYR86      -0.2715
     89  CB        -0.7060    6.4210   34.2530 C.3    86  TYR86       0.0574
     90  CG        -0.7350    5.9330   35.6770 C.ar   86  TYR86      -0.0198
     91  CD1        0.3670    5.2930   36.2240 C.ar   86  TYR86      -0.0009
     92  CD2       -1.8670    6.0850   36.4670 C.ar   86  TYR86      -0.0009
     93  CE1        0.3560    4.8310   37.5130 C.ar   86  TYR86       0.0417
     94  CE2       -1.8910    5.6290   37.7620 C.ar   86  TYR86       0.0417
     95  CZ        -0.7670    4.9960   38.2810 C.ar   86  TYR86       0.1957
     96  OH        -0.7410    4.5360   39.5730 O.3    86  TYR86      -0.2866
     97  N         -1.2750    5.4790   30.8240 N.am   87  GLY87      -0.1940
     98  CA        -1.6950    5.9440   29.5090 C.3    87  GLY87       0.2014
     99  C         -0.9320    7.1510   29.0060 C.2    87  GLY87       0.2639
    100  O          0.1000    7.5360   29.5830 O.2    87  GLY87      -0.2714
    101  N         -1.4210    7.7500   27.9240 N.am   88  SER88      -0.1949
    102  CA        -0.7620    8.9260   27.3690 C.3    88  SER88       0.1924
    103  C         -0.8720   10.0770   28.3580 C.2    88  SER88       0.2314
    104  O         -1.8150   10.1490   29.1540 O.2    88  SER88      -0.2863
    105  CB        -1.3430    9.3250   25.9990 C.3    88  SER88       0.2116
    106  OG        -2.6300    9.9010   26.1530 O.3    88  SER88      -0.2180
    107  N         -4.0070   12.0370   27.8870 N.3    91  ASP91      -0.1239
    108  CA        -5.1890   11.4730   28.5650 C.3    91  ASP91       0.1674
    109  C         -5.0840   11.5470   30.0830 C.2    91  ASP91       0.2266
    110  O         -6.0590   11.8100   30.7480 O.2    91  ASP91      -0.2867
    111  CB        -5.4200   10.0320   28.1220 C.3    91  ASP91       0.1410
    112  CG        -5.8320    9.9410   26.6660 C.2    91  ASP91       0.3668
    113  OD1       -5.5560    8.9170   26.0200 O.co2  91  ASP91      -0.2456
    114  OD2       -6.4080   10.9270   26.1610 O.co2  91  ASP91      -0.2456
    115  N          0.2580   13.4050   23.1950 N.3   132  ARG132     -0.1231
    116  CA        -0.3120   12.0980   22.8180 C.3   132  ARG132      0.1694
    117  C          0.7610   11.0000   22.6820 C.2   132  ARG132      0.2592
    118  O          0.4390    9.8200   22.7490 O.2   132  ARG132     -0.2718
    119  CB        -1.1460   12.1750   21.5380 C.3   132  ARG132      0.0321
    120  CG        -0.3480   12.5130   20.2910 C.3   132  ARG132      0.0489
    121  CD        -1.1670   12.4570   19.0140 C.3   132  ARG132      0.2205
    122  NE        -0.5550   13.3430   18.0220 N.pl3 132  ARG132     -0.0865
    123  CZ        -0.6650   14.6880   18.0230 C.cat 132  ARG132      0.5346
    124  NH1       -1.3860   15.3180   18.9640 N.pl3 132  ARG132      0.1354
    125  NH2       -0.0460   15.4140   17.0760 N.pl3 132  ARG132      0.1354
    126  N          2.0250   11.4100   22.5200 N.am  133  ASN133     -0.1974
    127  CA         3.1560   10.5060   22.3540 C.3   133  ASN133      0.1688
    128  C          4.0550   10.3610   23.5880 C.2   133  ASN133      0.2292
    129  O          5.1240    9.7450   23.5190 O.2   133  ASN133     -0.2864
    130  CB         3.9690   10.9610   21.1310 C.3   133  ASN133      0.1181
    131  CG         3.2500   10.6640   19.8300 C.2   133  ASN133      0.2629
    132  OD1        2.5810    9.6450   19.7210 O.2   133  ASN133     -0.2716
    133  ND2        3.3910   11.5380   18.8310 N.am  133  ASN133     -0.0877
    134  N          4.0420    8.8360   27.4720 N.3   135  LEU135     -0.1245
    135  CA         3.3600    7.9050   28.3580 C.3   135  LEU135      0.1561
    136  C          3.6340    8.2310   29.8190 C.2   135  LEU135      0.2260
    137  O          4.7030    8.7680   30.1670 O.2   135  LEU135     -0.2867
    138  CB         3.8130    6.4780   28.0550 C.3   135  LEU135      0.0270
    139  CG         3.2790    5.8940   26.7520 C.3   135  LEU135      0.0019
    140  CD1        4.0370    4.6300   26.3960 C.3   135  LEU135      0.0001
    141  CD2        1.8050    5.6430   26.8780 C.3   135  LEU135      0.0001
    142  N          7.1860    7.8970   24.3300 N.3   145  GLY145     -0.1210
    143  CA         6.5480    6.5810   24.1950 C.3   145  GLY145      0.1956
    144  C          6.3170    6.0110   22.8190 C.2   145  GLY145      0.2611
    145  O          5.8620    4.8670   22.6860 O.2   145  GLY145     -0.2717
    146  N          6.6100    6.7950   21.7960 N.am  146  ASP146     -0.1973
    147  CA         6.4480    6.3460   20.4090 C.3   146  ASP146      0.1709
    148  C          7.4880    6.9880   19.5150 C.2   146  ASP146      0.2293
    149  O          7.7470    8.1720   19.6500 O.2   146  ASP146     -0.2864
    150  CB         5.0670    6.6910   19.8790 C.3   146  ASP146      0.1436
    151  CG         4.8380    6.1380   18.4750 C.2   146  ASP146      0.3671
    152  OD1        4.4390    4.9610   18.3590 O.co2 146  ASP146     -0.2456
    153  OD2        5.0900    6.8750   17.4950 O.co2 146  ASP146     -0.2456
@<TRIPOS>BOND
     1    20    19    1
     2    20    21    1
     3    19    18    1
     4    18    17    1
     5    17    14    1
     6    15    14    1
     7    15    16    2
     8    14    13    1
     9   125   123    1
    10   153   151   ar
    11   122   123    2
    12   122   121    1
    13   123   124    1
    14    13    11   am
    15   152   151   ar
    16   151   150    1
    17    22    23    1
    18    12    11    2
    19   133   131   am
    20   121   120    1
    21    11    10    1
    22   148   149    2
    23   148   147    1
    24   132   131    2
    25    28    26    1
    26   131   130    1
    27    23    26    1
    28    23    24    1
    29   150   147    1
    30   120   119    1
    31   147   146    1
    32    10     9    1
    33    26    27    1
    34    24    25    2
    35   130   127    1
    36     9     3   am
    37    48    47    1
    38   119   116    1
    39   146   144   am
    40    47    46    1
    41   127   126    1
    42   127   128    1
    43   126   117   am
    44     3     4    2
    45     3     2    1
    46   117   118    2
    47   117   116    1
    48   145   144    2
    49   116   115    1
    50   144   143    1
    51     1     2    1
    52    46    45    1
    53     2     5    1
    54   129   128    2
    55    32    31    2
    56    31    30    1
    57    41    42    1
    58     5     6    1
    59   143   142    1
    60    45    42    1
    61    39    38    1
    62    42    43    1
    63    30    33    1
    64    30    29    1
    65     6     7    1
    66     6     8    1
    67    37    36    2
    68   105   106    1
    69   105   102    1
    70   113   112   ar
    71    38    40    1
    72    38    35    1
    73   114   112   ar
    74    43    44    2
    75    43    49   am
    76   140   139    1
    77    36    35    1
    78   112   111    1
    79    34    35    1
    80   139   141    1
    81   139   138    1
    82    49    50    1
    83   102   101    1
    84   102   103    1
    85   134   135    1
    86    52    51    2
    87   107   108    1
    88   101    99   am
    89   138   135    1
    90   111   108    1
    91   135   136    1
    92   103   104    2
    93    51    50    1
    94    51    58   am
    95    50    53    1
    96   108   109    1
    97    99    98    1
    98    99   100    2
    99    64    66   ar
   100    64    63   ar
   101    54    53    1
   102    54    55    1
   103    58    59    1
   104    66    68   ar
   105    59    62    1
   106    59    60    1
   107    98    97    1
   108   136   137    2
   109    62    63    1
   110    76    75    1
   111   109   110    2
   112    63    65   ar
   113    56    55   ar
   114    70    60   am
   115    70    71    1
   116    75    74    1
   117    75    77    1
   118    55    57   ar
   119    74    71    1
   120    60    61    2
   121    73    72    2
   122    68    69    1
   123    68    67   ar
   124    97    87   am
   125    71    72    1
   126    65    67   ar
   127    72    78   am
   128    87    88    2
   129    87    86    1
   130    78    79    1
   131    78    84    1
   132    81    80    2
   133    79    80    1
   134    79    82    1
   135    85    80   am
   136    85    86    1
   137    86    89    1
   138    84    83    1
   139    89    90    1
   140    82    83    1
   141    90    91   ar
   142    90    92   ar
   143    91    93   ar
   144    92    94   ar
   145    93    95   ar
   146    94    95   ar
   147    95    96    1
