@<TRIPOS>MOLECULE
tmp/2xa7C00.pdb
 184 183 0 0 0
SMALL
GASTEIGER

@<TRIPOS>ATOM
      1  N         75.8460  -22.6520  -23.3460 N.3   168  PHE168     -0.1227
      2  CA        76.2060  -23.7300  -22.4310 C.3   168  PHE168      0.1736
      3  C         75.0150  -24.6580  -22.2480 C.2   168  PHE168      0.2595
      4  O         73.9070  -24.1910  -21.9430 O.2   168  PHE168     -0.2718
      5  CB        76.6210  -23.2030  -21.0480 C.3   168  PHE168      0.0547
      6  CG        77.5270  -22.0020  -21.0660 C.ar  168  PHE168     -0.0202
      7  CD1       77.6820  -21.2160  -22.2090 C.ar  168  PHE168     -0.0042
      8  CD2       78.1840  -21.6260  -19.8960 C.ar  168  PHE168     -0.0042
      9  CE1       78.5000  -20.1120  -22.2050 C.ar  168  PHE168     -0.0003
     10  CE2       79.0050  -20.5170  -19.8730 C.ar  168  PHE168     -0.0003
     11  CZ        79.1660  -19.7530  -21.0330 C.ar  168  PHE168     -0.0000
     12  N         75.2170  -25.9620  -22.4090 N.am  169  LEU169     -0.1966
     13  CA        74.1460  -26.8600  -22.0250 C.3   169  LEU169      0.1728
     14  C         74.5330  -27.5530  -20.7490 C.2   169  LEU169      0.2616
     15  O         75.6680  -28.0150  -20.5860 O.2   169  LEU169     -0.2715
     16  CB        73.7720  -27.8550  -23.1160 C.3   169  LEU169      0.0311
     17  CG        73.7490  -27.3810  -24.5720 C.3   169  LEU169      0.0022
     18  CD1       75.0550  -27.7120  -25.2640 C.3   169  LEU169      0.0001
     19  CD2       72.6430  -28.0340  -25.3420 C.3   169  LEU169      0.0001
     20  N         73.5870  -27.5680  -19.8220 N.am  170  ASP170     -0.1971
     21  CA        73.7310  -28.2680  -18.5610 C.3   170  ASP170      0.1709
     22  C         72.8100  -29.4780  -18.5380 C.2   170  ASP170      0.2293
     23  O         71.5810  -29.3240  -18.6630 O.2   170  ASP170     -0.2864
     24  CB        73.3860  -27.3390  -17.3900 C.3   170  ASP170      0.1436
     25  CG        74.5680  -26.5120  -16.9330 C.2   170  ASP170      0.3671
     26  OD1       74.8420  -26.4930  -15.7120 O.co2 170  ASP170     -0.2456
     27  OD2       75.2360  -25.8930  -17.7920 O.co2 170  ASP170     -0.2456
     28  N         86.7850  -29.1770  -38.2590 N.3   218  SER218     -0.1217
     29  CA        87.4610  -27.9060  -37.9740 C.3   218  SER218      0.1889
     30  C         89.0080  -27.9900  -38.0640 C.2   218  SER218      0.2288
     31  O         89.5410  -28.6790  -38.9420 O.2   218  SER218     -0.2866
     32  CB        86.9950  -27.3420  -36.6180 C.3   218  SER218      0.2089
     33  OG        87.4810  -28.1070  -35.5270 O.3   218  SER218     -0.2183
     34  N         90.5370  -28.2250  -34.8480 N.3   220  GLU220     -0.1245
     35  CA        90.6570  -28.5740  -33.4300 C.3   220  GLU220      0.1567
     36  C         89.9880  -29.9200  -33.0570 C.2   220  GLU220      0.2260
     37  O         89.1010  -29.9840  -32.1950 O.2   220  GLU220     -0.2867
     38  CB        90.1480  -27.4320  -32.5600 C.3   220  GLU220      0.0388
     39  CG        90.9980  -27.2040  -31.3430 C.3   220  GLU220      0.1160
     40  CD        92.4680  -27.3280  -31.6360 C.2   220  GLU220      0.3649
     41  OE1       93.0040  -26.4620  -32.3590 O.co2 220  GLU220     -0.2457
     42  OE2       93.0760  -28.3000  -31.1440 O.co2 220  GLU220     -0.2457
     43  N         89.9410  -33.8440  -31.6250 N.3   222  LYS222     -0.1245
     44  CA        90.3980  -34.4140  -30.3560 C.3   222  LYS222      0.1561
     45  C         91.6400  -35.2230  -30.6610 C.2   222  LYS222      0.2260
     46  O         91.8430  -35.6320  -31.7970 O.2   222  LYS222     -0.2867
     47  CB        89.3470  -35.3280  -29.7210 C.3   222  LYS222      0.0271
     48  CG        88.0120  -35.3250  -30.4180 C.3   222  LYS222      0.0035
     49  CD        87.4280  -36.7210  -30.4630 C.3   222  LYS222      0.0206
     50  CE        86.1540  -36.7620  -31.2980 C.3   222  LYS222      0.1093
     51  NZ        85.8420  -38.1480  -31.7650 N.3   222  LYS222     -0.1314
     52  N         74.5560  -38.3470  -23.3730 N.3   393  LYS393     -0.1231
     53  CA        75.5890  -37.3590  -23.7260 C.3   393  LYS393      0.1696
     54  C         75.1090  -36.6170  -24.9910 C.2   393  LYS393      0.2592
     55  O         74.5020  -37.2440  -25.8550 O.2   393  LYS393     -0.2718
     56  CB        76.9670  -38.0300  -23.9170 C.3   393  LYS393      0.0331
     57  CG        77.8960  -38.1670  -22.6500 C.3   393  LYS393      0.0295
     58  CD        79.2000  -39.0310  -22.9130 C.2   393  LYS393     -0.0067
     59  CE        80.4030  -38.2650  -23.6060 C.2   393  LYS393      0.1012
     60  NZ        81.5980  -39.1110  -24.0110 N.pl3 393  LYS393     -0.1270
     61  N         75.3250  -35.3010  -25.1000 N.am  394  VAL394     -0.1966
     62  CA        74.7710  -34.5600  -26.2450 C.3   394  VAL394      0.1727
     63  C         75.5340  -34.8730  -27.4700 C.2   394  VAL394      0.2616
     64  O         76.7380  -34.6470  -27.5030 O.2   394  VAL394     -0.2715
     65  CB        74.9270  -33.0650  -26.1400 C.3   394  VAL394      0.0290
     66  CG1       74.6170  -32.3960  -27.5250 C.3   394  VAL394      0.0023
     67  CG2       74.0370  -32.5280  -25.0440 C.3   394  VAL394      0.0023
     68  N         74.8400  -35.3580  -28.4920 N.am  395  ARG395     -0.1963
     69  CA        75.4990  -35.6390  -29.7660 C.3   395  ARG395      0.1729
     70  C         75.6220  -34.3340  -30.5580 C.2   395  ARG395      0.2616
     71  O         76.7390  -33.9510  -30.9140 O.2   395  ARG395     -0.2715
     72  CB        74.7850  -36.7520  -30.5550 C.3   395  ARG395      0.0348
     73  CG        75.5390  -37.3840  -31.7610 C.3   395  ARG395      0.0492
     74  CD        74.5640  -37.6100  -32.9400 C.3   395  ARG395      0.2205
     75  NE        73.1790  -37.2980  -32.5400 N.pl3 395  ARG395     -0.0865
     76  CZ        72.0830  -37.3350  -33.3110 C.cat 395  ARG395      0.5346
     77  NH1       72.1320  -37.6900  -34.5950 N.pl3 395  ARG395      0.1354
     78  NH2       70.9070  -37.0150  -32.7760 N.pl3 395  ARG395      0.1354
     79  N         74.5200  -33.6200  -30.8090 N.am  396  TYR396     -0.1960
     80  CA        74.6700  -32.4540  -31.6980 C.3   396  TYR396      0.1771
     81  C         73.6980  -31.3170  -31.4740 C.2   396  TYR396      0.2619
     82  O         72.5580  -31.5330  -31.0370 O.2   396  TYR396     -0.2715
     83  CB        74.6830  -32.8680  -33.1920 C.3   396  TYR396      0.0574
     84  CG        73.3190  -32.8870  -33.8550 C.ar  396  TYR396     -0.0198
     85  CD1       73.0770  -32.1820  -35.0400 C.ar  396  TYR396     -0.0009
     86  CD2       72.2610  -33.6080  -33.2870 C.ar  396  TYR396     -0.0009
     87  CE1       71.8010  -32.2030  -35.6410 C.ar  396  TYR396      0.0417
     88  CE2       70.9950  -33.6310  -33.8680 C.ar  396  TYR396      0.0417
     89  CZ        70.7590  -32.9290  -35.0360 C.ar  396  TYR396      0.1957
     90  OH        69.4750  -32.9770  -35.5690 O.3   396  TYR396     -0.2866
     91  N         74.1740  -30.1250  -31.8440 N.am  397  LEU397     -0.1977
     92  CA        73.4650  -28.8530  -31.7160 C.3   397  LEU397      0.1596
     93  C         73.6700  -27.8990  -32.9110 C.2   397  LEU397      0.2287
     94  O         74.4970  -26.9820  -32.8540 O.2   397  LEU397     -0.2864
     95  CB        73.9000  -28.1580  -30.4290 C.3   397  LEU397      0.0297
     96  CG        73.2890  -26.8000  -30.0900 C.3   397  LEU397      0.0022
     97  CD1       71.8960  -26.5740  -30.7050 C.3   397  LEU397      0.0001
     98  CD2       73.2270  -26.7130  -28.5800 C.3   397  LEU397      0.0001
     99  N         77.1000  -22.2980  -37.8590 N.3   408  ASP408     -0.1225
    100  CA        77.5790  -23.2480  -36.8520 C.3   408  ASP408      0.1805
    101  C         79.0140  -23.0880  -36.3340 C.2   408  ASP408      0.2597
    102  O         79.2430  -23.0790  -35.1210 O.2   408  ASP408     -0.2718
    103  CB        77.3540  -24.6740  -37.3550 C.3   408  ASP408      0.1424
    104  CG        77.0520  -25.6480  -36.2340 C.2   408  ASP408      0.3668
    105  OD1       77.8210  -25.7080  -35.2490 O.co2 408  ASP408     -0.2456
    106  OD2       76.0390  -26.3660  -36.3540 O.co2 408  ASP408     -0.2456
    107  N         79.9630  -22.9440  -37.2560 N.am  409  HIS409     -0.1975
    108  CA        81.4030  -23.0090  -36.9470 C.3   409  HIS409      0.1656
    109  C         81.9210  -21.8990  -36.0060 C.2   409  HIS409      0.2291
    110  O         83.0500  -21.9950  -35.5000 O.2   409  HIS409     -0.2864
    111  CB        82.2280  -23.0460  -38.2580 C.3   409  HIS409      0.0771
    112  CG        83.3340  -24.0650  -38.2630 C.ar  409  HIS409      0.0820
    113  ND1       83.1010  -25.4230  -38.1620 N.ar  409  HIS409     -0.2267
    114  CD2       84.6770  -23.9240  -38.3830 C.ar  409  HIS409      0.1154
    115  CE1       84.2530  -26.0720  -38.2050 C.ar  409  HIS409      0.1986
    116  NE2       85.2240  -25.1860  -38.3370 N.ar  409  HIS409     -0.2212
    117  N         80.7610  -20.7760  -33.0460 N.3   411  VAL411     -0.1231
    118  CA        80.1170  -20.7810  -31.7440 C.3   411  VAL411      0.1692
    119  C         80.8620  -21.5250  -30.6470 C.2   411  VAL411      0.2592
    120  O         81.0710  -22.7240  -30.7450 O.2   411  VAL411     -0.2718
    121  CB        78.7160  -21.3810  -31.8600 C.3   411  VAL411      0.0266
    122  CG1       77.9110  -21.0640  -30.6190 C.3   411  VAL411      0.0020
    123  CG2       78.0200  -20.8460  -33.1060 C.3   411  VAL411      0.0020
    124  N         81.2410  -20.8100  -29.5930 N.am  412  ILE412     -0.1966
    125  CA        81.7330  -21.4480  -28.3680 C.3   412  ILE412      0.1727
    126  C         80.5880  -22.2130  -27.6690 C.2   412  ILE412      0.2616
    127  O         79.5720  -21.6220  -27.2710 O.2   412  ILE412     -0.2715
    128  CB        82.3750  -20.4170  -27.4000 C.3   412  ILE412      0.0290
    129  CG1       83.6170  -19.7790  -28.0310 C.3   412  ILE412      0.0022
    130  CG2       82.7010  -21.0640  -26.0570 C.3   412  ILE412      0.0023
    131  CD1       84.1070  -18.5100  -27.3330 C.3   412  ILE412      0.0001
    132  N         80.7620  -23.5240  -27.5320 N.am  413  LYS413     -0.1963
    133  CA        79.7240  -24.4020  -27.0100 C.3   413  LYS413      0.1728
    134  C         80.2530  -25.2660  -25.8920 C.2   413  LYS413      0.2616
    135  O         81.0670  -26.1390  -26.1230 O.2   413  LYS413     -0.2715
    136  CB        79.2010  -25.3240  -28.1020 C.3   413  LYS413      0.0311
    137  CG        78.8640  -24.6730  -29.4130 C.3   413  LYS413      0.0038
    138  CD        78.2810  -25.7260  -30.3040 C.3   413  LYS413      0.0206
    139  CE        77.8810  -25.1980  -31.6440 C.3   413  LYS413      0.1093
    140  NZ        77.1850  -26.2890  -32.3720 N.3   413  LYS413     -0.1314
    141  N         79.7660  -25.0440  -24.6840 N.am  414  TRP414     -0.1960
    142  CA        80.2320  -25.8160  -23.5230 C.3   414  TRP414      0.1771
    143  C         79.1640  -26.8110  -22.9950 C.2   414  TRP414      0.2620
    144  O         77.9500  -26.5560  -23.1100 O.2   414  TRP414     -0.2715
    145  CB        80.6790  -24.8480  -22.4160 C.3   414  TRP414      0.0590
    146  CG        81.9660  -24.0780  -22.7030 C.ar  414  TRP414      0.0006
    147  CD1       82.4780  -23.7440  -23.9340 C.ar  414  TRP414      0.0946
    148  CD2       82.8840  -23.5320  -21.7280 C.ar  414  TRP414      0.0152
    149  NE1       83.6570  -23.0480  -23.7800 N.ar  414  TRP414     -0.2442
    150  CE2       83.9260  -22.9000  -22.4430 C.ar  414  TRP414      0.0810
    151  CE3       82.9250  -23.5180  -20.3160 C.ar  414  TRP414      0.0012
    152  CZ2       84.9990  -22.2590  -21.7940 C.ar  414  TRP414      0.0191
    153  CZ3       84.0000  -22.8780  -19.6660 C.ar  414  TRP414      0.0001
    154  CH2       85.0150  -22.2610  -20.4100 C.ar  414  TRP414      0.0015
    155  N         79.5860  -27.9330  -22.4110 N.am  415  VAL415     -0.1963
    156  CA        78.6190  -28.9080  -21.8970 C.3   415  VAL415      0.1727
    157  C         78.9530  -29.4050  -20.5080 C.2   415  VAL415      0.2616
    158  O         80.0890  -29.7660  -20.2460 O.2   415  VAL415     -0.2715
    159  CB        78.5020  -30.1290  -22.8070 C.3   415  VAL415      0.0290
    160  CG1       77.3110  -30.9840  -22.4010 C.3   415  VAL415      0.0023
    161  CG2       78.3470  -29.7070  -24.2170 C.3   415  VAL415      0.0023
    162  N         77.9650  -29.4450  -19.6210 N.am  416  ARG416     -0.1963
    163  CA        78.2170  -30.0300  -18.3030 C.3   416  ARG416      0.1729
    164  C         77.3120  -31.2050  -17.9600 C.2   416  ARG416      0.2616
    165  O         76.1970  -31.3120  -18.4690 O.2   416  ARG416     -0.2715
    166  CB        78.1590  -28.9700  -17.2210 C.3   416  ARG416      0.0348
    167  CG        78.7250  -29.4250  -15.8980 C.3   416  ARG416      0.0492
    168  CD        79.0000  -28.2440  -14.9950 C.3   416  ARG416      0.2205
    169  NE        78.1440  -27.1080  -15.3260 N.pl3 416  ARG416     -0.0865
    170  CZ        78.0460  -26.0050  -14.6030 C.cat 416  ARG416      0.5346
    171  NH1       78.7430  -25.8770  -13.4850 N.pl3 416  ARG416      0.1354
    172  NH2       77.2390  -25.0370  -14.9960 N.pl3 416  ARG416      0.1354
    173  N         77.8070  -32.0920  -17.0990 N.am  417  TYR417     -0.1974
    174  CA        77.0920  -33.3100  -16.7420 C.3   417  TYR417      0.1639
    175  C         76.9550  -33.4450  -15.2330 C.2   417  TYR417      0.2290
    176  O         77.8710  -33.8850  -14.5260 O.2   417  TYR417     -0.2864
    177  CB        77.7430  -34.5440  -17.3840 C.3   417  TYR417      0.0560
    178  CG        77.5150  -34.6060  -18.8750 C.ar  417  TYR417     -0.0198
    179  CD1       78.2940  -33.8570  -19.7420 C.ar  417  TYR417     -0.0009
    180  CD2       76.5100  -35.3880  -19.4200 C.ar  417  TYR417     -0.0009
    181  CE1       78.0930  -33.8910  -21.1060 C.ar  417  TYR417      0.0417
    182  CE2       76.2990  -35.4210  -20.7910 C.ar  417  TYR417      0.0417
    183  CZ        77.1040  -34.6660  -21.6310 C.ar  417  TYR417      0.1957
    184  OH        76.9370  -34.6670  -22.9980 O.3   417  TYR417     -0.2866
@<TRIPOS>BOND
     1    31    30    2
     2   114   116   ar
     3   114   112   ar
     4   116   115   ar
     5   112   111    1
     6   112   113   ar
     7    28    29    1
     8   111   108    1
     9   115   113   ar
    10    30    29    1
    11    29    32    1
    12    99   100    1
    13   103   100    1
    14   103   104    1
    15   107   108    1
    16   107   101   am
    17   108   109    1
    18   100   101    1
    19    32    33    1
    20   106   104   ar
    21   101   102    2
    22   104   105   ar
    23   109   110    2
    24    87    85   ar
    25    87    89   ar
    26    90    89    1
    27    85    84   ar
    28    89    88   ar
    29    34    35    1
    30    77    76    1
    31    88    86   ar
    32    84    86   ar
    33    84    83    1
    34    35    36    1
    35    35    38    1
    36    76    78    1
    37    76    75    2
    38    83    80    1
    39   123   121    1
    40    36    37    2
    41   117   118    1
    42    74    75    1
    43    74    73    1
    44    93    94    2
    45    93    92    1
    46    38    39    1
    47   140   139    1
    48    41    40   ar
    49   121   118    1
    50   121   122    1
    51    91    92    1
    52    91    81   am
    53    46    45    2
    54    51    50    1
    55    73    72    1
    56   118   119    1
    57    92    95    1
    58    80    81    1
    59    80    79    1
    60   139   138    1
    61    40    39    1
    62    40    42   ar
    63    43    44    1
    64    81    82    2
    65    50    49    1
    66    71    70    2
    67    79    70   am
    68   120   119    2
    69    97    96    1
    70    45    44    1
    71   119   124   am
    72    70    69    1
    73    72    69    1
    74    49    48    1
    75    95    96    1
    76    48    47    1
    77    44    47    1
    78   138   137    1
    79    96    98    1
    80    69    68    1
    81   124   125    1
    82   137   136    1
    83    68    63   am
    84   125   126    1
    85   125   128    1
    86   136   133    1
    87   129   128    1
    88   129   131    1
    89   126   132   am
    90   126   127    2
    91   132   133    1
    92    66    65    1
    93    64    63    2
    94    63    62    1
    95   128   130    1
    96   133   134    1
    97    62    65    1
    98    62    61    1
    99    65    67    1
   100   135   134    2
   101   134   141   am
   102    55    54    2
   103    19    17    1
   104    18    17    1
   105    61    54   am
   106    54    53    1
   107   141   142    1
   108    17    16    1
   109   161   159    1
   110    60    59    1
   111   147   149   ar
   112   147   146   ar
   113    56    53    1
   114    56    57    1
   115   149   150   ar
   116    53    52    1
   117    59    58    2
   118   142   143    1
   119   142   145    1
   120     1     2    1
   121    16    13    1
   122   144   143    2
   123   184   183    1
   124   143   155   am
   125    58    57    1
   126   159   160    1
   127   159   156    1
   128   146   145    1
   129   146   148   ar
   130   150   152   ar
   131   150   148   ar
   132     2     3    1
   133     2     5    1
   134   155   156    1
   135    12     3   am
   136    12    13    1
   137     3     4    2
   138     7     9   ar
   139     7     6   ar
   140     9    11   ar
   141    13    14    1
   142   156   157    1
   143   152   154   ar
   144   148   151   ar
   145   183   181   ar
   146   183   182   ar
   147   181   179   ar
   148     6     5    1
   149     6     8   ar
   150    11    10   ar
   151   182   180   ar
   152    14    15    2
   153    14    20   am
   154   157   158    2
   155   157   162   am
   156   154   153   ar
   157   151   153   ar
   158     8    10   ar
   159    20    21    1
   160   179   178   ar
   161   162   163    1
   162   180   178   ar
   163   178   177    1
   164    23    22    2
   165    21    22    1
   166    21    24    1
   167   165   164    2
   168   163   164    1
   169   163   166    1
   170   164   173   am
   171    27    25   ar
   172    24    25    1
   173   177   174    1
   174   166   167    1
   175   173   174    1
   176    25    26   ar
   177   174   175    1
   178   167   168    1
   179   169   168    1
   180   169   170    2
   181   175   176    2
   182   172   170    1
   183   170   171    1
