@<TRIPOS>MOLECULE
tmp/2xa9A00.pdb
 190 181 0 0 0
SMALL
GASTEIGER

@<TRIPOS>ATOM
      1  N         25.1170  -10.8930  113.8980 N.3    90  HIS90      -0.1241
      2  CA        25.3050   -9.7550  113.0090 C.3    90  HIS90       0.1621
      3  C         25.1160  -10.1460  111.5360 C.2    90  HIS90       0.2264
      4  O         24.3280   -9.5270  110.8170 O.2    90  HIS90      -0.2867
      5  CB        26.7050   -9.1630  113.2320 C.3    90  HIS90       0.0745
      6  CG        27.0450   -8.0380  112.3060 C.ar   90  HIS90       0.0817
      7  ND1       27.3080   -8.2280  110.9640 N.ar   90  HIS90      -0.2268
      8  CD2       27.1460   -6.7050  112.5230 C.ar   90  HIS90       0.1154
      9  CE1       27.5570   -7.0630  110.3960 C.ar   90  HIS90       0.1986
     10  NE2       27.4650   -6.1230  111.3190 N.ar   90  HIS90      -0.2212
     11  N         21.8520   -9.5640  108.7420 N.3    94  GLN94      -0.1245
     12  CA        22.1030   -8.9420  107.4530 C.3    94  GLN94       0.1566
     13  C         22.1220   -9.9960  106.3530 C.2    94  GLN94       0.2260
     14  O         23.1210  -10.1540  105.6490 O.2    94  GLN94      -0.2867
     15  CB        23.4410   -8.2150  107.4820 C.3    94  GLN94       0.0367
     16  CG        23.4510   -6.9900  108.3550 C.3    94  GLN94       0.0905
     17  CD        24.8060   -6.3220  108.3820 C.2    94  GLN94       0.2608
     18  OE1       24.9490   -5.2120  108.8920 O.2    94  GLN94      -0.2717
     19  NE2       25.8160   -6.9980  107.8380 N.am   94  GLN94      -0.0878
     20  N         22.6790   -0.3280  114.0970 N.3   153  HIS153     -0.1226
     21  CA        23.7180    0.1050  113.1660 C.3   153  HIS153      0.1752
     22  C         23.8920   -0.8840  112.0220 C.2   153  HIS153      0.2596
     23  O         24.9710   -0.9790  111.4470 O.2   153  HIS153     -0.2718
     24  CB        25.0620    0.2560  113.8860 C.3   153  HIS153      0.0759
     25  CG        25.0660    1.3010  114.9560 C.ar  153  HIS153      0.0818
     26  ND1       24.9760    2.6490  114.6810 N.ar  153  HIS153     -0.2268
     27  CD2       25.1520    1.1960  116.3040 C.ar  153  HIS153      0.1154
     28  CE1       25.0070    3.3290  115.8140 C.ar  153  HIS153      0.1986
     29  NE2       25.1130    2.4700  116.8130 N.ar  153  HIS153     -0.2212
     30  N         22.8430   -1.6250  111.6910 N.am  154  ILE154     -0.1966
     31  CA        22.9400   -2.5990  110.6160 C.3   154  ILE154      0.1727
     32  C         21.6090   -2.7620  109.9070 C.2   154  ILE154      0.2616
     33  O         20.5970   -2.2210  110.3470 O.2   154  ILE154     -0.2715
     34  CB        23.3660   -3.9660  111.1520 C.3   154  ILE154      0.0290
     35  CG1       22.2800   -4.5170  112.0740 C.3   154  ILE154      0.0022
     36  CG2       24.6710   -3.8440  111.9030 C.3   154  ILE154      0.0023
     37  CD1       22.4800   -5.9760  112.4470 C.3   154  ILE154      0.0001
     38  N         21.6010   -3.5280  108.8210 N.am  155  ASP155     -0.1971
     39  CA        20.3700   -3.7280  108.0650 C.3   155  ASP155      0.1709
     40  C         19.4480   -4.8000  108.6310 C.2   155  ASP155      0.2293
     41  O         19.8970   -5.8710  109.0460 O.2   155  ASP155     -0.2864
     42  CB        20.6930   -4.0450  106.5980 C.3   155  ASP155      0.1436
     43  CG        19.4580   -4.0350  105.7130 C.2   155  ASP155      0.3671
     44  OD1       18.7170   -3.0270  105.7230 O.co2 155  ASP155     -0.2456
     45  OD2       19.2290   -5.0350  105.0050 O.co2 155  ASP155     -0.2456
     46  N         19.2340    3.6310  110.4640 N.3   180  HIS180     -0.1241
     47  CA        19.9170    4.5470  109.5550 C.3   180  HIS180      0.1621
     48  C         18.9670    4.9750  108.4440 C.2   180  HIS180      0.2264
     49  O         18.8210    6.1630  108.1580 O.2   180  HIS180     -0.2867
     50  CB        21.1490    3.8930  108.9100 C.3   180  HIS180      0.0745
     51  CG        22.2740    3.6100  109.8620 C.ar  180  HIS180      0.0817
     52  ND1       22.2950    4.0750  111.1580 N.ar  180  HIS180     -0.2268
     53  CD2       23.4220    2.9110  109.6950 C.ar  180  HIS180      0.1154
     54  CE1       23.4070    3.6720  111.7510 C.ar  180  HIS180      0.1986
     55  NE2       24.1080    2.9630  110.8850 N.ar  180  HIS180     -0.2212
     56  N         15.3160   -0.3360  106.8930 N.3   184  TYR184     -0.1241
     57  CA        15.8560   -1.1710  107.9530 C.3   184  TYR184      0.1605
     58  C         14.8230   -1.3950  109.0560 C.2   184  TYR184      0.2264
     59  O         15.0340   -2.2120  109.9520 O.2   184  TYR184     -0.2867
     60  CB        17.0940   -0.4970  108.5570 C.3   184  TYR184      0.0534
     61  CG        18.2380   -0.2570  107.5920 C.ar  184  TYR184     -0.0201
     62  CD1       18.0740    0.5200  106.4450 C.ar  184  TYR184     -0.0009
     63  CD2       19.4950   -0.7980  107.8390 C.ar  184  TYR184     -0.0009
     64  CE1       19.1420    0.7480  105.5710 C.ar  184  TYR184      0.0417
     65  CE2       20.5630   -0.5780  106.9750 C.ar  184  TYR184      0.0417
     66  CZ        20.3810    0.1920  105.8470 C.ar  184  TYR184      0.1957
     67  OH        21.4440    0.3860  105.0010 O.3   184  TYR184     -0.2866
     68  N         29.1950   11.9970  110.1740 N.3   201  ILE201     -0.1245
     69  CA        30.6560   12.0060  110.2000 C.3   201  ILE201      0.1561
     70  C         31.0890   13.0920  111.1650 C.2   201  ILE201      0.2260
     71  O         30.3670   14.0610  111.3830 O.2   201  ILE201     -0.2867
     72  CB        31.2770   12.3170  108.8280 C.3   201  ILE201      0.0252
     73  CG1       30.8390   13.7000  108.3620 C.3   201  ILE201      0.0019
     74  CG2       30.9020   11.2350  107.8320 C.3   201  ILE201      0.0019
     75  CD1       31.5880   14.1820  107.1690 C.3   201  ILE201      0.0001
     76  N         39.7450   10.7810  109.8860 N.3   207  LYS207     -0.1245
     77  CA        39.1470   10.6130  108.5720 C.3   207  LYS207      0.1561
     78  C         38.7120   11.9100  107.8920 C.2   207  LYS207      0.2260
     79  O         38.9370   12.1090  106.6920 O.2   207  LYS207     -0.2867
     80  CB        37.9360    9.6770  108.7060 C.3   207  LYS207      0.0271
     81  CG        37.0240    9.5920  107.4970 C.3   207  LYS207      0.0035
     82  CD        37.7350    8.9940  106.2970 C.3   207  LYS207      0.0206
     83  CE        38.3640    7.6590  106.6480 C.3   207  LYS207      0.1093
     84  NZ        37.3990    6.8770  107.4590 N.3   207  LYS207     -0.1314
     85  N         36.1890    4.7850   97.3210 N.3   235  VAL235     -0.1231
     86  CA        36.5460    4.2550   98.6240 C.3   235  VAL235      0.1692
     87  C         35.4810    3.2450   99.0270 C.2   235  VAL235      0.2593
     88  O         34.3110    3.5890   99.1090 O.2   235  VAL235     -0.2718
     89  CB        36.5560    5.3650   99.6600 C.3   235  VAL235      0.0266
     90  CG1       36.9180    4.8040  101.0260 C.3   235  VAL235      0.0020
     91  CG2       37.5110    6.4420   99.2300 C.3   235  VAL235      0.0020
     92  N         35.8590    2.0000   99.2740 N.am  236  SER236     -0.1938
     93  CA        34.8610    1.0160   99.6830 C.3   236  SER236      0.2055
     94  C         35.4580   -0.3220  100.0650 C.2   236  SER236      0.2642
     95  O         36.6230   -0.5960   99.7870 O.2   236  SER236     -0.2714
     96  CB        33.8580    0.7580   98.5710 C.3   236  SER236      0.2130
     97  OG        34.2220   -0.4280   97.8830 O.3   236  SER236     -0.2179
     98  N         34.6280   -1.1490  100.6960 N.am  237  ARG237     -0.1977
     99  CA        35.0160   -2.4900  101.1060 C.3   237  ARG237      0.1597
    100  C         35.1490   -3.2730   99.8000 C.2   237  ARG237      0.2287
    101  O         34.4490   -2.9880   98.8180 O.2   237  ARG237     -0.2864
    102  CB        33.9160   -3.1010  101.9830 C.3   237  ARG237      0.0334
    103  CG        34.4010   -4.0040  103.1080 C.3   237  ARG237      0.0492
    104  CD        34.2840   -5.4890  102.7720 C.3   237  ARG237      0.2205
    105  NE        32.9160   -5.8920  102.4470 N.pl3 237  ARG237     -0.0865
    106  CZ        32.4930   -7.1550  102.4060 C.cat 237  ARG237      0.5346
    107  NH1       33.3260   -8.1510  102.6770 N.pl3 237  ARG237      0.1354
    108  NH2       31.2370   -7.4260  102.0810 N.pl3 237  ARG237      0.1354
    109  N         29.9760   -3.6920   94.9690 N.3   242  LYS242     -0.1245
    110  CA        30.2650   -2.2980   95.2380 C.3   242  LYS242      0.1561
    111  C         30.6790   -1.5960   93.9660 C.2   242  LYS242      0.2260
    112  O         31.2520   -0.5210   94.0270 O.2   242  LYS242     -0.2867
    113  CB        31.3830   -2.1870   96.2740 C.3   242  LYS242      0.0271
    114  CG        31.1670   -3.0660   97.5000 C.3   242  LYS242      0.0035
    115  CD        30.0760   -2.5590   98.4380 C.3   242  LYS242      0.0206
    116  CE        30.6090   -1.4630   99.3400 C.3   242  LYS242      0.1093
    117  NZ        29.7010   -1.1440  100.4730 N.3   242  LYS242     -0.1314
    118  N         40.3360    2.4800   97.0790 N.3   266  VAL266     -0.1231
    119  CA        40.7490    2.5410   98.4720 C.3   266  VAL266      0.1696
    120  C         39.8700    1.7080   99.3730 C.2   266  VAL266      0.2632
    121  O         38.6550    1.7580   99.2680 O.2   266  VAL266     -0.2714
    122  CB        40.7140    4.0070   98.9690 C.3   266  VAL266      0.0266
    123  CG1       41.2550    4.0870  100.3830 C.3   266  VAL266      0.0020
    124  CG2       41.5030    4.9050   98.0100 C.3   266  VAL266      0.0020
    125  N         40.4770    0.9570  100.2790 N.am  267  GLY267     -0.1718
    126  CA        39.6680    0.1530  101.1670 C.2   267  GLY267      0.1480
    127  C         40.3240   -0.4160  102.4070 C.2   267  GLY267      0.2820
    128  O         41.3590   -1.0700  102.3270 O.2   267  GLY267     -0.2669
    129  N         39.7120   -0.1720  103.5600 N.am  268  VAL268     -0.1943
    130  CA        40.2110   -0.6850  104.8320 C.3   268  VAL268      0.1599
    131  C         39.3190   -1.8490  105.2510 C.2   268  VAL268      0.2287
    132  O         38.1050   -1.6930  105.3840 O.2   268  VAL268     -0.2864
    133  CB        40.1790    0.4110  105.9190 C.3   268  VAL268      0.0276
    134  CG1       40.4750   -0.1860  107.2780 C.3   268  VAL268      0.0022
    135  CG2       41.2140    1.4840  105.5880 C.3   268  VAL268      0.0022
    136  N         42.8430    5.5770  108.3540 N.3   304  ALA304     -0.1245
    137  CA        41.9950    6.7580  108.3390 C.3   304  ALA304      0.1562
    138  C         42.6520    8.0040  107.7660 C.2   304  ALA304      0.2260
    139  O         42.0760    8.6790  106.9150 O.2   304  ALA304     -0.2867
    140  CB        41.4900    7.0360  109.7430 C.3   304  ALA304      0.0290
    141  N         43.3760    7.6310  104.0240 N.3   307  VAL307     -0.1245
    142  CA        42.1140    7.6880  103.2960 C.3   307  VAL307      0.1561
    143  C         41.7560    9.1730  103.1220 C.2   307  VAL307      0.2260
    144  O         41.3780    9.6160  102.0380 O.2   307  VAL307     -0.2867
    145  CB        40.9780    6.9600  104.0750 C.3   307  VAL307      0.0252
    146  CG1       39.6550    7.1580  103.3690 C.3   307  VAL307      0.0019
    147  CG2       41.2880    5.4630  104.1940 C.3   307  VAL307      0.0019
    148  N         24.5190    0.3630  102.0730 N.3   325  GLY325     -0.1210
    149  CA        23.9350    0.7770  103.3300 C.3   325  GLY325      0.1956
    150  C         23.7620    2.2810  103.2090 C.2   325  GLY325      0.2612
    151  O         23.3090    2.7640  102.1660 O.2   325  GLY325     -0.2717
    152  N         24.1490    3.0330  104.2370 N.am  326  PHE326     -0.1962
    153  CA        23.9880    4.4830  104.1840 C.3   326  PHE326      0.1771
    154  C         25.0210    5.1890  103.3130 C.2   326  PHE326      0.2620
    155  O         24.7210    6.2150  102.6960 O.2   326  PHE326     -0.2715
    156  CB        24.0330    5.0900  105.5820 C.3   326  PHE326      0.0574
    157  CG        23.7860    6.5680  105.5900 C.ar  326  PHE326     -0.0200
    158  CD1       22.5080    7.0660  105.3920 C.ar  326  PHE326     -0.0042
    159  CD2       24.8440    7.4600  105.7210 C.ar  326  PHE326     -0.0042
    160  CE1       22.2870    8.4230  105.3210 C.ar  326  PHE326     -0.0003
    161  CE2       24.6390    8.8230  105.6520 C.ar  326  PHE326     -0.0003
    162  CZ        23.3580    9.3090  105.4490 C.ar  326  PHE326     -0.0000
    163  N         26.2380    4.6480  103.2890 N.am  327  GLY327     -0.1940
    164  CA        27.3090    5.2170  102.4850 C.3   327  GLY327      0.2014
    165  C         28.0560    6.3890  103.1020 C.2   327  GLY327      0.2639
    166  O         28.1720    7.4430  102.4750 O.2   327  GLY327     -0.2714
    167  N         28.5660    6.2180  104.3200 N.am  328  LEU328     -0.1963
    168  CA        29.3090    7.2860  104.9860 C.3   328  LEU328      0.1728
    169  C         30.4680    7.7440  104.1210 C.2   328  LEU328      0.2616
    170  O         30.9710    8.8490  104.3050 O.2   328  LEU328     -0.2715
    171  CB        29.8600    6.8280  106.3420 C.3   328  LEU328      0.0311
    172  CG        28.9900    6.9610  107.5910 C.3   328  LEU328      0.0022
    173  CD1       29.6910    6.2830  108.7520 C.3   328  LEU328      0.0001
    174  CD2       28.7320    8.4330  107.8960 C.3   328  LEU328      0.0001
    175  N         30.8980    6.8920  103.1900 N.am  329  THR329     -0.1951
    176  CA        31.9960    7.2530  102.2960 C.3   329  THR329      0.1897
    177  C         31.5860    8.4160  101.3980 C.2   329  THR329      0.2313
    178  O         32.3760    9.3280  101.1670 O.2   329  THR329     -0.2863
    179  CB        32.4590    6.0650  101.4180 C.3   329  THR329      0.1794
    180  OG1       31.3300    5.2570  101.0650 O.3   329  THR329     -0.2208
    181  CG2       33.4850    5.2320  102.1530 C.3   329  THR329      0.0378
    182  N         31.7420   11.5540  103.5340 N.3   332  GLU332     -0.1245
    183  CA        33.0860   12.0830  103.7410 C.3   332  GLU332      0.1567
    184  C         33.5650   12.8360  102.5050 C.2   332  GLU332      0.2260
    185  O         34.1370   13.9150  102.6130 O.2   332  GLU332     -0.2867
    186  CB        34.0500   10.9430  104.0580 C.3   332  GLU332      0.0388
    187  CG        33.4670    9.9080  104.9860 C.3   332  GLU332      0.1160
    188  CD        34.3840    8.7170  105.2000 C.2   332  GLU332      0.3649
    189  OE1       34.9930    8.2350  104.2160 O.co2 332  GLU332     -0.2457
    190  OE2       34.4810    8.2570  106.3570 O.co2 332  GLU332     -0.2457
@<TRIPOS>BOND
     1   111   112    2
     2   111   110    1
     3   109   110    1
     4   110   113    1
     5   113   114    1
     6   118   119    1
     7    85    86    1
     8   114   115    1
     9    97    96    1
    10   124   122    1
    11   115   116    1
    12   119   122    1
    13   119   120    1
    14    96    93    1
    15    86    87    1
    16    86    89    1
    17   101   100    2
    18   122   123    1
    19    87    88    2
    20    87    92   am
    21    91    89    1
    22   121   120    2
    23    92    93    1
    24   116   117    1
    25   120   125    1
    26    89    90    1
    27    93    94    1
    28    95    94    2
    29   100    99    1
    30    94    98   am
    31   125   126    2
    32    98    99    1
    33   180   179    1
    34    99   102    1
    35   178   177    2
    36   126   127    1
    37   177   176    1
    38   179   181    1
    39   179   176    1
    40   102   103    1
    41   144   143    2
    42   148   149    1
    43   108   106    1
    44   151   150    2
    45   176   175    1
    46   128   127    2
    47   106   105    2
    48   106   107    1
    49   127   129   am
    50   105   104    1
    51   166   165    2
    52   164   165    1
    53   164   163    1
    54   184   185    2
    55   184   183    1
    56   155   154    2
    57   104   103    1
    58   165   167   am
    59   143   142    1
    60   175   169   am
    61   150   149    1
    62   150   152   am
    63   163   154   am
    64   142   141    1
    65   142   145    1
    66   154   153    1
    67   146   145    1
    68   182   183    1
    69   129   130    1
    70   183   186    1
    71   186   187    1
    72   145   147    1
    73   169   170    2
    74   169   168    1
    75   153   152    1
    76   153   156    1
    77   189   188   ar
    78   167   168    1
    79   130   131    1
    80   130   133    1
    81   187   188    1
    82   168   171    1
    83    67    66    1
    84    45    43   ar
    85   188   190   ar
    86   131   132    2
    87   160   158   ar
    88   160   162   ar
    89   158   157   ar
    90   162   161   ar
    91    64    66   ar
    92    64    62   ar
    93   156   157    1
    94   135   133    1
    95   157   159   ar
    96    14    13    2
    97   161   159   ar
    98    43    44   ar
    99    43    42    1
   100    66    65   ar
   101   133   134    1
   102    82    83    1
   103    82    81    1
   104   171   172    1
   105    13    12    1
   106    62    61   ar
   107    42    39    1
   108    83    84    1
   109    79    78    2
   110    56    57    1
   111   139   138    2
   112    65    63   ar
   113    75    73    1
   114    12    15    1
   115    12    11    1
   116    15    16    1
   117    81    80    1
   118   172   174    1
   119   172   173    1
   120    61    63   ar
   121    61    60    1
   122   138   137    1
   123    74    72    1
   124    19    17   am
   125    78    77    1
   126    57    60    1
   127    57    58    1
   128    39    40    1
   129    39    38    1
   130    49    48    2
   131   137   136    1
   132   137   140    1
   133    16    17    1
   134    73    72    1
   135    17    18    2
   136    48    47    1
   137    77    80    1
   138    77    76    1
   139    40    41    2
   140    38    32   am
   141    72    69    1
   142    50    47    1
   143    50    51    1
   144    58    59    2
   145    47    46    1
   146    53    51   ar
   147    53    55   ar
   148    51    52   ar
   149    32    33    2
   150    32    31    1
   151    68    69    1
   152    69    70    1
   153     9     7   ar
   154     9    10   ar
   155    31    34    1
   156    31    30    1
   157     4     3    2
   158    55    54   ar
   159     7     6   ar
   160    34    36    1
   161    34    35    1
   162    52    54   ar
   163    70    71    2
   164    10     8   ar
   165    23    22    2
   166     3     2    1
   167    30    22   am
   168    22    21    1
   169    35    37    1
   170     6     8   ar
   171     6     5    1
   172     2     5    1
   173     2     1    1
   174    21    24    1
   175    21    20    1
   176    24    25    1
   177    26    25   ar
   178    26    28   ar
   179    25    27   ar
   180    28    29   ar
   181    27    29   ar
