@<TRIPOS>MOLECULE
tmp/2xadD03.pdb
 129 124 0 0 0
SMALL
GASTEIGER

@<TRIPOS>ATOM
      1  N         -7.0650   18.8260   21.2270 N.3     9  HIS9       -0.1241
      2  CA        -6.1890   18.8300   22.3670 C.3     9  HIS9        0.1621
      3  C         -5.3240   20.0420   22.3610 C.2     9  HIS9        0.2264
      4  O         -5.2650   20.7830   21.3500 O.2     9  HIS9       -0.2867
      5  CB        -5.2880   17.5950   22.3880 C.3     9  HIS9        0.0745
      6  CG        -6.0770   16.3230   22.3700 C.ar    9  HIS9        0.0817
      7  ND1       -6.1270   15.5070   21.2600 N.ar    9  HIS9       -0.2268
      8  CD2       -6.8830   15.7550   23.2990 C.ar    9  HIS9        0.1154
      9  CE1       -6.9190   14.4730   21.5090 C.ar    9  HIS9        0.1986
     10  NE2       -7.3760   14.5870   22.7510 N.ar    9  HIS9       -0.2212
     11  N         -2.4480   21.6250   21.6570 N.3    11  ASP11      -0.1225
     12  CA        -1.3180   21.5300   20.6830 C.3    11  ASP11       0.1805
     13  C         -1.7660   21.1460   19.2550 C.2    11  ASP11       0.2597
     14  O         -1.0120   21.3640   18.3040 O.2    11  ASP11      -0.2718
     15  CB        -0.1010   20.6820   21.0630 C.3    11  ASP11       0.1424
     16  CG        -0.4010   19.1850   21.2210 C.2    11  ASP11       0.3668
     17  OD1       -1.4980   18.6970   20.8870 O.co2  11  ASP11      -0.2456
     18  OD2        0.5470   18.4800   21.7060 O.co2  11  ASP11      -0.2456
     19  N         -2.9400   20.5490   19.0900 N.am   12  ASP12      -0.1974
     20  CA        -3.3260   20.0560   17.7710 C.3    12  ASP12       0.1709
     21  C         -3.3790   21.0900   16.6590 C.2    12  ASP12       0.2293
     22  O         -2.8510   20.9050   15.5670 O.2    12  ASP12      -0.2864
     23  CB        -4.7010   19.2980   17.8260 C.3    12  ASP12       0.1436
     24  CG        -4.5690   17.9430   18.4770 C.2    12  ASP12       0.3671
     25  OD1       -3.6100   17.1570   18.1510 O.co2  12  ASP12      -0.2456
     26  OD2       -5.4890   17.5930   19.2540 O.co2  12  ASP12      -0.2456
     27  N          0.2230   22.0990   15.8100 N.3    15  LEU15      -0.1245
     28  CA         1.0020   21.0730   15.0580 C.3    15  LEU15       0.1561
     29  C          0.4640   20.8420   13.6530 C.2    15  LEU15       0.2260
     30  O          1.2350   20.6970   12.7330 O.2    15  LEU15      -0.2867
     31  CB         0.8860   19.7320   15.7160 C.3    15  LEU15       0.0270
     32  CG         1.6690   19.4670   16.9710 C.3    15  LEU15       0.0019
     33  CD1        0.9800   18.2890   17.7120 C.3    15  LEU15       0.0001
     34  CD2        3.0920   19.0900   16.4970 C.3    15  LEU15       0.0001
     35  N         -8.6250    9.3040   16.7010 N.3   153  HIS153     -0.1241
     36  CA        -8.7140    9.6180   18.0850 C.3   153  HIS153      0.1621
     37  C        -10.1520   10.0560   18.4430 C.2   153  HIS153      0.2264
     38  O        -10.7140   10.8310   17.7310 O.2   153  HIS153     -0.2867
     39  CB        -7.7670   10.8210   18.3800 C.3   153  HIS153      0.0745
     40  CG        -7.5630   11.0090   19.8410 C.ar  153  HIS153      0.0817
     41  ND1       -6.3080   11.0380   20.4450 N.ar  153  HIS153     -0.2268
     42  CD2       -8.4800   11.1750   20.8360 C.ar  153  HIS153      0.1154
     43  CE1       -6.4690   11.1760   21.7610 C.ar  153  HIS153      0.1986
     44  NE2       -7.7710   11.2760   22.0130 N.ar  153  HIS153     -0.2212
     45  N        -10.7480   13.6780   18.8140 N.3   156  ASN156     -0.1240
     46  CA       -10.6480   14.4030   17.5540 C.3   156  ASN156      0.1653
     47  C        -11.9810   14.1830   16.7510 C.2   156  ASN156      0.2266
     48  O        -12.5090   15.1330   16.1120 O.2   156  ASN156     -0.2867
     49  CB        -9.4670   13.9820   16.7150 C.3   156  ASN156      0.1155
     50  CG        -8.1500   14.2530   17.3770 C.2   156  ASN156      0.2627
     51  OD1       -8.0750   14.2950   18.6220 O.2   156  ASN156     -0.2716
     52  ND2       -7.1060   14.4350   16.5890 N.am  156  ASN156     -0.0877
     53  N         -1.7380   15.9930   12.1890 N.3   180  LEU180     -0.1231
     54  CA        -0.3100   15.6180   12.3550 C.3   180  LEU180      0.1678
     55  C         -0.0900   15.2620   13.8190 C.2   180  LEU180      0.2434
     56  O         -0.6810   15.8870   14.7060 O.2   180  LEU180     -0.2733
     57  CB         0.5430   16.7950   11.9000 C.3   180  LEU180      0.0284
     58  CG         0.2880   17.2910   10.4670 C.3   180  LEU180      0.0019
     59  CD1        1.3420   18.3950   10.1780 C.3   180  LEU180      0.0001
     60  CD2        0.4440   16.1160    9.5260 C.3   180  LEU180      0.0001
     61  N          0.7440   14.2440   14.0980 N.am  181  PRO181     -0.2718
     62  CA         1.5470   13.4890   13.1150 C.3   181  PRO181      0.1535
     63  C          0.8150   12.3370   12.4910 C.2   181  PRO181      0.2598
     64  O          1.4280   11.6480   11.6640 O.2   181  PRO181     -0.2715
     65  CB         2.6270   12.8920   14.0120 C.3   181  PRO181      0.0310
     66  CG         1.7980   12.4800   15.3170 C.3   181  PRO181      0.0237
     67  CD         1.0060   13.8110   15.4920 C.3   181  PRO181      0.0939
     68  N         -0.4760   12.1010   12.8410 N.am  182  TYR182     -0.1974
     69  CA        -1.2410   10.9320   12.4060 C.3   182  TYR182      0.1639
     70  C         -1.1650   10.6370   10.8950 C.2   182  TYR182      0.2290
     71  O         -1.1000    9.4520   10.5160 O.2   182  TYR182     -0.2864
     72  CB        -2.7350   10.9680   12.7700 C.3   182  TYR182      0.0560
     73  CG        -2.9410   10.9150   14.2770 C.ar  182  TYR182     -0.0198
     74  CD1       -2.8690    9.7140   14.9620 C.ar  182  TYR182     -0.0009
     75  CD2       -3.1890   12.0590   14.9870 C.ar  182  TYR182     -0.0009
     76  CE1       -2.9800    9.6860   16.3710 C.ar  182  TYR182      0.0417
     77  CE2       -3.3030   12.0280   16.3840 C.ar  182  TYR182      0.0417
     78  CZ        -3.2240   10.8270   17.0340 C.ar  182  TYR182      0.1957
     79  OH        -3.3420   10.7640   18.4390 O.3   182  TYR182     -0.2866
     80  N          5.3850   25.2000   18.1210 N.3   217  VAL217     -0.1245
     81  CA         5.3970   23.7710   18.4080 C.3   217  VAL217      0.1561
     82  C          6.3430   23.5220   19.6120 C.2   217  VAL217      0.2260
     83  O          6.0070   22.7880   20.5390 O.2   217  VAL217     -0.2867
     84  CB         5.7610   22.8910   17.1860 C.3   217  VAL217      0.0252
     85  CG1        6.0850   21.4600   17.6910 C.3   217  VAL217      0.0019
     86  CG2        4.6280   22.8000   16.1770 C.3   217  VAL217      0.0019
     87  N          5.3330   23.4680   23.4340 N.3   220  TYR220     -0.1241
     88  CA         4.5690   22.3590   24.0680 C.3   220  TYR220      0.1605
     89  C          5.6100   21.3320   24.5560 C.2   220  TYR220      0.2264
     90  O          5.6250   20.1450   24.1250 O.2   220  TYR220     -0.2867
     91  CB         3.6530   21.6750   23.0480 C.3   220  TYR220      0.0534
     92  CG         2.5050   22.5620   22.5910 C.ar  220  TYR220     -0.0201
     93  CD1        1.3850   22.7770   23.4010 C.ar  220  TYR220     -0.0009
     94  CD2        2.5480   23.2020   21.3490 C.ar  220  TYR220     -0.0009
     95  CE1        0.3360   23.6250   23.0150 C.ar  220  TYR220      0.0417
     96  CE2        1.4650   24.0450   20.9170 C.ar  220  TYR220      0.0417
     97  CZ         0.3610   24.2210   21.7690 C.ar  220  TYR220      0.1957
     98  OH        -0.6560   25.0300   21.3960 O.3   220  TYR220     -0.2866
     99  N          5.0340   17.4300   25.4960 N.3   223  GLN223     -0.1245
    100  CA         4.6710   16.5190   24.4240 C.3   223  GLN223      0.1566
    101  C          5.8720   16.1930   23.5630 C.2   223  GLN223      0.2260
    102  O          5.7840   15.2490   22.7410 O.2   223  GLN223     -0.2867
    103  CB         3.6290   17.2410   23.5820 C.3   223  GLN223      0.0367
    104  CG         2.4030   17.6510   24.3560 C.3   223  GLN223      0.0905
    105  CD         1.6970   16.4750   25.0610 C.2   223  GLN223      0.2608
    106  OE1        1.2230   15.5100   24.3940 O.2   223  GLN223     -0.2717
    107  NE2        1.6420   16.5390   26.4110 N.am  223  GLN223     -0.0878
    108  N         10.4750   17.7330   13.6320 N.3   225  PHE225     -0.1241
    109  CA        10.4130   18.8370   12.6810 C.3   225  PHE225      0.1605
    110  C         10.8550   18.3500   11.2930 C.2   225  PHE225      0.2264
    111  O         10.3410   18.8410   10.2870 O.2   225  PHE225     -0.2867
    112  CB        11.2180   20.0550   13.1590 C.3   225  PHE225      0.0534
    113  CG        10.7210   20.6320   14.4660 C.ar  225  PHE225     -0.0203
    114  CD1        9.4550   21.2390   14.5500 C.ar  225  PHE225     -0.0042
    115  CD2       11.5100   20.5790   15.6070 C.ar  225  PHE225     -0.0042
    116  CE1        8.9820   21.7760   15.7740 C.ar  225  PHE225     -0.0003
    117  CE2       11.0530   21.1250   16.8320 C.ar  225  PHE225     -0.0003
    118  CZ         9.7860   21.7150   16.9000 C.ar  225  PHE225     -0.0000
    119  N         10.4320   15.1380    9.9900 N.3   227  ARG227     -0.1245
    120  CA         9.2790   14.4120    9.4360 C.3   227  ARG227      0.1563
    121  C          8.1920   15.4030    8.9380 C.2   227  ARG227      0.2260
    122  O          7.5910   15.1900    7.8950 O.2   227  ARG227     -0.2867
    123  CB         8.6910   13.4410   10.4860 C.3   227  ARG227      0.0307
    124  CG         7.1630   13.2970   10.4250 C.3   227  ARG227      0.0489
    125  CD         6.6140   11.9680   11.0280 C.3   227  ARG227      0.2205
    126  NE         6.4610   11.9080   12.4870 N.pl3 227  ARG227     -0.0865
    127  CZ         5.9050   10.8900   13.1240 C.cat 227  ARG227      0.5346
    128  NH1        5.7990   10.8900   14.4650 N.pl3 227  ARG227      0.1354
    129  NH2        5.4430    9.8500   12.4380 N.pl3 227  ARG227      0.1354
@<TRIPOS>BOND
     1   122   121    2
     2   121   120    1
     3   120   119    1
     4   120   123    1
     5    60    58    1
     6    59    58    1
     7   111   110    2
     8   124   123    1
     9   124   125    1
    10    58    57    1
    11    71    70    2
    12    70    69    1
    13   125   126    1
    14   110   109    1
    15    64    63    2
    16    57    54    1
    17    53    54    1
    18    54    55    1
    19    69    72    1
    20    69    68    1
    21   129   127    1
    22   126   127    2
    23    63    68   am
    24    63    62    1
    25   109   112    1
    26   109   108    1
    27    30    29    2
    28    72    73    1
    29    62    65    1
    30    62    61    1
    31   127   128    1
    32   112   113    1
    33    29    28    1
    34    55    61   am
    35    55    56    2
    36    65    66    1
    37    61    67    1
    38    73    74   ar
    39    73    75   ar
    40   113   114   ar
    41   113   115   ar
    42   114   116   ar
    43    74    76   ar
    44    75    77   ar
    45    28    31    1
    46    28    27    1
    47    66    67    1
    48    22    21    2
    49   115   117   ar
    50    31    32    1
    51   116   118   ar
    52    48    47    2
    53    86    84    1
    54    76    78   ar
    55    77    78   ar
    56    34    32    1
    57    52    50   am
    58    21    20    1
    59    35    36    1
    60    49    50    1
    61    49    46    1
    62    47    46    1
    63   117   118   ar
    64    32    33    1
    65    78    79    1
    66    84    85    1
    67    84    81    1
    68    50    51    2
    69    46    45    1
    70    38    37    2
    71    20    23    1
    72    20    19    1
    73    23    24    1
    74    36    39    1
    75    36    37    1
    76    80    81    1
    77    25    24   ar
    78    14    13    2
    79    39    40    1
    80    81    82    1
    81    24    26   ar
    82    19    13   am
    83    13    12    1
    84    82    83    2
    85    40    41   ar
    86    40    42   ar
    87    41    43   ar
    88    12    15    1
    89    12    11    1
    90    42    44   ar
    91    17    16   ar
    92    96    94   ar
    93    96    97   ar
    94    15    16    1
    95    16    18   ar
    96     1     2    1
    97     7     9   ar
    98     7     6   ar
    99    94    92   ar
   100     4     3    2
   101    98    97    1
   102     9    10   ar
   103    43    44   ar
   104    97    95   ar
   105     3     2    1
   106     2     5    1
   107     6     5    1
   108     6     8   ar
   109    92    91    1
   110    92    93   ar
   111   102   101    2
   112    10     8   ar
   113    95    93   ar
   114    91    88    1
   115    87    88    1
   116   101   100    1
   117   103   104    1
   118   103   100    1
   119    88    89    1
   120    90    89    2
   121   104   105    1
   122   106   105    2
   123   100    99    1
   124   105   107   am
