@<TRIPOS>MOLECULE
tmp/2xadD00.pdb
 174 172 0 0 0
SMALL
GASTEIGER

@<TRIPOS>ATOM
      1  N         -7.0650   18.8260   21.2270 N.3     9  HIS9       -0.1241
      2  CA        -6.1890   18.8300   22.3670 C.3     9  HIS9        0.1621
      3  C         -5.3240   20.0420   22.3610 C.2     9  HIS9        0.2264
      4  O         -5.2650   20.7830   21.3500 O.2     9  HIS9       -0.2867
      5  CB        -5.2880   17.5950   22.3880 C.3     9  HIS9        0.0745
      6  CG        -6.0770   16.3230   22.3700 C.ar    9  HIS9        0.0817
      7  ND1       -6.1270   15.5070   21.2600 N.ar    9  HIS9       -0.2268
      8  CD2       -6.8830   15.7550   23.2990 C.ar    9  HIS9        0.1154
      9  CE1       -6.9190   14.4730   21.5090 C.ar    9  HIS9        0.1986
     10  NE2       -7.3760   14.5870   22.7510 N.ar    9  HIS9       -0.2212
     11  N          5.0630   12.4960   29.8000 N.3    55  TRP55      -0.1241
     12  CA         5.0910   13.9490   29.5660 C.3    55  TRP55       0.1605
     13  C          5.9990   14.7030   30.5100 C.2    55  TRP55       0.2264
     14  O          6.0130   15.9550   30.4930 O.2    55  TRP55      -0.2867
     15  CB         3.6720   14.5620   29.6460 C.3    55  TRP55       0.0550
     16  CG         2.7480   13.9820   28.6010 C.ar   55  TRP55       0.0003
     17  CD1        3.1090   13.4370   27.4380 C.ar   55  TRP55       0.0946
     18  CD2        1.3020   13.9510   28.6230 C.ar   55  TRP55       0.0152
     19  NE1        2.0240   12.9710   26.7580 N.ar   55  TRP55      -0.2442
     20  CE2        0.8900   13.3390   27.4460 C.ar   55  TRP55       0.0810
     21  CE3        0.3150   14.4020   29.5420 C.ar   55  TRP55       0.0012
     22  CZ2       -0.4860   13.1360   27.1260 C.ar   55  TRP55       0.0191
     23  CZ3       -0.9840   14.1500   29.2780 C.ar   55  TRP55       0.0001
     24  CH2       -1.4070   13.5760   28.0440 C.ar   55  TRP55       0.0015
     25  N         -9.3890   12.2950   26.8240 N.3    90  SER90      -0.1217
     26  CA        -9.9320   10.9250   26.8810 C.3    90  SER90       0.1889
     27  C         -9.4520   10.1730   28.1240 C.2    90  SER90       0.2288
     28  O        -10.2310    9.3300   28.6150 O.2    90  SER90      -0.2866
     29  CB        -9.4880   10.1770   25.6110 C.3    90  SER90       0.2089
     30  OG        -8.0570    9.9310   25.6160 O.3    90  SER90      -0.2183
     31  N        -10.5310    5.0280   28.7630 N.3   102  THR102     -0.1218
     32  CA        -9.2640    4.5150   28.1500 C.3   102  THR102      0.1862
     33  C         -8.6200    3.6110   29.1660 C.2   102  THR102      0.2287
     34  O         -8.6000    3.8470   30.3760 O.2   102  THR102     -0.2866
     35  CB        -8.2720    5.6340   27.7350 C.3   102  THR102      0.1770
     36  OG1       -8.0420    6.4340   28.8740 O.3   102  THR102     -0.2211
     37  CG2       -8.9190    6.6070   26.6410 C.3   102  THR102      0.0375
     38  N          4.4980   -0.5820   24.6870 N.3   108  ARG108     -0.1231
     39  CA         4.5690    0.6800   23.9580 C.3   108  ARG108      0.1694
     40  C          3.2050    1.2840   23.6370 C.2   108  ARG108      0.2592
     41  O          3.1030    2.4870   23.4670 O.2   108  ARG108     -0.2718
     42  CB         5.3420    0.5010   22.6510 C.3   108  ARG108      0.0321
     43  CG         6.8100   -0.0190   22.8840 C.3   108  ARG108      0.0489
     44  CD         7.6210   -0.1010   21.5590 C.3   108  ARG108      0.2205
     45  NE         7.4350    1.0320   20.6400 N.pl3 108  ARG108     -0.0865
     46  CZ         7.7030    0.9600   19.3330 C.cat 108  ARG108      0.5346
     47  NH1        7.5220    2.0190   18.5310 N.pl3 108  ARG108      0.1354
     48  NH2        8.1680   -0.1830   18.8400 N.pl3 108  ARG108      0.1354
     49  N          2.1820    0.4420   23.5550 N.am  109  GLN109     -0.1966
     50  CA         0.8600    0.8900   23.0940 C.3   109  GLN109      0.1733
     51  C          0.2760    1.9640   24.0230 C.2   109  GLN109      0.2616
     52  O         -0.2680    2.9950   23.5760 O.2   109  GLN109     -0.2715
     53  CB        -0.1220   -0.2650   23.0140 C.3   109  GLN109      0.0408
     54  CG        -1.4620    0.2000   22.5220 C.3   109  GLN109      0.0908
     55  CD        -2.3880   -0.9480   22.1730 C.2   109  GLN109      0.2608
     56  OE1       -1.9510   -2.0180   21.6760 O.2   109  GLN109     -0.2717
     57  NE2       -3.6660   -0.7390   22.4050 N.am  109  GLN109     -0.0878
     58  N          0.3890    1.7110   25.3280 N.am  110  LYS110     -0.1963
     59  CA         0.0990    2.7020   26.3850 C.3   110  LYS110      0.1728
     60  C         -1.3910    2.8290   26.6430 C.2   110  LYS110      0.2616
     61  O         -1.8040    2.8140   27.8150 O.2   110  LYS110     -0.2715
     62  CB         0.6920    4.1300   26.0900 C.3   110  LYS110      0.0311
     63  CG         2.2140    4.1560   26.1100 C.3   110  LYS110      0.0038
     64  CD         2.7940    5.5020   25.7100 C.3   110  LYS110      0.0206
     65  CE         4.2470    5.2630   25.1780 C.3   110  LYS110      0.1093
     66  NZ         4.9620    6.5480   24.9320 N.3   110  LYS110     -0.1314
     67  N         -2.1690    3.0260   25.5510 N.am  111  LEU111     -0.1963
     68  CA        -3.6130    3.3190   25.6330 C.3   111  LEU111      0.1728
     69  C         -4.4640    2.5680   24.6550 C.2   111  LEU111      0.2616
     70  O         -4.0440    2.3590   23.5320 O.2   111  LEU111     -0.2715
     71  CB        -3.8970    4.7970   25.3100 C.3   111  LEU111      0.0311
     72  CG        -3.1820    5.8900   26.0840 C.3   111  LEU111      0.0022
     73  CD1       -3.5400    7.3320   25.5320 C.3   111  LEU111      0.0001
     74  CD2       -3.5770    5.7900   27.5970 C.3   111  LEU111      0.0001
     75  N         -5.6860    2.2150   25.0600 N.am  112  ALA112     -0.1963
     76  CA        -6.6530    1.6080   24.1510 C.3   112  ALA112      0.1728
     77  C         -8.0110    2.0810   24.6510 C.2   112  ALA112      0.2616
     78  O         -8.2400    2.0210   25.8860 O.2   112  ALA112     -0.2715
     79  CB        -6.5780    0.0450   24.2510 C.3   112  ALA112      0.0334
     80  N         -8.9230    2.4690   23.7470 N.am  113  VAL113     -0.1977
     81  CA       -10.2560    2.9240   24.2300 C.3   113  VAL113      0.1596
     82  C        -11.1460    1.6730   24.4760 C.2   113  VAL113      0.2287
     83  O        -11.1250    0.7450   23.6860 O.2   113  VAL113     -0.2864
     84  CB       -10.8510    3.7990   23.2390 C.3   113  VAL113      0.0276
     85  CG1      -12.2760    4.0760   23.5900 C.3   113  VAL113      0.0022
     86  CG2      -10.0410    5.1090   23.1310 C.3   113  VAL113      0.0022
     87  N        -14.5800   -0.5370   24.6220 N.3   115  ASP115     -0.1239
     88  CA       -15.7270   -0.5450   23.7610 C.3   115  ASP115      0.1674
     89  C        -16.9320   -0.0930   24.6060 C.2   115  ASP115      0.2266
     90  O        -17.0040   -0.3890   25.7900 O.2   115  ASP115     -0.2867
     91  CB       -16.1030   -1.9650   23.2370 C.3   115  ASP115      0.1410
     92  CG       -15.1350   -2.5120   22.2230 C.2   115  ASP115      0.3668
     93  OD1      -15.1790   -3.7410   21.9360 O.co2 115  ASP115     -0.2456
     94  OD2      -14.2330   -1.7730   21.7540 O.co2 115  ASP115     -0.2456
     95  N         -6.5500    9.2490   12.0050 N.3   151  GLY151     -0.1210
     96  CA        -5.9900    8.6070   13.2650 C.3   151  GLY151      0.1956
     97  C         -7.0600    8.0390   14.1820 C.2   151  GLY151      0.2612
     98  O         -6.7580    7.2110   15.0360 O.2   151  GLY151     -0.2717
     99  N         -8.2750    8.5550   14.0370 N.am  152  GLU152     -0.1965
    100  CA        -9.4860    8.1850   14.7380 C.3   152  GLU152      0.1733
    101  C         -9.4320    8.3480   16.2440 C.2   152  GLU152      0.2616
    102  O        -10.0500    7.6120   16.9830 O.2   152  GLU152     -0.2715
    103  CB        -9.9180    6.7090   14.3790 C.3   152  GLU152      0.0429
    104  CG        -9.9580    6.5310   12.8250 C.3   152  GLU152      0.1163
    105  CD       -10.0800    5.0300   12.5060 C.2   152  GLU152      0.3649
    106  OE1       -9.0560    4.4150   12.1620 O.co2 152  GLU152     -0.2457
    107  OE2      -11.1400    4.4500   12.7490 O.co2 152  GLU152     -0.2457
    108  N         -8.6250    9.3040   16.7010 N.am  153  HIS153     -0.1960
    109  CA        -8.7140    9.6180   18.0850 C.3   153  HIS153      0.1772
    110  C        -10.1520   10.0560   18.4430 C.2   153  HIS153      0.2462
    111  O        -10.7140   10.8310   17.7310 O.2   153  HIS153     -0.2730
    112  CB        -7.7670   10.8210   18.3800 C.3   153  HIS153      0.0785
    113  CG        -7.5630   11.0090   19.8410 C.ar  153  HIS153      0.0821
    114  ND1       -6.3080   11.0380   20.4450 N.ar  153  HIS153     -0.2267
    115  CD2       -8.4800   11.1750   20.8360 C.ar  153  HIS153      0.1154
    116  CE1       -6.4690   11.1760   21.7610 C.ar  153  HIS153      0.1986
    117  NE2       -7.7710   11.2760   22.0130 N.ar  153  HIS153     -0.2212
    118  N        -10.7590    9.4870   19.4880 N.am  154  PRO154     -0.2727
    119  CA       -12.1810    9.7240   19.7950 C.3   154  PRO154      0.1402
    120  C        -12.4400   11.2020   20.1030 C.2   154  PRO154      0.2269
    121  O        -13.5430   11.7250   19.8210 O.2   154  PRO154     -0.2865
    122  CB       -12.4420    8.7760   20.9750 C.3   154  PRO154      0.0296
    123  CG       -11.1190    8.6690   21.6590 C.3   154  PRO154      0.0237
    124  CD       -10.1920    8.4600   20.3970 C.3   154  PRO154      0.0939
    125  N          0.7440   14.2440   14.0980 N.3   181  PRO181     -0.2102
    126  CA         1.5470   13.4890   13.1150 C.3   181  PRO181      0.1504
    127  C          0.8150   12.3370   12.4910 C.2   181  PRO181      0.2575
    128  O          1.4280   11.6480   11.6640 O.2   181  PRO181     -0.2718
    129  CB         2.6270   12.8920   14.0120 C.3   181  PRO181      0.0282
    130  CG         1.7980   12.4800   15.3170 C.3   181  PRO181      0.0208
    131  CD         1.0060   13.8110   15.4920 C.3   181  PRO181      0.0893
    132  N         -0.4760   12.1010   12.8410 N.am  182  TYR182     -0.1977
    133  CA        -1.2410   10.9320   12.4060 C.3   182  TYR182      0.1639
    134  C         -1.1650   10.6370   10.8950 C.2   182  TYR182      0.2290
    135  O         -1.1000    9.4520   10.5160 O.2   182  TYR182     -0.2864
    136  CB        -2.7350   10.9680   12.7700 C.3   182  TYR182      0.0560
    137  CG        -2.9410   10.9150   14.2770 C.ar  182  TYR182     -0.0198
    138  CD1       -2.8690    9.7140   14.9620 C.ar  182  TYR182     -0.0009
    139  CD2       -3.1890   12.0590   14.9870 C.ar  182  TYR182     -0.0009
    140  CE1       -2.9800    9.6860   16.3710 C.ar  182  TYR182      0.0417
    141  CE2       -3.3030   12.0280   16.3840 C.ar  182  TYR182      0.0417
    142  CZ        -3.2240   10.8270   17.0340 C.ar  182  TYR182      0.1957
    143  OH        -3.3420   10.7640   18.4390 O.3   182  TYR182     -0.2866
    144  N          1.6100    8.3070    9.4520 N.3   185  PHE185     -0.1227
    145  CA         1.4860    6.8500    9.6870 C.3   185  PHE185      0.1736
    146  C          0.0870    6.2600    9.6060 C.2   185  PHE185      0.2595
    147  O         -0.1280    5.1020    9.9320 O.2   185  PHE185     -0.2718
    148  CB         2.1310    6.3820   11.0350 C.3   185  PHE185      0.0547
    149  CG         1.6100    7.0940   12.2840 C.ar  185  PHE185     -0.0202
    150  CD1        0.7510    6.4490   13.1590 C.ar  185  PHE185     -0.0042
    151  CD2        2.0370    8.3920   12.5770 C.ar  185  PHE185     -0.0042
    152  CE1        0.2630    7.1400   14.3680 C.ar  185  PHE185     -0.0003
    153  CE2        1.5950    9.0550   13.7550 C.ar  185  PHE185     -0.0003
    154  CZ         0.6900    8.4360   14.6100 C.ar  185  PHE185     -0.0000
    155  N         -0.9070    7.0730    9.2350 N.am  186  LYS186     -0.1980
    156  CA        -2.2520    6.5930    9.1450 C.3   186  LYS186      0.1596
    157  C         -2.8120    6.9610    7.7780 C.2   186  LYS186      0.2287
    158  O         -2.3120    7.8800    7.0760 O.2   186  LYS186     -0.2864
    159  CB        -3.1490    7.2080   10.2570 C.3   186  LYS186      0.0298
    160  CG        -2.7420    6.8020   11.6470 C.3   186  LYS186      0.0038
    161  CD        -3.1750    5.3790   11.8460 C.3   186  LYS186      0.0206
    162  CE        -3.0670    4.9560   13.2640 C.3   186  LYS186      0.1093
    163  NZ        -3.7440    3.6450   13.4580 N.3   186  LYS186     -0.1314
    164  N         10.4320   15.1380    9.9900 N.3   227  ARG227     -0.1245
    165  CA         9.2790   14.4120    9.4360 C.3   227  ARG227      0.1563
    166  C          8.1920   15.4030    8.9380 C.2   227  ARG227      0.2260
    167  O          7.5910   15.1900    7.8950 O.2   227  ARG227     -0.2867
    168  CB         8.6910   13.4410   10.4860 C.3   227  ARG227      0.0307
    169  CG         7.1630   13.2970   10.4250 C.3   227  ARG227      0.0489
    170  CD         6.6140   11.9680   11.0280 C.3   227  ARG227      0.2205
    171  NE         6.4610   11.9080   12.4870 N.pl3 227  ARG227     -0.0865
    172  CZ         5.9050   10.8900   13.1240 C.cat 227  ARG227      0.5346
    173  NH1        5.7990   10.8900   14.4650 N.pl3 227  ARG227      0.1354
    174  NH2        5.4430    9.8500   12.4380 N.pl3 227  ARG227      0.1354
@<TRIPOS>BOND
     1   158   157    2
     2   157   156    1
     3   167   166    2
     4   166   165    1
     5   156   155    1
     6   156   159    1
     7   155   146   am
     8   165   164    1
     9   165   168    1
    10   144   145    1
    11   146   145    1
    12   146   147    2
    13   145   148    1
    14   159   160    1
    15   169   168    1
    16   169   170    1
    17   135   134    2
    18   134   133    1
    19   170   171    1
    20   148   149    1
    21   160   161    1
    22   128   127    2
    23   161   162    1
    24    95    96    1
    25   106   105   ar
    26   149   151   ar
    27   149   150   ar
    28   133   136    1
    29   133   132    1
    30   174   172    1
    31   171   172    2
    32   127   132   am
    33   127   126    1
    34   105   107   ar
    35   105   104    1
    36   151   153   ar
    37   136   137    1
    38   104   103    1
    39   126   129    1
    40   126   125    1
    41   172   173    1
    42   150   152   ar
    43   162   163    1
    44    96    97    1
    45   153   154   ar
    46   129   130    1
    47    99    97   am
    48    99   100    1
    49   125   131    1
    50    97    98    2
    51   137   138   ar
    52   137   139   ar
    53   152   154   ar
    54   103   100    1
    55   100   101    1
    56   138   140   ar
    57   139   141   ar
    58   130   131    1
    59   101   108   am
    60   101   102    2
    61   140   142   ar
    62   141   142   ar
    63   108   109    1
    64   142   143    1
    65   111   110    2
    66   109   112    1
    67   109   110    1
    68   112   113    1
    69   110   118   am
    70    47    46    1
    71    48    46    1
    72    46    45    2
    73   118   119    1
    74   118   124    1
    75   119   120    1
    76   119   122    1
    77   121   120    2
    78   113   114   ar
    79   113   115   ar
    80   124   123    1
    81   114   116   ar
    82    45    44    1
    83   115   117   ar
    84   122   123    1
    85     1     2    1
    86     7     9   ar
    87     7     6   ar
    88     4     3    2
    89     9    10   ar
    90    44    43    1
    91    56    55    2
    92    94    92   ar
    93   116   117   ar
    94    93    92   ar
    95    55    57   am
    96    55    54    1
    97    92    91    1
    98     3     2    1
    99     2     5    1
   100     6     5    1
   101     6     8   ar
   102    54    53    1
   103    42    43    1
   104    42    39    1
   105    10     8   ar
   106    53    50    1
   107    50    49    1
   108    50    51    1
   109    86    84    1
   110    91    88    1
   111    84    85    1
   112    84    81    1
   113    41    40    2
   114    70    69    2
   115    49    40   am
   116    52    51    2
   117    40    39    1
   118    83    82    2
   119    80    81    1
   120    80    77   am
   121    88    89    1
   122    88    87    1
   123    39    38    1
   124    51    58   am
   125    76    79    1
   126    76    77    1
   127    76    75    1
   128    81    82    1
   129    89    90    2
   130    77    78    2
   131    69    75   am
   132    69    68    1
   133    66    65    1
   134    65    64    1
   135    71    68    1
   136    71    72    1
   137    58    59    1
   138    73    72    1
   139    67    68    1
   140    67    60   am
   141    29    30    1
   142    29    26    1
   143    64    63    1
   144    72    74    1
   145    62    63    1
   146    62    59    1
   147    59    60    1
   148    37    35    1
   149    60    61    2
   150    19    17   ar
   151    19    20   ar
   152    25    26    1
   153    26    27    1
   154    22    20   ar
   155    22    24   ar
   156    17    16   ar
   157    20    18   ar
   158    35    32    1
   159    35    36    1
   160    24    23   ar
   161    27    28    2
   162    32    31    1
   163    32    33    1
   164    16    18   ar
   165    16    15    1
   166    18    21   ar
   167    33    34    2
   168    23    21   ar
   169    12    15    1
   170    12    11    1
   171    12    13    1
   172    14    13    2
