@<TRIPOS>MOLECULE
tmp/2xadD02.pdb
 119 116 0 0 0
SMALL
GASTEIGER

@<TRIPOS>ATOM
      1  N         -7.0650   18.8260   21.2270 N.3     9  HIS9       -0.1241
      2  CA        -6.1890   18.8300   22.3670 C.3     9  HIS9        0.1621
      3  C         -5.3240   20.0420   22.3610 C.2     9  HIS9        0.2264
      4  O         -5.2650   20.7830   21.3500 O.2     9  HIS9       -0.2867
      5  CB        -5.2880   17.5950   22.3880 C.3     9  HIS9        0.0745
      6  CG        -6.0770   16.3230   22.3700 C.ar    9  HIS9        0.0817
      7  ND1       -6.1270   15.5070   21.2600 N.ar    9  HIS9       -0.2268
      8  CD2       -6.8830   15.7550   23.2990 C.ar    9  HIS9        0.1154
      9  CE1       -6.9190   14.4730   21.5090 C.ar    9  HIS9        0.1986
     10  NE2       -7.3760   14.5870   22.7510 N.ar    9  HIS9       -0.2212
     11  N         -2.4480   21.6250   21.6570 N.3    11  ASP11      -0.1225
     12  CA        -1.3180   21.5300   20.6830 C.3    11  ASP11       0.1805
     13  C         -1.7660   21.1460   19.2550 C.2    11  ASP11       0.2597
     14  O         -1.0120   21.3640   18.3040 O.2    11  ASP11      -0.2718
     15  CB        -0.1010   20.6820   21.0630 C.3    11  ASP11       0.1424
     16  CG        -0.4010   19.1850   21.2210 C.2    11  ASP11       0.3668
     17  OD1       -1.4980   18.6970   20.8870 O.co2  11  ASP11      -0.2456
     18  OD2        0.5470   18.4800   21.7060 O.co2  11  ASP11      -0.2456
     19  N         -2.9400   20.5490   19.0900 N.am   12  ASP12      -0.1974
     20  CA        -3.3260   20.0560   17.7710 C.3    12  ASP12       0.1709
     21  C         -3.3790   21.0900   16.6590 C.2    12  ASP12       0.2293
     22  O         -2.8510   20.9050   15.5670 O.2    12  ASP12      -0.2864
     23  CB        -4.7010   19.2980   17.8260 C.3    12  ASP12       0.1436
     24  CG        -4.5690   17.9430   18.4770 C.2    12  ASP12       0.3671
     25  OD1       -3.6100   17.1570   18.1510 O.co2  12  ASP12      -0.2456
     26  OD2       -5.4890   17.5930   19.2540 O.co2  12  ASP12      -0.2456
     27  N          5.0630   12.4960   29.8000 N.3    55  TRP55      -0.1241
     28  CA         5.0910   13.9490   29.5660 C.3    55  TRP55       0.1605
     29  C          5.9990   14.7030   30.5100 C.2    55  TRP55       0.2264
     30  O          6.0130   15.9550   30.4930 O.2    55  TRP55      -0.2867
     31  CB         3.6720   14.5620   29.6460 C.3    55  TRP55       0.0550
     32  CG         2.7480   13.9820   28.6010 C.ar   55  TRP55       0.0003
     33  CD1        3.1090   13.4370   27.4380 C.ar   55  TRP55       0.0946
     34  CD2        1.3020   13.9510   28.6230 C.ar   55  TRP55       0.0152
     35  NE1        2.0240   12.9710   26.7580 N.ar   55  TRP55      -0.2442
     36  CE2        0.8900   13.3390   27.4460 C.ar   55  TRP55       0.0810
     37  CE3        0.3150   14.4020   29.5420 C.ar   55  TRP55       0.0012
     38  CZ2       -0.4860   13.1360   27.1260 C.ar   55  TRP55       0.0191
     39  CZ3       -0.9840   14.1500   29.2780 C.ar   55  TRP55       0.0001
     40  CH2       -1.4070   13.5760   28.0440 C.ar   55  TRP55       0.0015
     41  N         -0.2240   21.8780   30.5320 N.3    67  ARG67      -0.1245
     42  CA        -0.4440   21.9960   29.0770 C.3    67  ARG67       0.1563
     43  C         -1.1390   23.2810   28.6670 C.2    67  ARG67       0.2260
     44  O         -0.8710   23.8450   27.6070 O.2    67  ARG67      -0.2867
     45  CB        -1.2930   20.7860   28.6250 C.3    67  ARG67       0.0307
     46  CG        -0.5030   19.4250   28.8060 C.3    67  ARG67       0.0489
     47  CD        -1.3490   18.2350   28.2110 C.3    67  ARG67       0.2205
     48  NE        -1.3600   18.3230   26.7350 N.pl3  67  ARG67      -0.0865
     49  CZ        -1.9770   17.4180   25.9430 C.cat  67  ARG67       0.5346
     50  NH1       -2.4940   16.3230   26.4860 N.pl3  67  ARG67       0.1354
     51  NH2       -1.9190   17.5480   24.6090 N.pl3  67  ARG67       0.1354
     52  N         -9.9230   15.5150   28.4820 N.3    89  ASP89      -0.1225
     53  CA        -9.1260   14.6320   27.5700 C.3    89  ASP89       0.1805
     54  C         -9.5490   13.1590   27.8360 C.2    89  ASP89       0.2598
     55  O         -9.9810   12.7800   28.9320 O.2    89  ASP89      -0.2718
     56  CB        -7.6660   14.8370   27.9230 C.3    89  ASP89       0.1424
     57  CG        -6.6950   14.2760   26.9360 C.2    89  ASP89       0.3668
     58  OD1       -5.4980   14.1700   27.3160 O.co2  89  ASP89      -0.2456
     59  OD2       -7.0840   13.9190   25.8470 O.co2  89  ASP89      -0.2456
     60  N         -9.3890   12.2950   26.8240 N.am   90  SER90      -0.1938
     61  CA        -9.9320   10.9250   26.8810 C.3    90  SER90       0.2055
     62  C         -9.4520   10.1730   28.1240 C.2    90  SER90       0.2642
     63  O        -10.2310    9.3300   28.6150 O.2    90  SER90      -0.2714
     64  CB        -9.4880   10.1770   25.6110 C.3    90  SER90       0.2130
     65  OG        -8.0570    9.9310   25.6160 O.3    90  SER90      -0.2179
     66  N         -8.2180   10.4230   28.5270 N.am   91  ILE91      -0.1977
     67  CA        -7.5830    9.7310   29.6920 C.3    91  ILE91       0.1596
     68  C         -8.2020   10.0790   31.0370 C.2    91  ILE91       0.2287
     69  O         -7.8890    9.4040   32.0210 O.2    91  ILE91      -0.2864
     70  CB        -6.0900    9.9100   29.7790 C.3    91  ILE91       0.0276
     71  CG1       -5.7460   11.4350   29.8820 C.3    91  ILE91       0.0022
     72  CG2       -5.4040    9.2770   28.5290 C.3    91  ILE91       0.0022
     73  CD1       -4.2220   11.6870   30.0420 C.3    91  ILE91       0.0001
     74  N         -2.1690    3.0260   25.5510 N.3   111  LEU111     -0.1245
     75  CA        -3.6130    3.3190   25.6330 C.3   111  LEU111      0.1561
     76  C         -4.4640    2.5680   24.6550 C.2   111  LEU111      0.2260
     77  O         -4.0440    2.3590   23.5320 O.2   111  LEU111     -0.2867
     78  CB        -3.8970    4.7970   25.3100 C.3   111  LEU111      0.0270
     79  CG        -3.1820    5.8900   26.0840 C.3   111  LEU111      0.0019
     80  CD1       -3.5400    7.3320   25.5320 C.3   111  LEU111      0.0001
     81  CD2       -3.5770    5.7900   27.5970 C.3   111  LEU111      0.0001
     82  N         -8.6250    9.3040   16.7010 N.3   153  HIS153     -0.1241
     83  CA        -8.7140    9.6180   18.0850 C.3   153  HIS153      0.1621
     84  C        -10.1520   10.0560   18.4430 C.2   153  HIS153      0.2264
     85  O        -10.7140   10.8310   17.7310 O.2   153  HIS153     -0.2867
     86  CB        -7.7670   10.8210   18.3800 C.3   153  HIS153      0.0745
     87  CG        -7.5630   11.0090   19.8410 C.ar  153  HIS153      0.0817
     88  ND1       -6.3080   11.0380   20.4450 N.ar  153  HIS153     -0.2268
     89  CD2       -8.4800   11.1750   20.8360 C.ar  153  HIS153      0.1154
     90  CE1       -6.4690   11.1760   21.7610 C.ar  153  HIS153      0.1986
     91  NE2       -7.7710   11.2760   22.0130 N.ar  153  HIS153     -0.2212
     92  N          0.7440   14.2440   14.0980 N.3   181  PRO181     -0.2102
     93  CA         1.5470   13.4890   13.1150 C.3   181  PRO181      0.1504
     94  C          0.8150   12.3370   12.4910 C.2   181  PRO181      0.2575
     95  O          1.4280   11.6480   11.6640 O.2   181  PRO181     -0.2718
     96  CB         2.6270   12.8920   14.0120 C.3   181  PRO181      0.0282
     97  CG         1.7980   12.4800   15.3170 C.3   181  PRO181      0.0208
     98  CD         1.0060   13.8110   15.4920 C.3   181  PRO181      0.0893
     99  N         -0.4760   12.1010   12.8410 N.am  182  TYR182     -0.1977
    100  CA        -1.2410   10.9320   12.4060 C.3   182  TYR182      0.1639
    101  C         -1.1650   10.6370   10.8950 C.2   182  TYR182      0.2290
    102  O         -1.1000    9.4520   10.5160 O.2   182  TYR182     -0.2864
    103  CB        -2.7350   10.9680   12.7700 C.3   182  TYR182      0.0560
    104  CG        -2.9410   10.9150   14.2770 C.ar  182  TYR182     -0.0198
    105  CD1       -2.8690    9.7140   14.9620 C.ar  182  TYR182     -0.0009
    106  CD2       -3.1890   12.0590   14.9870 C.ar  182  TYR182     -0.0009
    107  CE1       -2.9800    9.6860   16.3710 C.ar  182  TYR182      0.0417
    108  CE2       -3.3030   12.0280   16.3840 C.ar  182  TYR182      0.0417
    109  CZ        -3.2240   10.8270   17.0340 C.ar  182  TYR182      0.1957
    110  OH        -3.3420   10.7640   18.4390 O.3   182  TYR182     -0.2866
    111  N          5.0340   17.4300   25.4960 N.3   223  GLN223     -0.1245
    112  CA         4.6710   16.5190   24.4240 C.3   223  GLN223      0.1566
    113  C          5.8720   16.1930   23.5630 C.2   223  GLN223      0.2260
    114  O          5.7840   15.2490   22.7410 O.2   223  GLN223     -0.2867
    115  CB         3.6290   17.2410   23.5820 C.3   223  GLN223      0.0367
    116  CG         2.4030   17.6510   24.3560 C.3   223  GLN223      0.0905
    117  CD         1.6970   16.4750   25.0610 C.2   223  GLN223      0.2608
    118  OE1        1.2230   15.5100   24.3940 O.2   223  GLN223     -0.2717
    119  NE2        1.6420   16.5390   26.4110 N.am  223  GLN223     -0.0878
@<TRIPOS>BOND
     1   102   101    2
     2   101   100    1
     3    95    94    2
     4   100   103    1
     5   100    99    1
     6    94    99   am
     7    94    93    1
     8   103   104    1
     9    93    96    1
    10    93    92    1
    11    96    97    1
    12    92    98    1
    13   104   105   ar
    14   104   106   ar
    15   105   107   ar
    16   106   108   ar
    17    97    98    1
    18    22    21    2
    19   107   109   ar
    20   108   109   ar
    21    21    20    1
    22    82    83    1
    23   109   110    1
    24    85    84    2
    25    20    23    1
    26    20    19    1
    27    23    24    1
    28    83    86    1
    29    83    84    1
    30    25    24   ar
    31    14    13    2
    32    86    87    1
    33    24    26   ar
    34    19    13   am
    35    13    12    1
    36    87    88   ar
    37    87    89   ar
    38    88    90   ar
    39    12    15    1
    40    12    11    1
    41    89    91   ar
    42    17    16   ar
    43    15    16    1
    44    16    18   ar
    45     1     2    1
    46     7     9   ar
    47     7     6   ar
    48     4     3    2
    49     9    10   ar
    50    90    91   ar
    51     3     2    1
    52     2     5    1
    53     6     5    1
    54     6     8   ar
    55   114   113    2
    56    10     8   ar
    57    77    76    2
    58   113   112    1
    59   115   116    1
    60   115   112    1
    61   116   117    1
    62   118   117    2
    63   112   111    1
    64    51    49    1
    65    76    75    1
    66   117   119   am
    67    78    75    1
    68    78    79    1
    69    80    79    1
    70    74    75    1
    71    64    65    1
    72    64    61    1
    73    59    57   ar
    74    49    50    1
    75    49    48    2
    76    79    81    1
    77    48    47    1
    78    35    33   ar
    79    35    36   ar
    80    60    61    1
    81    60    54   am
    82    61    62    1
    83    57    58   ar
    84    57    56    1
    85    38    36   ar
    86    38    40   ar
    87    33    32   ar
    88    36    34   ar
    89    53    54    1
    90    53    56    1
    91    53    52    1
    92    44    43    2
    93    54    55    2
    94    40    39   ar
    95    62    66   am
    96    62    63    2
    97    47    46    1
    98    66    67    1
    99    72    70    1
   100    32    34   ar
   101    32    31    1
   102    34    37   ar
   103    45    46    1
   104    45    42    1
   105    43    42    1
   106    42    41    1
   107    39    37   ar
   108    28    31    1
   109    28    27    1
   110    28    29    1
   111    67    70    1
   112    67    68    1
   113    70    71    1
   114    71    73    1
   115    30    29    2
   116    68    69    2
