@<TRIPOS>MOLECULE
tmp/2xaeB00.pdb
 157 150 0 0 0
SMALL
GASTEIGER

@<TRIPOS>ATOM
      1  N         16.5590   36.7720  -42.8200 N.3    96  THR96      -0.1218
      2  CA        16.5210   36.2600  -41.4640 C.3    96  THR96       0.1862
      3  C         17.9700   36.1970  -40.9540 C.2    96  THR96       0.2287
      4  O         18.2380   36.6920  -39.8700 O.2    96  THR96      -0.2866
      5  CB        15.6950   34.9260  -41.3980 C.3    96  THR96       0.1770
      6  OG1       14.3070   35.2380  -41.6320 O.3    96  THR96      -0.2211
      7  CG2       15.8090   34.2850  -40.0430 C.3    96  THR96       0.0375
      8  N         18.6710   38.2700  -37.6840 N.3   100  GLU100     -0.1231
      9  CA        18.7410   37.4050  -36.4950 C.3   100  GLU100      0.1699
     10  C         19.9830   36.5520  -36.4220 C.2   100  GLU100      0.2593
     11  O         20.6450   36.5420  -35.3900 O.2   100  GLU100     -0.2718
     12  CB        17.5520   36.4610  -36.4490 C.3   100  GLU100      0.0402
     13  CG        16.3200   37.2440  -36.3390 C.3   100  GLU100      0.1161
     14  CD        15.0800   36.4000  -36.5450 C.2   100  GLU100      0.3649
     15  OE1       15.1300   35.1710  -36.2280 O.co2 100  GLU100     -0.2457
     16  OE2       14.0640   37.0210  -36.9910 O.co2 100  GLU100     -0.2457
     17  N         20.2720   35.8320  -37.5080 N.am  101  GLY101     -0.1942
     18  CA        21.4680   35.0290  -37.5920 C.3   101  GLY101      0.2014
     19  C         21.0750   33.6150  -37.2410 C.2   101  GLY101      0.2639
     20  O         19.8810   33.2940  -37.2060 O.2   101  GLY101     -0.2714
     21  N         22.0640   32.7640  -36.9880 N.am  102  GLU102     -0.1963
     22  CA        21.8270   31.3810  -36.5990 C.3   102  GLU102      0.1733
     23  C         22.7750   31.0900  -35.4380 C.2   102  GLU102      0.2616
     24  O         23.7350   31.8420  -35.2510 O.2   102  GLU102     -0.2715
     25  CB        22.1530   30.4690  -37.7950 C.3   102  GLU102      0.0429
     26  CG        21.4690   30.8770  -39.1130 C.3   102  GLU102      0.1163
     27  CD        21.7050   29.8950  -40.2730 C.2   102  GLU102      0.3649
     28  OE1       22.6530   29.0680  -40.1810 O.co2 102  GLU102     -0.2457
     29  OE2       20.9490   29.9760  -41.2880 O.co2 102  GLU102     -0.2457
     30  N         22.5480   30.0030  -34.6940 N.am  103  ARG103     -0.1977
     31  CA        23.4990   29.5630  -33.6610 C.3   103  ARG103      0.1597
     32  C         24.4640   28.6070  -34.3060 C.2   103  ARG103      0.2287
     33  O         24.0070   27.7330  -35.0160 O.2   103  ARG103     -0.2864
     34  CB        22.7690   28.8070  -32.5470 C.3   103  ARG103      0.0334
     35  CG        22.1010   29.6880  -31.5160 C.3   103  ARG103      0.0492
     36  CD        22.7610   29.6620  -30.1330 C.3   103  ARG103      0.2205
     37  NE        24.1540   30.0900  -30.1630 N.pl3 103  ARG103     -0.0865
     38  CZ        25.0320   29.9890  -29.1620 C.cat 103  ARG103      0.5346
     39  NH1       24.7140   29.4900  -27.9730 N.pl3 103  ARG103      0.1354
     40  NH2       26.2670   30.4090  -29.3810 N.pl3 103  ARG103      0.1354
     41  N         26.4310   32.7200  -26.9130 N.3   111  TRP111     -0.1241
     42  CA        25.6220   33.4610  -27.8620 C.3   111  TRP111      0.1605
     43  C         26.2380   34.8380  -28.1980 C.2   111  TRP111      0.2264
     44  O         26.0090   35.3650  -29.2840 O.2   111  TRP111     -0.2867
     45  CB        24.1790   33.5670  -27.3900 C.3   111  TRP111      0.0550
     46  CG        24.0250   34.4850  -26.2240 C.ar  111  TRP111      0.0003
     47  CD1       24.0460   34.1390  -24.9040 C.ar  111  TRP111      0.0946
     48  CD2       23.8230   35.9110  -26.2620 C.ar  111  TRP111      0.0152
     49  NE1       23.8470   35.2570  -24.1190 N.ar  111  TRP111     -0.2442
     50  CE2       23.7080   36.3530  -24.9250 C.ar  111  TRP111      0.0810
     51  CE3       23.6960   36.8470  -27.2990 C.ar  111  TRP111      0.0012
     52  CZ2       23.4880   37.6890  -24.5910 C.ar  111  TRP111      0.0191
     53  CZ3       23.4730   38.1920  -26.9770 C.ar  111  TRP111      0.0001
     54  CH2       23.3860   38.6010  -25.6220 C.ar  111  TRP111      0.0015
     55  N         29.0430   34.1720  -30.9350 N.3   114  ASP114     -0.1239
     56  CA        28.7390   33.4200  -32.1450 C.3   114  ASP114      0.1674
     57  C         29.0270   34.2110  -33.4020 C.2   114  ASP114      0.2266
     58  O         28.4380   35.2610  -33.5940 O.2   114  ASP114     -0.2867
     59  CB        27.2690   33.0370  -32.1720 C.3   114  ASP114      0.1410
     60  CG        27.0580   31.7410  -32.8610 C.2   114  ASP114      0.3668
     61  OD1       27.7520   31.5160  -33.8830 O.co2 114  ASP114     -0.2456
     62  OD2       26.2280   30.9380  -32.3630 O.co2 114  ASP114     -0.2456
     63  N         25.7780   35.0120  -35.2470 N.3   117  ALA117     -0.1245
     64  CA        24.7500   35.8870  -34.6710 C.3   117  ALA117      0.1562
     65  C         24.3750   37.0540  -35.6230 C.2   117  ALA117      0.2260
     66  O         25.2680   37.6780  -36.1960 O.2   117  ALA117     -0.2867
     67  CB        25.2460   36.4360  -33.3540 C.3   117  ALA117      0.0290
     68  N         19.9540   41.3630  -34.3000 N.3   120  ILE120     -0.1231
     69  CA        19.1480   41.3810  -33.0760 C.3   120  ILE120      0.1678
     70  C         19.9870   40.9620  -31.8520 C.2   120  ILE120      0.2434
     71  O         20.1420   41.7570  -30.9290 O.2   120  ILE120     -0.2733
     72  CB        17.8430   40.5990  -33.2950 C.3   120  ILE120      0.0265
     73  CG1       16.8590   41.4960  -34.0630 C.3   120  ILE120      0.0019
     74  CG2       17.2580   40.1240  -32.0130 C.3   120  ILE120      0.0020
     75  CD1       15.6860   40.7770  -34.7320 C.3   120  ILE120      0.0001
     76  N         20.6060   39.7670  -31.8700 N.am  121  PRO121     -0.2729
     77  CA        21.4690   39.3610  -30.7530 C.3   121  PRO121      0.1401
     78  C         22.6110   40.3580  -30.4960 C.2   121  PRO121      0.2269
     79  O         22.8940   40.6660  -29.3500 O.2   121  PRO121     -0.2865
     80  CB        22.0550   38.0220  -31.1960 C.3   121  PRO121      0.0296
     81  CG        21.3080   37.6410  -32.3600 C.3   121  PRO121      0.0237
     82  CD        20.7500   38.8520  -33.0040 C.3   121  PRO121      0.0939
     83  N          8.3400   41.2870  -29.8540 N.3   144  LEU144     -0.1245
     84  CA         8.5970   40.6470  -31.1200 C.3   144  LEU144      0.1561
     85  C          7.2430   40.1590  -31.5420 C.2   144  LEU144      0.2260
     86  O          6.6750   39.2650  -30.8990 O.2   144  LEU144     -0.2867
     87  CB         9.5220   39.4460  -30.9540 C.3   144  LEU144      0.0270
     88  CG         9.7590   38.5490  -32.1740 C.3   144  LEU144      0.0019
     89  CD1       10.0800   39.3780  -33.4080 C.3   144  LEU144      0.0001
     90  CD2       10.8910   37.6430  -31.9160 C.3   144  LEU144      0.0001
     91  N         19.4270   35.7090  -23.8750 N.3   195  TYR195     -0.1241
     92  CA        19.3600   34.4640  -24.5940 C.3   195  TYR195      0.1605
     93  C         18.0920   33.6270  -24.3730 C.2   195  TYR195      0.2264
     94  O         17.4520   33.1760  -25.3370 O.2   195  TYR195     -0.2867
     95  CB        20.5720   33.6200  -24.2630 C.3   195  TYR195      0.0534
     96  CG        20.6640   32.5030  -25.2420 C.ar  195  TYR195     -0.0201
     97  CD1       20.4030   31.1910  -24.8540 C.ar  195  TYR195     -0.0009
     98  CD2       20.9300   32.7690  -26.5780 C.ar  195  TYR195     -0.0009
     99  CE1       20.4710   30.1530  -25.7780 C.ar  195  TYR195      0.0417
    100  CE2       21.0060   31.7490  -27.4990 C.ar  195  TYR195      0.0417
    101  CZ        20.7870   30.4500  -27.0980 C.ar  195  TYR195      0.1957
    102  OH        20.8480   29.4500  -28.0240 O.3   195  TYR195     -0.2866
    103  N         15.2280   35.0220  -26.4640 N.3   198  LEU198     -0.1231
    104  CA        15.2880   34.6970  -27.8870 C.3   198  LEU198      0.1693
    105  C         14.9060   33.2330  -28.1410 C.2   198  LEU198      0.2591
    106  O         14.0350   32.9430  -28.9780 O.2   198  LEU198     -0.2718
    107  CB        16.6600   35.0470  -28.4560 C.3   198  LEU198      0.0284
    108  CG        16.9950   36.5280  -28.2000 C.3   198  LEU198      0.0019
    109  CD1       18.4710   36.8930  -28.4980 C.3   198  LEU198      0.0001
    110  CD2       16.0150   37.4780  -28.9190 C.3   198  LEU198      0.0001
    111  N         15.5110   32.3260  -27.3720 N.am  199  GLU199     -0.1979
    112  CA        15.1610   30.9140  -27.4120 C.3   199  GLU199      0.1602
    113  C         13.6420   30.7130  -27.4010 C.2   199  GLU199      0.2287
    114  O         13.1380   29.9730  -28.2480 O.2   199  GLU199     -0.2864
    115  CB        15.8110   30.1450  -26.2650 C.3   199  GLU199      0.0415
    116  CG        16.4230   28.8010  -26.6190 C.3   199  GLU199      0.1163
    117  CD        16.7010   27.9420  -25.3790 C.2   199  GLU199      0.3649
    118  OE1       16.5700   26.6960  -25.4560 O.co2 199  GLU199     -0.2457
    119  OE2       17.0390   28.4910  -24.3050 O.co2 199  GLU199     -0.2457
    120  N         11.1730   32.8700  -28.0820 N.3   201  GLY201     -0.1210
    121  CA        10.5460   33.4450  -29.2560 C.3   201  GLY201      0.1956
    122  C         10.7630   32.5480  -30.4540 C.2   201  GLY201      0.2611
    123  O          9.8260   32.2930  -31.2160 O.2   201  GLY201     -0.2717
    124  N         11.9840   32.0360  -30.5880 N.am  202  ALA202     -0.1979
    125  CA        12.2770   31.1290  -31.6890 C.3   202  ALA202      0.1597
    126  C         11.3980   29.8560  -31.6090 C.2   202  ALA202      0.2287
    127  O         10.8320   29.4180  -32.6090 O.2   202  ALA202     -0.2864
    128  CB        13.7440   30.7960  -31.7220 C.3   202  ALA202      0.0319
    129  N          7.9800   30.4900  -32.6070 N.3   205  ARG205     -0.1231
    130  CA         7.9310   30.6870  -34.0600 C.3   205  ARG205      0.1694
    131  C          8.0180   29.3730  -34.7990 C.2   205  ARG205      0.2592
    132  O          7.4310   29.2250  -35.8620 O.2   205  ARG205     -0.2718
    133  CB         9.0790   31.5820  -34.5190 C.3   205  ARG205      0.0321
    134  CG         9.2700   31.6410  -36.0260 C.3   205  ARG205      0.0489
    135  CD        10.6050   32.2180  -36.3750 C.3   205  ARG205      0.2205
    136  NE        10.5020   33.6650  -36.3800 N.pl3 205  ARG205     -0.0865
    137  CZ        11.3330   34.4950  -35.7540 C.cat 205  ARG205      0.5346
    138  NH1       12.3550   34.0000  -35.0690 N.pl3 205  ARG205      0.1354
    139  NH2       11.1490   35.8160  -35.8220 N.pl3 205  ARG205      0.1354
    140  N          8.7840   28.4330  -34.2590 N.am  206  THR206     -0.1953
    141  CA         8.8300   27.1050  -34.8260 C.3   206  THR206      0.1897
    142  C          7.4520   26.4490  -34.8500 C.2   206  THR206      0.2313
    143  O          7.0920   25.7970  -35.8220 O.2   206  THR206     -0.2863
    144  CB         9.7950   26.2800  -34.0340 C.3   206  THR206      0.1794
    145  OG1       11.0780   26.8420  -34.2680 O.3   206  THR206     -0.2208
    146  CG2        9.8050   24.8600  -34.5190 C.3   206  THR206      0.0378
    147  N         10.8110   43.1380  -34.5330 N.3   223  PHE223     -0.1241
    148  CA        11.4410   43.1170  -33.2040 C.3   223  PHE223      0.1605
    149  C         11.6820   44.5560  -32.7690 C.2   223  PHE223      0.2264
    150  O         12.2470   45.3810  -33.5310 O.2   223  PHE223     -0.2867
    151  CB        12.7680   42.3690  -33.2190 C.3   223  PHE223      0.0534
    152  CG        13.3500   42.1390  -31.8630 C.ar  223  PHE223     -0.0203
    153  CD1       13.9860   43.1570  -31.1780 C.ar  223  PHE223     -0.0042
    154  CD2       13.3000   40.8830  -31.2760 C.ar  223  PHE223     -0.0042
    155  CE1       14.5450   42.9310  -29.9200 C.ar  223  PHE223     -0.0003
    156  CE2       13.8210   40.6620  -30.0270 C.ar  223  PHE223     -0.0003
    157  CZ        14.4490   41.6880  -29.3570 C.ar  223  PHE223     -0.0000
@<TRIPOS>BOND
     1     1     2    1
     2     6     5    1
     3     2     5    1
     4     2     3    1
     5     5     7    1
     6    29    27   ar
     7     3     4    2
     8    27    28   ar
     9    27    26    1
    10    26    25    1
    11    25    22    1
    12     8     9    1
    13    18    17    1
    14    18    19    1
    15    17    10   am
    16    19    20    2
    17    19    21   am
    18    16    14   ar
    19    21    22    1
    20    22    23    1
    21    14    13    1
    22    14    15   ar
    23     9    12    1
    24     9    10    1
    25    12    13    1
    26    10    11    2
    27   136   135    1
    28   136   137    2
    29   135   134    1
    30    66    65    2
    31   134   133    1
    32   132   131    2
    33   139   137    1
    34   143   142    2
    35   137   138    1
    36    65    64    1
    37    23    24    2
    38    23    30   am
    39    63    64    1
    40    33    32    2
    41   142   141    1
    42   141   140    1
    43   141   144    1
    44   131   140   am
    45   131   130    1
    46    75    73    1
    47    30    31    1
    48    64    67    1
    49   147   148    1
    50   133   130    1
    51   146   144    1
    52    32    31    1
    53    68    69    1
    54   145   144    1
    55    73    72    1
    56   130   129    1
    57    61    60   ar
    58    31    34    1
    59    58    57    2
    60   150   149    2
    61    89    88    1
    62    57    56    1
    63    72    69    1
    64    72    74    1
    65   151   148    1
    66   151   152    1
    67   148   149    1
    68    69    70    1
    69    82    81    1
    70    82    76    1
    71    60    62   ar
    72    60    59    1
    73   127   126    2
    74    34    35    1
    75    81    80    1
    76    88    90    1
    77    88    87    1
    78    59    56    1
    79    56    55    1
    80    76    70   am
    81    76    77    1
    82   152   154   ar
    83   152   153   ar
    84    70    71    2
    85   128   125    1
    86   125   126    1
    87   125   124    1
    88    85    84    1
    89    85    86    2
    90    35    36    1
    91   154   156   ar
    92   123   122    2
    93    80    77    1
    94   153   155   ar
    95    84    87    1
    96    84    83    1
    97    77    78    1
    98   124   122   am
    99    78    79    2
   100   122   121    1
   101    37    36    1
   102    37    38    2
   103   156   157   ar
   104   155   157   ar
   105    40    38    1
   106    44    43    2
   107   121   120    1
   108    38    39    1
   109   106   105    2
   110   110   108    1
   111   109   108    1
   112   107   108    1
   113   107   104    1
   114   114   113    2
   115    43    42    1
   116   105   104    1
   117   105   111   am
   118   102   101    1
   119   104   103    1
   120    42    45    1
   121    42    41    1
   122   100   101   ar
   123   100    98   ar
   124   112   113    1
   125   112   111    1
   126   112   115    1
   127    45    46    1
   128    51    53   ar
   129    51    48   ar
   130   101    99   ar
   131    53    54   ar
   132   116   115    1
   133   116   117    1
   134    98    96   ar
   135    48    46   ar
   136    48    50   ar
   137    46    47   ar
   138    99    97   ar
   139    54    52   ar
   140   118   117   ar
   141   117   119   ar
   142    94    93    2
   143    96    97   ar
   144    96    95    1
   145    50    52   ar
   146    50    49   ar
   147    47    49   ar
   148    92    93    1
   149    92    95    1
   150    92    91    1
