@<TRIPOS>MOLECULE
tmp/2xafA01.pdb
 105 101 0 0 0
SMALL
GASTEIGER

@<TRIPOS>ATOM
      1  N        -10.9950   63.6350   79.5580 N.3   160  GLY160     -0.1210
      2  CA       -10.2060   63.4150   80.7530 C.3   160  GLY160      0.1956
      3  C        -10.2200   61.9640   81.0920 C.2   160  GLY160      0.2612
      4  O        -10.0040   61.1360   80.2310 O.2   160  GLY160     -0.2717
      5  N        -10.4780   61.6480   82.3470 N.am  161  ALA161     -0.1965
      6  CA       -10.7110   60.2610   82.7160 C.3   161  ALA161      0.1728
      7  C        -12.0090   59.8180   82.0790 C.2   161  ALA161      0.2616
      8  O        -12.8010   60.6460   81.6170 O.2   161  ALA161     -0.2715
      9  CB       -10.7410   60.0800   84.2210 C.3   161  ALA161      0.0334
     10  N        -12.2200   58.5110   82.0910 N.am  162  MET162     -0.1963
     11  CA       -13.0900   57.8720   81.1440 C.3   162  MET162      0.1736
     12  C        -13.4730   56.5040   81.6530 C.2   162  MET162      0.2616
     13  O        -14.6100   56.0770   81.5120 O.2   162  MET162     -0.2715
     14  CB       -12.2880   57.7100   79.8870 C.3   162  MET162      0.0427
     15  CG       -12.9520   57.0460   78.7460 C.3   162  MET162      0.0599
     16  SD       -11.7190   56.8630   77.3990 S.3   162  MET162     -0.1393
     17  CE       -10.5200   55.8070   78.1880 C.3   162  MET162      0.0692
     18  N        -12.5220   55.8190   82.2620 N.am  163  VAL163     -0.1977
     19  CA       -12.7350   54.4570   82.7240 C.3   163  VAL163      0.1596
     20  C        -12.7640   54.3970   84.2360 C.2   163  VAL163      0.2287
     21  O        -11.9180   55.0020   84.8940 O.2   163  VAL163     -0.2864
     22  CB       -11.5780   53.5600   82.2790 C.3   163  VAL163      0.0276
     23  CG1      -11.5910   52.2530   83.0230 C.3   163  VAL163      0.0022
     24  CG2      -11.6370   53.3400   80.8110 C.3   163  VAL163      0.0022
     25  N        -12.0600   51.7030   87.2300 N.3   165  THR165     -0.1218
     26  CA       -11.3360   50.4550   87.1420 C.3   165  THR165      0.1862
     27  C        -11.8540   49.3530   88.0270 C.2   165  THR165      0.2287
     28  O        -11.0840   48.7300   88.7530 O.2   165  THR165     -0.2866
     29  CB        -9.8250   50.6090   87.3700 C.3   165  THR165      0.1770
     30  OG1       -9.5640   50.9670   88.7260 O.3   165  THR165     -0.2211
     31  CG2       -9.2600   51.6450   86.4600 C.3   165  THR165      0.0375
     32  N          0.1210   53.7090   76.6830 N.3   368  PHE368     -0.1227
     33  CA        -1.1160   54.3850   77.0080 C.3   368  PHE368      0.1736
     34  C         -1.3770   54.2280   78.4730 C.2   368  PHE368      0.2595
     35  O         -1.4250   55.2020   79.1940 O.2   368  PHE368     -0.2718
     36  CB        -2.2240   53.8010   76.1710 C.3   368  PHE368      0.0547
     37  CG        -3.5510   53.7630   76.8280 C.ar  368  PHE368     -0.0202
     38  CD1       -4.2850   54.9080   77.0100 C.ar  368  PHE368     -0.0042
     39  CD2       -4.1110   52.5430   77.1930 C.ar  368  PHE368     -0.0042
     40  CE1       -5.5570   54.8420   77.5970 C.ar  368  PHE368     -0.0003
     41  CE2       -5.3780   52.4660   77.7700 C.ar  368  PHE368     -0.0003
     42  CZ        -6.1070   53.6170   77.9660 C.ar  368  PHE368     -0.0000
     43  N         -1.4860   52.9950   78.9280 N.am  369  ALA369     -0.1980
     44  CA        -1.6460   52.7140   80.3490 C.3   369  ALA369      0.1597
     45  C         -0.7890   53.6110   81.2500 C.2   369  ALA369      0.2287
     46  O         -1.2740   54.1410   82.2450 O.2   369  ALA369     -0.2864
     47  CB        -1.3410   51.2700   80.6160 C.3   369  ALA369      0.0319
     48  N        -13.6780   46.6970   84.3190 N.3   394  HIS394     -0.1241
     49  CA       -13.6280   48.1050   84.0260 C.3   394  HIS394      0.1621
     50  C        -14.9000   48.6160   83.3550 C.2   394  HIS394      0.2264
     51  O        -15.6050   47.8620   82.6850 O.2   394  HIS394     -0.2867
     52  CB       -12.3720   48.3580   83.2200 C.3   394  HIS394      0.0745
     53  CG       -11.1350   48.0200   83.9830 C.ar  394  HIS394      0.0817
     54  ND1       -9.9010   48.5690   83.7010 N.ar  394  HIS394     -0.2268
     55  CD2      -10.9540   47.2230   85.0640 C.ar  394  HIS394      0.1154
     56  CE1       -9.0080   48.1030   84.5590 C.ar  394  HIS394      0.1986
     57  NE2       -9.6220   47.2850   85.3960 N.ar  394  HIS394     -0.2212
     58  N         -0.9420   61.9150   77.5210 N.3   489  LEU489     -0.1245
     59  CA        -1.7250   61.1310   76.5550 C.3   489  LEU489      0.1561
     60  C         -2.8720   61.9870   76.0480 C.2   489  LEU489      0.2260
     61  O         -3.4410   62.7320   76.8070 O.2   489  LEU489     -0.2867
     62  CB        -2.2440   59.8370   77.1800 C.3   489  LEU489      0.0270
     63  CG        -3.7520   59.6440   77.3670 C.3   489  LEU489      0.0019
     64  CD1       -4.3630   59.3230   76.0380 C.3   489  LEU489      0.0001
     65  CD2       -4.1080   58.5290   78.3570 C.3   489  LEU489      0.0001
     66  N         -6.6460   62.6790   73.5450 N.3   491  LYS491     -0.1245
     67  CA        -7.8430   62.0980   72.9250 C.3   491  LYS491      0.1561
     68  C         -8.3260   62.7980   71.6460 C.2   491  LYS491      0.2260
     69  O         -8.1140   64.0080   71.4770 O.2   491  LYS491     -0.2867
     70  CB        -8.9740   61.9890   73.9350 C.3   491  LYS491      0.0271
     71  CG        -8.7580   60.8340   74.8130 C.3   491  LYS491      0.0035
     72  CD        -9.7620   60.7110   75.9060 C.3   491  LYS491      0.0206
     73  CE        -9.2790   59.5870   76.8050 C.3   491  LYS491      0.1093
     74  NZ       -10.1990   59.2820   77.9000 N.3   491  LYS491     -0.1314
     75  N         -0.8660   62.4060   83.5890 N.3   591  TYR591     -0.1241
     76  CA        -0.8510   61.8570   84.9500 C.3   591  TYR591      0.1605
     77  C          0.5150   61.2640   85.2040 C.2   591  TYR591      0.2264
     78  O          1.2560   61.0640   84.2610 O.2   591  TYR591     -0.2867
     79  CB        -1.9640   60.8380   85.1750 C.3   591  TYR591      0.0534
     80  CG        -2.1670   59.8050   84.0850 C.ar  591  TYR591     -0.0201
     81  CD1       -1.5440   58.5750   84.1550 C.ar  591  TYR591     -0.0009
     82  CD2       -3.0280   60.0390   83.0040 C.ar  591  TYR591     -0.0009
     83  CE1       -1.7530   57.6060   83.1700 C.ar  591  TYR591      0.0417
     84  CE2       -3.2340   59.0730   82.0030 C.ar  591  TYR591      0.0417
     85  CZ        -2.5850   57.8720   82.1080 C.ar  591  TYR591      0.1957
     86  OH        -2.7390   56.9140   81.1730 O.3   591  TYR591     -0.2866
     87  N         -1.8100   55.6040   92.2920 N.3   638  PRO638     -0.2102
     88  CA        -1.4510   56.7760   91.5140 C.3   638  PRO638      0.1504
     89  C         -2.2520   56.9450   90.2540 C.2   638  PRO638      0.2576
     90  O         -3.1030   56.1290   89.9310 O.2   638  PRO638     -0.2718
     91  CB         0.0110   56.5380   91.1830 C.3   638  PRO638      0.0282
     92  CG         0.4770   55.8420   92.3170 C.3   638  PRO638      0.0208
     93  CD        -0.5990   54.8540   92.6410 C.3   638  PRO638      0.0893
     94  N         -1.9680   58.0410   89.5780 N.am  639  ALA639     -0.1966
     95  CA        -2.6810   58.4860   88.4060 C.3   639  ALA639      0.1728
     96  C         -4.1010   57.9410   88.1900 C.2   639  ALA639      0.2616
     97  O         -4.3700   57.3180   87.1760 O.2   639  ALA639     -0.2715
     98  CB        -1.8250   58.2660   87.2030 C.3   639  ALA639      0.0334
     99  N         -5.0190   58.1770   89.1160 N.am  640  THR640     -0.1951
    100  CA        -6.4030   57.7940   88.8580 C.3   640  THR640      0.1897
    101  C         -7.3740   58.7030   89.5540 C.2   640  THR640      0.2313
    102  O         -7.0320   59.2700   90.5750 O.2   640  THR640     -0.2863
    103  CB        -6.7240   56.4120   89.4050 C.3   640  THR640      0.1794
    104  OG1       -6.6970   56.4610   90.8350 O.3   640  THR640     -0.2208
    105  CG2       -5.7500   55.3840   88.9090 C.3   640  THR640      0.0378
@<TRIPOS>BOND
     1    69    68    2
     2    68    67    1
     3    67    66    1
     4    67    70    1
     5    70    71    1
     6    71    72    1
     7    72    73    1
     8    64    63    1
     9    60    59    1
    10    60    61    2
    11    36    37    1
    12    36    33    1
    13    59    62    1
    14    59    58    1
    15    32    33    1
    16    73    74    1
    17    37    38   ar
    18    37    39   ar
    19    33    34    1
    20    38    40   ar
    21    62    63    1
    22    39    41   ar
    23    63    65    1
    24    16    17    1
    25    16    15    1
    26    40    42   ar
    27    41    42   ar
    28    34    43   am
    29    34    35    2
    30    15    14    1
    31    43    44    1
    32     1     2    1
    33    14    11    1
    34     4     3    2
    35    44    47    1
    36    44    45    1
    37     2     3    1
    38    24    22    1
    39     3     5   am
    40    11    12    1
    41    11    10    1
    42    86    85    1
    43    45    46    2
    44    13    12    2
    45     8     7    2
    46    12    18   am
    47    84    85   ar
    48    84    82   ar
    49     7    10   am
    50     7     6    1
    51    85    83   ar
    52    18    19    1
    53    22    19    1
    54    22    23    1
    55     5     6    1
    56    51    50    2
    57     6     9    1
    58    19    20    1
    59    82    80   ar
    60    83    81   ar
    61    52    53    1
    62    52    49    1
    63    50    49    1
    64    75    76    1
    65    54    53   ar
    66    54    56   ar
    67    53    55   ar
    68    49    48    1
    69    80    81   ar
    70    80    79    1
    71    20    21    2
    72    78    77    2
    73    56    57   ar
    74    76    79    1
    75    76    77    1
    76    55    57   ar
    77    31    29    1
    78    26    25    1
    79    26    29    1
    80    26    27    1
    81    97    96    2
    82    98    95    1
    83    29    30    1
    84    27    28    2
    85    96    95    1
    86    96    99   am
    87    95    94    1
    88   100    99    1
    89   100   103    1
    90   100   101    1
    91   105   103    1
    92   103   104    1
    93   101   102    2
    94    94    89   am
    95    90    89    2
    96    89    88    1
    97    91    88    1
    98    91    92    1
    99    88    87    1
   100    87    93    1
   101    92    93    1
