@<TRIPOS>MOLECULE
tmp/2xaqA01.pdb
 170 165 0 0 0
SMALL
GASTEIGER

@<TRIPOS>ATOM
      1  N        -10.6950   64.2730   79.6530 N.3   160  GLY160     -0.1210
      2  CA        -9.9480   63.7070   80.7920 C.3   160  GLY160      0.1956
      3  C        -10.2600   62.2690   81.1070 C.2   160  GLY160      0.2612
      4  O        -10.2000   61.4430   80.2210 O.2   160  GLY160     -0.2717
      5  N        -10.5940   61.9620   82.3590 N.am  161  ALA161     -0.1965
      6  CA       -10.6080   60.5490   82.8000 C.3   161  ALA161      0.1728
      7  C        -11.8260   59.8820   82.2740 C.2   161  ALA161      0.2616
      8  O        -12.6690   60.5600   81.7320 O.2   161  ALA161     -0.2715
      9  CB       -10.5310   60.4210   84.3030 C.3   161  ALA161      0.0334
     10  N        -11.9490   58.5750   82.4590 N.am  162  MET162     -0.1963
     11  CA       -12.8900   57.8390   81.6380 C.3   162  MET162      0.1736
     12  C        -13.2460   56.4480   82.1450 C.2   162  MET162      0.2616
     13  O        -14.3880   56.0300   82.0750 O.2   162  MET162     -0.2715
     14  CB       -12.1970   57.6870   80.3190 C.3   162  MET162      0.0427
     15  CG       -13.0120   57.5770   79.0760 C.3   162  MET162      0.0599
     16  SD       -11.7310   57.2160   77.8210 S.3   162  MET162     -0.1393
     17  CE       -11.4260   55.4640   78.1210 C.3   162  MET162      0.0692
     18  N        -12.2680   55.7080   82.6310 N.am  163  VAL163     -0.1977
     19  CA       -12.5490   54.3840   83.1780 C.3   163  VAL163      0.1596
     20  C        -12.7720   54.4010   84.7100 C.2   163  VAL163      0.2287
     21  O        -12.3090   55.2970   85.4310 O.2   163  VAL163     -0.2864
     22  CB       -11.4300   53.3910   82.8610 C.3   163  VAL163      0.0276
     23  CG1      -11.9050   51.9660   83.0310 C.3   163  VAL163      0.0022
     24  CG2      -10.9000   53.6000   81.4590 C.3   163  VAL163      0.0022
     25  N        -12.0800   51.6730   87.5040 N.3   165  THR165     -0.1218
     26  CA       -11.2370   50.5510   87.2830 C.3   165  THR165      0.1862
     27  C        -11.6230   49.3310   88.1070 C.2   165  THR165      0.2287
     28  O        -10.8080   48.6840   88.7370 O.2   165  THR165     -0.2866
     29  CB        -9.7960   51.0230   87.4690 C.3   165  THR165      0.1770
     30  OG1       -9.2850   50.6240   88.7410 O.3   165  THR165     -0.2211
     31  CG2       -9.7550   52.5750   87.3760 C.3   165  THR165      0.0375
     32  N          0.3220   53.9020   77.1020 N.3   368  PHE368     -0.1227
     33  CA        -0.8880   54.6900   77.4050 C.3   368  PHE368      0.1736
     34  C         -1.3380   54.4030   78.8300 C.2   368  PHE368      0.2595
     35  O         -1.5770   55.3380   79.6020 O.2   368  PHE368     -0.2718
     36  CB        -1.9880   54.4250   76.3710 C.3   368  PHE368      0.0547
     37  CG        -3.3290   54.0880   76.9630 C.ar  368  PHE368     -0.0202
     38  CD1       -4.2340   55.1140   77.3110 C.ar  368  PHE368     -0.0042
     39  CD2       -3.7070   52.7490   77.1550 C.ar  368  PHE368     -0.0042
     40  CE1       -5.4960   54.7990   77.8650 C.ar  368  PHE368     -0.0003
     41  CE2       -4.9700   52.4340   77.6920 C.ar  368  PHE368     -0.0003
     42  CZ        -5.8630   53.4550   78.0390 C.ar  368  PHE368     -0.0000
     43  N         -1.4100   53.1180   79.1830 N.am  369  ALA369     -0.1980
     44  CA        -1.5360   52.7620   80.5770 C.3   369  ALA369      0.1597
     45  C         -0.7080   53.7310   81.4220 C.2   369  ALA369      0.2287
     46  O         -1.2270   54.2460   82.4010 O.2   369  ALA369     -0.2864
     47  CB        -1.1330   51.3540   80.8290 C.3   369  ALA369      0.0319
     48  N          5.3140   48.9560   88.0440 N.3   383  ASP383     -0.1239
     49  CA         4.0850   48.3400   88.4390 C.3   383  ASP383      0.1674
     50  C          4.1170   48.1810   89.9660 C.2   383  ASP383      0.2266
     51  O          3.5880   47.1870   90.5220 O.2   383  ASP383     -0.2867
     52  CB         3.9650   46.9870   87.7570 C.3   383  ASP383      0.1410
     53  CG         5.0940   46.0440   88.1530 C.2   383  ASP383      0.3668
     54  OD1        6.1750   46.5480   88.5250 O.co2 383  ASP383     -0.2456
     55  OD2        4.9010   44.8130   88.1120 O.co2 383  ASP383     -0.2456
     56  N          2.4400   49.4130   92.3580 N.3   385  ASP385     -0.1225
     57  CA         1.1030   49.2270   92.9130 C.3   385  ASP385      0.1805
     58  C          0.2700   48.0970   92.2830 C.2   385  ASP385      0.2597
     59  O         -0.9330   48.2500   92.0890 O.2   385  ASP385     -0.2718
     60  CB         0.3440   50.5250   92.7110 C.3   385  ASP385      0.1424
     61  CG         0.2520   50.9080   91.2620 C.2   385  ASP385      0.3668
     62  OD1        1.2210   50.6370   90.5530 O.co2 385  ASP385     -0.2456
     63  OD2       -0.7730   51.4600   90.8210 O.co2 385  ASP385     -0.2456
     64  N          0.8690   46.9650   91.9620 N.am  386  ASP386     -0.1974
     65  CA         0.1330   46.0050   91.1360 C.3   386  ASP386      0.1709
     66  C         -0.7410   45.0630   91.9560 C.2   386  ASP386      0.2293
     67  O         -1.2610   44.0530   91.4520 O.2   386  ASP386     -0.2864
     68  CB         1.1060   45.1970   90.2730 C.3   386  ASP386      0.1436
     69  CG         0.5960   44.9850   88.8480 C.2   386  ASP386      0.3671
     70  OD1        0.3850   46.0030   88.1130 O.co2 386  ASP386     -0.2456
     71  OD2        0.4310   43.7910   88.4770 O.co2 386  ASP386     -0.2456
     72  N         -2.7480   46.5270   94.6530 N.3   388  PHE388     -0.1227
     73  CA        -3.8310   47.3780   95.1100 C.3   388  PHE388      0.1736
     74  C         -4.7910   47.5980   93.9970 C.2   388  PHE388      0.2595
     75  O         -5.2800   48.6920   93.7940 O.2   388  PHE388     -0.2718
     76  CB        -3.2750   48.7150   95.5420 C.3   388  PHE388      0.0547
     77  CG        -2.1520   48.6030   96.5160 C.ar  388  PHE388     -0.0202
     78  CD1       -1.9250   47.4150   97.2120 C.ar  388  PHE388     -0.0042
     79  CD2       -1.3310   49.6850   96.7720 C.ar  388  PHE388     -0.0042
     80  CE1       -0.8790   47.3000   98.1180 C.ar  388  PHE388     -0.0003
     81  CE2       -0.2730   49.5660   97.6830 C.ar  388  PHE388     -0.0003
     82  CZ        -0.0530   48.3790   98.3530 C.ar  388  PHE388     -0.0000
     83  N         -5.0530   46.5300   93.2730 N.am  389  GLU389     -0.1965
     84  CA        -5.7920   46.5490   92.0270 C.3   389  GLU389      0.1733
     85  C         -7.2100   46.2700   92.4420 C.2   389  GLU389      0.2616
     86  O         -7.4180   45.2800   93.1420 O.2   389  GLU389     -0.2715
     87  CB        -5.2710   45.3430   91.2230 C.3   389  GLU389      0.0429
     88  CG        -5.3600   45.3560   89.6710 C.3   389  GLU389      0.1163
     89  CD        -4.7960   44.0480   89.0400 C.2   389  GLU389      0.3649
     90  OE1       -3.7960   43.4750   89.5660 O.co2 389  GLU389     -0.2457
     91  OE2       -5.3820   43.5830   88.0260 O.co2 389  GLU389     -0.2457
     92  N         -8.1970   47.0840   92.0560 N.am  390  PHE390     -0.1974
     93  CA        -9.5820   46.7000   92.4360 C.3   390  PHE390      0.1639
     94  C        -10.0110   45.3080   91.8870 C.2   390  PHE390      0.2290
     95  O         -9.1600   44.4870   91.5110 O.2   390  PHE390     -0.2864
     96  CB       -10.6120   47.8070   92.1770 C.3   390  PHE390      0.0560
     97  CG       -10.2480   49.1050   92.8080 C.ar  390  PHE390     -0.0200
     98  CD1       -9.4940   49.1380   93.9710 C.ar  390  PHE390     -0.0042
     99  CD2      -10.6340   50.3110   92.2390 C.ar  390  PHE390     -0.0042
    100  CE1       -9.1120   50.3820   94.5460 C.ar  390  PHE390     -0.0003
    101  CE2      -10.2480   51.5550   92.8080 C.ar  390  PHE390     -0.0003
    102  CZ        -9.4990   51.5920   93.9510 C.ar  390  PHE390     -0.0000
    103  N        -13.8750   46.8670   84.3800 N.3   394  HIS394     -0.1241
    104  CA       -13.6510   48.3050   84.2870 C.3   394  HIS394      0.1621
    105  C        -14.8880   48.9060   83.6740 C.2   394  HIS394      0.2264
    106  O        -15.7160   48.1690   83.1860 O.2   394  HIS394     -0.2867
    107  CB       -12.4060   48.5950   83.4700 C.3   394  HIS394      0.0745
    108  CG       -11.1500   48.1260   84.1260 C.ar  394  HIS394      0.0817
    109  ND1      -10.0900   48.9690   84.3860 N.ar  394  HIS394     -0.2268
    110  CD2      -10.7920   46.9040   84.5960 C.ar  394  HIS394      0.1154
    111  CE1       -9.1270   48.2840   84.9820 C.ar  394  HIS394      0.1986
    112  NE2       -9.5270   47.0290   85.1200 N.ar  394  HIS394     -0.2212
    113  N         -0.8790   62.0700   77.6920 N.3   489  LEU489     -0.1245
    114  CA        -1.8780   61.2830   76.9670 C.3   489  LEU489      0.1561
    115  C         -2.8530   62.2930   76.3350 C.2   489  LEU489      0.2260
    116  O         -3.1640   63.3100   76.9390 O.2   489  LEU489     -0.2867
    117  CB        -2.5600   60.3690   77.9500 C.3   489  LEU489      0.0270
    118  CG        -3.7730   59.6160   77.5150 C.3   489  LEU489      0.0019
    119  CD1       -3.8960   59.9240   76.1060 C.3   489  LEU489      0.0001
    120  CD2       -3.6520   58.0590   77.7550 C.3   489  LEU489      0.0001
    121  N         -6.5720   62.9260   73.6410 N.3   491  LYS491     -0.1245
    122  CA        -7.7660   62.2780   73.0590 C.3   491  LYS491      0.1561
    123  C         -8.3490   62.9150   71.7770 C.2   491  LYS491      0.2260
    124  O         -8.3830   64.1760   71.6260 O.2   491  LYS491     -0.2867
    125  CB        -8.8530   62.0990   74.1230 C.3   491  LYS491      0.0271
    126  CG        -8.6670   60.8530   74.9370 C.3   491  LYS491      0.0035
    127  CD        -9.6070   60.7990   76.1250 C.3   491  LYS491      0.0206
    128  CE        -9.1530   59.6890   77.0830 C.3   491  LYS491      0.1093
    129  NZ       -10.0850   59.3500   78.1880 N.3   491  LYS491     -0.1314
    130  N         -0.7780   62.8710   83.7900 N.3   591  TYR591     -0.1241
    131  CA        -0.7370   62.2860   85.1230 C.3   591  TYR591      0.1605
    132  C          0.4910   61.4490   85.4810 C.2   591  TYR591      0.2264
    133  O          0.7270   60.4180   84.8860 O.2   591  TYR591     -0.2867
    134  CB        -1.9890   61.4760   85.2920 C.3   591  TYR591      0.0534
    135  CG        -2.1450   60.3520   84.3550 C.ar  591  TYR591     -0.0201
    136  CD1       -1.5890   59.1070   84.6590 C.ar  591  TYR591     -0.0009
    137  CD2       -2.9170   60.4780   83.2050 C.ar  591  TYR591     -0.0009
    138  CE1       -1.7550   57.9900   83.8260 C.ar  591  TYR591      0.0417
    139  CE2       -3.1290   59.3460   82.3420 C.ar  591  TYR591      0.0417
    140  CZ        -2.5310   58.1170   82.6790 C.ar  591  TYR591      0.1957
    141  OH        -2.6580   57.0160   81.8940 O.3   591  TYR591     -0.2866
    142  N         -1.7640   55.8180   92.5050 N.3   638  PRO638     -0.2102
    143  CA        -1.4100   57.1300   91.9130 C.3   638  PRO638      0.1504
    144  C         -2.1330   57.3510   90.6000 C.2   638  PRO638      0.2576
    145  O         -2.5690   56.3930   89.9370 O.2   638  PRO638     -0.2718
    146  CB         0.1170   57.0560   91.7260 C.3   638  PRO638      0.0282
    147  CG         0.5220   55.7510   92.2980 C.3   638  PRO638      0.0208
    148  CD        -0.6700   54.8400   92.3250 C.3   638  PRO638      0.0893
    149  N         -2.2960   58.6350   90.2930 N.am  639  ALA639     -0.1966
    150  CA        -2.7820   59.0910   89.0000 C.3   639  ALA639      0.1728
    151  C         -4.0400   58.3360   88.5220 C.2   639  ALA639      0.2616
    152  O         -4.0440   57.6240   87.5040 O.2   639  ALA639     -0.2715
    153  CB        -1.6580   59.0130   87.9830 C.3   639  ALA639      0.0334
    154  N         -5.0900   58.4570   89.3210 N.am  640  THR640     -0.1951
    155  CA        -6.3790   57.9220   88.9940 C.3   640  THR640      0.1897
    156  C         -7.3000   58.8120   89.7560 C.2   640  THR640      0.2313
    157  O         -6.8250   59.5510   90.6020 O.2   640  THR640     -0.2863
    158  CB        -6.5980   56.5120   89.4870 C.3   640  THR640      0.1794
    159  OG1       -6.8350   56.5410   90.8890 O.3   640  THR640     -0.2208
    160  CG2       -5.4110   55.6520   89.2040 C.3   640  THR640      0.0378
    161  N         -9.9470   57.7040   91.8130 N.3   642  HIS642     -0.1241
    162  CA        -9.9470   57.2670   93.1560 C.3   642  HIS642      0.1621
    163  C         -8.7680   57.8430   93.9590 C.2   642  HIS642      0.2264
    164  O         -8.9770   58.7660   94.7690 O.2   642  HIS642     -0.2867
    165  CB       -10.0580   55.7870   93.2990 C.3   642  HIS642      0.0745
    166  CG        -9.1550   54.9910   92.4260 C.ar  642  HIS642      0.0817
    167  ND1       -9.5800   54.4380   91.2390 N.ar  642  HIS642     -0.2268
    168  CD2       -7.9060   54.5120   92.6370 C.ar  642  HIS642      0.1154
    169  CE1       -8.6100   53.6950   90.7290 C.ar  642  HIS642      0.1986
    170  NE2       -7.5810   53.7270   91.5570 N.ar  642  HIS642     -0.2212
@<TRIPOS>BOND
     1   124   123    2
     2   123   122    1
     3   122   121    1
     4   122   125    1
     5   125   126    1
     6   126   127    1
     7   119   118    1
     8   127   128    1
     9   115   116    2
    10   115   114    1
    11    36    37    1
    12    36    33    1
    13    37    39   ar
    14    37    38   ar
    15   114   113    1
    16   114   117    1
    17   128   129    1
    18    32    33    1
    19    39    41   ar
    20    38    40   ar
    21    33    34    1
    22   118   120    1
    23   118   117    1
    24    41    42   ar
    25    16    17    1
    26    16    15    1
    27    40    42   ar
    28    34    43   am
    29    34    35    2
    30    15    14    1
    31    43    44    1
    32     1     2    1
    33     4     3    2
    34    14    11    1
    35    44    47    1
    36    44    45    1
    37     2     3    1
    38     3     5   am
    39    45    46    2
    40    24    22    1
    41    11    12    1
    42    11    10    1
    43     8     7    2
    44   141   140    1
    45    13    12    2
    46    12    18   am
    47     7    10   am
    48     7     6    1
    49   139   140   ar
    50   139   137   ar
    51     5     6    1
    52    18    19    1
    53   140   138   ar
    54     6     9    1
    55    22    23    1
    56    22    19    1
    57    19    20    1
    58   106   105    2
    59   137   135   ar
    60   107   108    1
    61   107   104    1
    62   105   104    1
    63   130   131    1
    64   138   136   ar
    65   108   109   ar
    66   108   110   ar
    67   104   103    1
    68   135   136   ar
    69   135   134    1
    70   109   111   ar
    71   110   112   ar
    72    20    21    2
    73   133   132    2
    74   111   112   ar
    75   131   134    1
    76   131   132    1
    77    26    29    1
    78    26    25    1
    79    26    27    1
    80    31    29    1
    81    29    30    1
    82   152   151    2
    83    52    53    1
    84    52    49    1
    85   153   150    1
    86    91    89   ar
    87    48    49    1
    88    27    28    2
    89    55    53   ar
    90    70    69   ar
    91    53    54   ar
    92    49    50    1
    93    71    69   ar
    94   151   150    1
    95   151   154   am
    96    69    68    1
    97   155   154    1
    98   155   158    1
    99   155   156    1
   100   150   149    1
   101    89    90   ar
   102    89    88    1
   103   160   158    1
   104   158   159    1
   105    88    87    1
   106   156   157    2
   107   145   144    2
   108    50    51    2
   109    68    65    1
   110   149   144   am
   111    62    61   ar
   112   144   143    1
   113   169   167   ar
   114   169   170   ar
   115    63    61   ar
   116    65    66    1
   117    65    64    1
   118    87    84    1
   119   167   166   ar
   120    61    60    1
   121    67    66    2
   122    95    94    2
   123   170   168   ar
   124   146   143    1
   125   146   147    1
   126   161   162    1
   127    94    93    1
   128   143   142    1
   129    64    58   am
   130    84    85    1
   131    84    83    1
   132    92    93    1
   133    92    85   am
   134    59    58    2
   135    96    93    1
   136    96    97    1
   137    99    97   ar
   138    99   101   ar
   139    58    57    1
   140   147   148    1
   141   148   142    1
   142    56    57    1
   143   166   168   ar
   144   166   165    1
   145    85    86    2
   146    60    57    1
   147    97    98   ar
   148   101   102   ar
   149   162   165    1
   150   162   163    1
   151    83    74   am
   152    75    74    2
   153   102   100   ar
   154   163   164    2
   155    98   100   ar
   156    74    73    1
   157    72    73    1
   158    73    76    1
   159    76    77    1
   160    77    79   ar
   161    77    78   ar
   162    79    81   ar
   163    78    80   ar
   164    81    82   ar
   165    80    82   ar
