@<TRIPOS>MOLECULE
tmp/2xasA01.pdb
 176 173 0 0 0
SMALL
GASTEIGER

@<TRIPOS>ATOM
      1  N        -11.1530   63.5570   79.5120 N.3   160  GLY160     -0.1210
      2  CA       -10.2770   63.2930   80.6550 C.3   160  GLY160      0.1956
      3  C        -10.4380   61.8750   81.1240 C.2   160  GLY160      0.2612
      4  O        -10.5040   60.9810   80.3090 O.2   160  GLY160     -0.2717
      5  N        -10.5030   61.6450   82.4280 N.am  161  ALA161     -0.1965
      6  CA       -10.8460   60.3130   82.9300 C.3   161  ALA161      0.1728
      7  C        -12.1470   59.8420   82.2960 C.2   161  ALA161      0.2616
      8  O        -12.9750   60.6670   81.8820 O.2   161  ALA161     -0.2715
      9  CB       -10.9540   60.3080   84.4180 C.3   161  ALA161      0.0334
     10  N        -12.3090   58.5220   82.2190 N.am  162  MET162     -0.1963
     11  CA       -13.4120   57.8960   81.4790 C.3   162  MET162      0.1736
     12  C        -13.7460   56.4590   81.9340 C.2   162  MET162      0.2616
     13  O        -14.8730   55.9900   81.7800 O.2   162  MET162     -0.2715
     14  CB       -13.1050   57.9730   79.9830 C.3   162  MET162      0.0427
     15  CG       -13.3020   56.7220   79.1690 C.3   162  MET162      0.0599
     16  SD       -12.3740   56.8720   77.6060 S.3   162  MET162     -0.1393
     17  CE       -10.8700   55.9580   77.9570 C.3   162  MET162      0.0692
     18  N        -12.7680   55.7850   82.5180 N.am  163  VAL163     -0.1977
     19  CA       -12.9300   54.4040   82.9280 C.3   163  VAL163      0.1596
     20  C        -13.0090   54.2940   84.4430 C.2   163  VAL163      0.2287
     21  O        -12.2800   54.9860   85.1610 O.2   163  VAL163     -0.2864
     22  CB       -11.7260   53.5370   82.4540 C.3   163  VAL163      0.0276
     23  CG1      -11.8820   52.0870   82.8970 C.3   163  VAL163      0.0022
     24  CG2      -11.5480   53.6150   80.9670 C.3   163  VAL163      0.0022
     25  N        -12.1300   51.4980   87.0610 N.3   165  THR165     -0.1218
     26  CA       -11.4420   50.2080   87.0890 C.3   165  THR165      0.1862
     27  C        -11.9840   49.1780   88.0810 C.2   165  THR165      0.2287
     28  O        -11.2090   48.5220   88.7950 O.2   165  THR165     -0.2866
     29  CB        -9.8760   50.3430   87.2810 C.3   165  THR165      0.1770
     30  OG1       -9.5460   51.1770   88.4070 O.3   165  THR165     -0.2211
     31  CG2       -9.2200   50.9360   86.0540 C.3   165  THR165      0.0375
     32  N         -0.1970   53.5200   76.7620 N.3   368  PHE368     -0.1227
     33  CA        -1.4500   54.1850   77.0410 C.3   368  PHE368      0.1736
     34  C         -1.7920   54.0360   78.4990 C.2   368  PHE368      0.2595
     35  O         -2.2230   54.9710   79.1310 O.2   368  PHE368     -0.2718
     36  CB        -2.5510   53.5800   76.1960 C.3   368  PHE368      0.0547
     37  CG        -3.9030   53.6180   76.8420 C.ar  368  PHE368     -0.0202
     38  CD1       -4.5210   54.8280   77.1360 C.ar  368  PHE368     -0.0042
     39  CD2       -4.5700   52.4380   77.1400 C.ar  368  PHE368     -0.0042
     40  CE1       -5.7770   54.8570   77.7290 C.ar  368  PHE368     -0.0003
     41  CE2       -5.8350   52.4680   77.7180 C.ar  368  PHE368     -0.0003
     42  CZ        -6.4440   53.6790   78.0150 C.ar  368  PHE368     -0.0000
     43  N         -1.6060   52.8410   79.0270 N.am  369  ALA369     -0.1980
     44  CA        -1.8900   52.5710   80.4140 C.3   369  ALA369      0.1597
     45  C         -1.0380   53.4330   81.3190 C.2   369  ALA369      0.2287
     46  O         -1.4820   53.8460   82.3720 O.2   369  ALA369     -0.2864
     47  CB        -1.6190   51.1420   80.6980 C.3   369  ALA369      0.0319
     48  N          2.2080   49.4380   92.3070 N.3   385  ASP385     -0.1225
     49  CA         0.8300   49.4210   92.7870 C.3   385  ASP385      0.1805
     50  C          0.0650   48.1440   92.3990 C.2   385  ASP385      0.2597
     51  O         -1.1670   48.1650   92.3720 O.2   385  ASP385     -0.2718
     52  CB         0.0690   50.6810   92.3270 C.3   385  ASP385      0.1424
     53  CG        -0.1830   50.7280   90.8060 C.2   385  ASP385      0.3668
     54  OD1        0.5160   50.0300   90.0370 O.co2 385  ASP385     -0.2456
     55  OD2       -1.0910   51.4800   90.3800 O.co2 385  ASP385     -0.2456
     56  N          0.7670   47.0370   92.1240 N.am  386  ASP386     -0.1974
     57  CA         0.1060   45.8680   91.5050 C.3   386  ASP386      0.1709
     58  C         -0.6610   44.9390   92.4490 C.2   386  ASP386      0.2293
     59  O         -1.1740   43.9020   92.0140 O.2   386  ASP386     -0.2864
     60  CB         1.0440   45.0710   90.5560 C.3   386  ASP386      0.1436
     61  CG         0.6420   45.2040   89.0300 C.2   386  ASP386      0.3671
     62  OD1        0.5940   46.3420   88.4570 O.co2 386  ASP386     -0.2456
     63  OD2        0.3930   44.1430   88.3960 O.co2 386  ASP386     -0.2456
     64  N         -3.1490   46.3070   94.7180 N.3   388  PHE388     -0.1227
     65  CA        -4.3070   47.0020   95.2280 C.3   388  PHE388      0.1736
     66  C         -5.3710   47.0770   94.1660 C.2   388  PHE388      0.2595
     67  O         -6.1400   48.0290   94.1370 O.2   388  PHE388     -0.2718
     68  CB        -3.8890   48.3900   95.6920 C.3   388  PHE388      0.0547
     69  CG        -2.6800   48.3790   96.5780 C.ar  388  PHE388     -0.0202
     70  CD1       -2.8110   48.3110   97.9550 C.ar  388  PHE388     -0.0042
     71  CD2       -1.3960   48.4080   96.0390 C.ar  388  PHE388     -0.0042
     72  CE1       -1.6840   48.2770   98.7800 C.ar  388  PHE388     -0.0003
     73  CE2       -0.2620   48.3750   96.8660 C.ar  388  PHE388     -0.0003
     74  CZ        -0.4130   48.3070   98.2310 C.ar  388  PHE388     -0.0000
     75  N         -5.4230   46.0570   93.3120 N.am  389  GLU389     -0.1965
     76  CA        -6.3580   45.9850   92.1900 C.3   389  GLU389      0.1733
     77  C         -7.7910   45.9290   92.6680 C.2   389  GLU389      0.2616
     78  O         -8.0950   45.2120   93.6020 O.2   389  GLU389     -0.2715
     79  CB        -6.0560   44.7180   91.3740 C.3   389  GLU389      0.0429
     80  CG        -6.4920   44.7630   89.8870 C.3   389  GLU389      0.1163
     81  CD        -6.0710   43.5200   89.0630 C.2   389  GLU389      0.3649
     82  OE1       -5.0700   42.8300   89.4090 O.co2 389  GLU389     -0.2457
     83  OE2       -6.7550   43.2540   88.0450 O.co2 389  GLU389     -0.2457
     84  N         -8.6830   46.6740   92.0440 N.am  390  PHE390     -0.1974
     85  CA       -10.0890   46.4580   92.3420 C.3   390  PHE390      0.1639
     86  C        -10.6060   45.1650   91.6640 C.2   390  PHE390      0.2290
     87  O         -9.9630   44.6330   90.7590 O.2   390  PHE390     -0.2864
     88  CB       -10.9280   47.6730   91.9420 C.3   390  PHE390      0.0560
     89  CG       -10.6040   48.9340   92.7190 C.ar  390  PHE390     -0.0200
     90  CD1      -10.0940   48.8770   94.0040 C.ar  390  PHE390     -0.0042
     91  CD2      -10.8450   50.1870   92.1690 C.ar  390  PHE390     -0.0042
     92  CE1       -9.8050   50.0470   94.7030 C.ar  390  PHE390     -0.0003
     93  CE2      -10.5570   51.3580   92.8760 C.ar  390  PHE390     -0.0003
     94  CZ       -10.0470   51.2860   94.1300 C.ar  390  PHE390     -0.0000
     95  N        -14.3590   46.3750   84.4010 N.3   394  HIS394     -0.1241
     96  CA       -14.1240   47.7900   84.1900 C.3   394  HIS394      0.1621
     97  C        -15.3670   48.4430   83.5940 C.2   394  HIS394      0.2264
     98  O        -16.1820   47.7740   82.9730 O.2   394  HIS394     -0.2867
     99  CB       -12.8640   47.9790   83.3620 C.3   394  HIS394      0.0745
    100  CG       -11.6210   47.5830   84.1000 C.ar  394  HIS394      0.0817
    101  ND1      -10.3760   48.0910   83.7990 N.ar  394  HIS394     -0.2268
    102  CD2      -11.4390   46.7540   85.1580 C.ar  394  HIS394      0.1154
    103  CE1       -9.4760   47.5770   84.6240 C.ar  394  HIS394      0.1986
    104  NE2      -10.0960   46.7650   85.4610 N.ar  394  HIS394     -0.2212
    105  N         -1.1440   61.8310   77.4030 N.3   489  LEU489     -0.1245
    106  CA        -2.0410   60.9440   76.6870 C.3   489  LEU489      0.1561
    107  C         -3.0940   61.8510   76.1320 C.2   489  LEU489      0.2260
    108  O         -3.5440   62.7120   76.8420 O.2   489  LEU489     -0.2867
    109  CB        -2.7060   59.9830   77.6650 C.3   489  LEU489      0.0270
    110  CG        -4.0560   59.3310   77.3240 C.3   489  LEU489      0.0019
    111  CD1       -3.9530   58.6050   76.0290 C.3   489  LEU489      0.0001
    112  CD2       -4.5170   58.3410   78.3880 C.3   489  LEU489      0.0001
    113  N         -6.8430   62.4730   73.5590 N.3   491  LYS491     -0.1245
    114  CA        -8.0290   61.8370   72.9850 C.3   491  LYS491      0.1561
    115  C         -8.5330   62.5950   71.7810 C.2   491  LYS491      0.2260
    116  O         -8.3250   63.8040   71.7020 O.2   491  LYS491     -0.2867
    117  CB        -9.1310   61.7150   74.0140 C.3   491  LYS491      0.0271
    118  CG        -8.8420   60.6530   74.9920 C.3   491  LYS491      0.0035
    119  CD        -9.8980   60.5380   76.0560 C.3   491  LYS491      0.0206
    120  CE        -9.3760   59.5770   77.1150 C.3   491  LYS491      0.1093
    121  NZ       -10.4110   58.9800   77.9920 N.3   491  LYS491     -0.1314
    122  N        -12.7880   53.9150   70.7630 N.3   525  TRP525     -0.1241
    123  CA       -13.8200   53.5300   71.7290 C.3   525  TRP525      0.1605
    124  C        -15.2260   53.9150   71.2600 C.2   525  TRP525      0.2264
    125  O        -15.5210   55.0880   70.9430 O.2   525  TRP525     -0.2867
    126  CB       -13.5480   54.1100   73.1260 C.3   525  TRP525      0.0550
    127  CG       -12.1500   53.9050   73.7030 C.ar  525  TRP525      0.0003
    128  CD1      -10.9840   54.3950   73.2010 C.ar  525  TRP525      0.0946
    129  CD2      -11.7930   53.2230   74.9190 C.ar  525  TRP525      0.0152
    130  NE1       -9.9180   54.0320   73.9990 N.ar  525  TRP525     -0.2442
    131  CE2      -10.3900   53.3160   75.0600 C.ar  525  TRP525      0.0810
    132  CE3      -12.5140   52.5330   75.8860 C.ar  525  TRP525      0.0012
    133  CZ2       -9.7040   52.7430   76.1250 C.ar  525  TRP525      0.0191
    134  CZ3      -11.8290   51.9570   76.9400 C.ar  525  TRP525      0.0001
    135  CH2      -10.4410   52.0670   77.0520 C.ar  525  TRP525      0.0015
    136  N         -1.2360   62.3300   83.7060 N.3   591  TYR591     -0.1241
    137  CA        -1.2030   61.7480   85.0550 C.3   591  TYR591      0.1605
    138  C          0.1560   61.1430   85.2820 C.2   591  TYR591      0.2264
    139  O          0.9040   60.9420   84.3390 O.2   591  TYR591     -0.2867
    140  CB        -2.2600   60.6840   85.2690 C.3   591  TYR591      0.0534
    141  CG        -2.4140   59.6370   84.1860 C.ar  591  TYR591     -0.0201
    142  CD1       -1.6310   58.4840   84.1790 C.ar  591  TYR591     -0.0009
    143  CD2       -3.4040   59.7680   83.2010 C.ar  591  TYR591     -0.0009
    144  CE1       -1.8050   57.5000   83.1990 C.ar  591  TYR591      0.0417
    145  CE2       -3.5890   58.7940   82.2220 C.ar  591  TYR591      0.0417
    146  CZ        -2.7800   57.6720   82.2270 C.ar  591  TYR591      0.1957
    147  OH        -2.9550   56.7260   81.2600 O.3   591  TYR591     -0.2866
    148  N         -1.9280   55.6860   92.4940 N.3   638  PRO638     -0.2102
    149  CA        -1.4240   56.7020   91.6000 C.3   638  PRO638      0.1504
    150  C         -2.2820   56.8600   90.3750 C.2   638  PRO638      0.2576
    151  O         -3.0550   55.9850   90.0050 O.2   638  PRO638     -0.2718
    152  CB        -0.0680   56.1690   91.1980 C.3   638  PRO638      0.0282
    153  CG         0.3550   55.3950   92.3590 C.3   638  PRO638      0.0208
    154  CD        -0.8760   54.7350   92.8660 C.3   638  PRO638      0.0893
    155  N         -2.1560   58.0270   89.7840 N.am  639  ALA639     -0.1966
    156  CA        -2.7830   58.3510   88.5370 C.3   639  ALA639      0.1728
    157  C         -4.2390   57.9600   88.3400 C.2   639  ALA639      0.2616
    158  O         -4.5840   57.4970   87.2770 O.2   639  ALA639     -0.2715
    159  CB        -1.9370   57.8120   87.4300 C.3   639  ALA639      0.0334
    160  N         -5.1170   58.1350   89.3100 N.am  640  THR640     -0.1951
    161  CA        -6.5390   57.7800   89.0260 C.3   640  THR640      0.1897
    162  C         -7.5710   58.7100   89.6390 C.2   640  THR640      0.2313
    163  O         -7.2380   59.4810   90.5010 O.2   640  THR640     -0.2863
    164  CB        -6.8880   56.3580   89.5050 C.3   640  THR640      0.1794
    165  OG1       -6.7580   56.2850   90.9360 O.3   640  THR640     -0.2208
    166  CG2       -5.9750   55.3360   88.8580 C.3   640  THR640      0.0378
    167  N        -10.2340   57.6250   91.5700 N.3   642  HIS642     -0.1241
    168  CA       -10.4860   57.1220   92.8980 C.3   642  HIS642      0.1621
    169  C         -9.2680   57.4460   93.7410 C.2   642  HIS642      0.2264
    170  O         -9.3730   57.6830   94.9340 O.2   642  HIS642     -0.2867
    171  CB       -10.7790   55.6180   92.8770 C.3   642  HIS642      0.0745
    172  CG        -9.7060   54.7900   92.2280 C.ar  642  HIS642      0.0817
    173  ND1       -9.7550   54.4180   90.9010 N.ar  642  HIS642     -0.2268
    174  CD2       -8.5610   54.2560   92.7310 C.ar  642  HIS642      0.1154
    175  CE1       -8.6810   53.6960   90.6140 C.ar  642  HIS642      0.1986
    176  NE2       -7.9380   53.5890   91.7060 N.ar  642  HIS642     -0.2212
@<TRIPOS>BOND
     1   122   123    1
     2   125   124    2
     3   124   123    1
     4   116   115    2
     5   123   126    1
     6   115   114    1
     7   114   113    1
     8   114   117    1
     9   126   127    1
    10   128   127   ar
    11   128   130   ar
    12   127   129   ar
    13   130   131   ar
    14   117   118    1
    15   129   131   ar
    16   129   132   ar
    17   118   119    1
    18   131   133   ar
    19   132   134   ar
    20   111   110    1
    21   119   120    1
    22   133   135   ar
    23   107   106    1
    24   107   108    2
    25    36    37    1
    26    36    33    1
    27   106   105    1
    28   106   109    1
    29    32    33    1
    30    37    38   ar
    31    37    39   ar
    32   134   135   ar
    33    33    34    1
    34   120   121    1
    35    38    40   ar
    36    39    41   ar
    37   110   109    1
    38   110   112    1
    39    16    17    1
    40    16    15    1
    41    41    42   ar
    42    40    42   ar
    43    34    43   am
    44    34    35    2
    45    43    44    1
    46    15    14    1
    47     1     2    1
    48    14    11    1
    49     4     3    2
    50    44    47    1
    51    44    45    1
    52     2     3    1
    53    24    22    1
    54     3     5   am
    55   147   146    1
    56    45    46    2
    57    11    12    1
    58    11    10    1
    59    13    12    2
    60     8     7    2
    61    12    18   am
    62    10     7   am
    63   145   146   ar
    64   145   143   ar
    65   146   144   ar
    66     7     6    1
    67     5     6    1
    68    22    23    1
    69    22    19    1
    70    18    19    1
    71    19    20    1
    72     6     9    1
    73    98    97    2
    74   144   142   ar
    75   143   141   ar
    76    99   100    1
    77    99    96    1
    78    97    96    1
    79   136   137    1
    80   101   100   ar
    81   101   103   ar
    82   100   102   ar
    83   142   141   ar
    84   141   140    1
    85    96    95    1
    86   139   138    2
    87    20    21    2
    88   103   104   ar
    89   137   140    1
    90   137   138    1
    91   102   104   ar
    92    31    29    1
    93    25    26    1
    94    26    29    1
    95    26    27    1
    96   158   157    2
    97    29    30    1
    98   159   156    1
    99    83    81   ar
   100    27    28    2
   101   157   156    1
   102   157   160   am
   103    63    61   ar
   104    62    61   ar
   105   156   155    1
   106   166   164    1
   107   161   160    1
   108   161   164    1
   109   161   162    1
   110    61    60    1
   111    81    82   ar
   112    81    80    1
   113   164   165    1
   114   162   163    2
   115   155   150   am
   116    80    79    1
   117   151   150    2
   118    54    53   ar
   119   150   149    1
   120    55    53   ar
   121    60    57    1
   122   175   173   ar
   123   175   176   ar
   124    87    86    2
   125    53    52    1
   126   173   172   ar
   127   152   149    1
   128   152   153    1
   129    79    76    1
   130    57    56    1
   131    57    58    1
   132   167   168    1
   133   149   148    1
   134    86    85    1
   135   176   174   ar
   136    88    85    1
   137    88    89    1
   138    59    58    2
   139    84    85    1
   140    84    77   am
   141    56    50   am
   142    91    89   ar
   143    91    93   ar
   144    76    77    1
   145    76    75    1
   146   172   174   ar
   147   172   171    1
   148    48    49    1
   149    52    49    1
   150   153   154    1
   151    51    50    2
   152    50    49    1
   153   148   154    1
   154    77    78    2
   155    89    90   ar
   156    93    94   ar
   157   171   168    1
   158   168   169    1
   159    75    66   am
   160   169   170    2
   161    90    92   ar
   162    94    92   ar
   163    67    66    2
   164    66    65    1
   165    64    65    1
   166    65    68    1
   167    68    69    1
   168    71    69   ar
   169    71    73   ar
   170    69    70   ar
   171    73    74   ar
   172    70    72   ar
   173    74    72   ar
