@<TRIPOS>MOLECULE
tmp/2xatA01.pdb
 118 113 0 0 0
SMALL
GASTEIGER

@<TRIPOS>ATOM
      1  N         62.4390   40.5250   50.1770 N.3    30  SER30      -0.1217
      2  CA        63.0070   41.7730   49.7070 C.3    30  SER30       0.1889
      3  C         61.9080   42.8320   49.6520 C.2    30  SER30       0.2288
      4  O         61.2020   42.9450   48.6500 O.2    30  SER30      -0.2866
      5  CB        63.6120   41.5730   48.3220 C.3    30  SER30       0.2089
      6  OG        63.8510   42.8240   47.6990 O.3    30  SER30      -0.2183
      7  N         60.1520   35.6900   48.8420 N.3    63  ILE63      -0.1231
      8  CA        59.0150   36.5490   49.1260 C.3    63  ILE63       0.1692
      9  C         59.1740   37.9940   48.6680 C.2    63  ILE63       0.2593
     10  O         60.0480   38.7120   49.1330 O.2    63  ILE63      -0.2718
     11  CB        58.7010   36.4900   50.6150 C.3    63  ILE63       0.0266
     12  CG1       58.5990   35.0220   51.0190 C.3    63  ILE63       0.0019
     13  CG2       57.3990   37.1990   50.9100 C.3    63  ILE63       0.0020
     14  CD1       58.2760   34.7860   52.4450 C.3    63  ILE63       0.0001
     15  N         58.2980   38.3970   47.7480 N.am   64  GLY64      -0.1942
     16  CA        58.3180   39.7370   47.1890 C.3    64  GLY64       0.2014
     17  C         57.8120   40.8370   48.0920 C.2    64  GLY64       0.2639
     18  O         56.9900   40.6170   48.9650 O.2    64  GLY64      -0.2714
     19  N         58.3060   42.0410   47.8530 N.am   65  SER65      -0.1949
     20  CA        57.9470   43.2050   48.6490 C.3    65  SER65       0.1924
     21  C         56.4620   43.3650   48.8920 C.2    65  SER65       0.2314
     22  O         55.6450   43.1150   48.0080 O.2    65  SER65      -0.2863
     23  CB        58.4700   44.4700   47.9780 C.3    65  SER65       0.2116
     24  OG        58.6230   45.5150   48.9200 O.3    65  SER65      -0.2180
     25  N         57.4990   31.0210   45.3370 N.3   116  TRP116     -0.1227
     26  CA        57.8380   32.3610   44.8670 C.3   116  TRP116      0.1737
     27  C         56.6020   33.2600   44.9420 C.2   116  TRP116      0.2595
     28  O         55.6780   33.1410   44.1320 O.2   116  TRP116     -0.2718
     29  CB        58.3550   32.2730   43.4310 C.3   116  TRP116      0.0564
     30  CG        58.7200   33.5670   42.8020 C.ar  116  TRP116      0.0003
     31  CD1       59.0570   34.7250   43.4320 C.ar  116  TRP116      0.0946
     32  CD2       58.8210   33.8270   41.4000 C.ar  116  TRP116      0.0152
     33  NE1       59.3490   35.7030   42.5090 N.ar  116  TRP116     -0.2442
     34  CE2       59.2130   35.1770   41.2500 C.ar  116  TRP116      0.0810
     35  CE3       58.5970   33.0540   40.2510 C.ar  116  TRP116      0.0012
     36  CZ2       59.3940   35.7720   40.0050 C.ar  116  TRP116      0.0191
     37  CZ3       58.7830   33.6410   39.0100 C.ar  116  TRP116      0.0001
     38  CH2       59.1790   34.9910   38.8980 C.ar  116  TRP116      0.0015
     39  N         56.5890   34.1560   45.9220 N.am  117  ILE117     -0.1966
     40  CA        55.4640   35.0470   46.1030 C.3   117  ILE117      0.1727
     41  C         55.7380   36.4140   45.4970 C.2   117  ILE117      0.2617
     42  O         56.7640   37.0430   45.7580 O.2   117  ILE117     -0.2715
     43  CB        55.1420   35.1680   47.5890 C.3   117  ILE117      0.0290
     44  CG1       55.1160   33.7710   48.2000 C.3   117  ILE117      0.0022
     45  CG2       53.7940   35.8280   47.7900 C.3   117  ILE117      0.0023
     46  CD1       55.2550   33.7520   49.6880 C.3   117  ILE117      0.0001
     47  N         54.8080   36.8610   44.6640 N.am  118  GLY118     -0.1940
     48  CA        54.9630   38.1460   44.0080 C.3   118  GLY118      0.2014
     49  C         54.7190   39.3470   44.8970 C.2   118  GLY118      0.2639
     50  O         53.9380   39.2860   45.8420 O.2   118  GLY118     -0.2714
     51  N         55.3910   40.4500   44.5900 N.am  119  THR119     -0.1950
     52  CA        55.2240   41.6610   45.3690 C.3   119  THR119      0.1897
     53  C         53.7370   41.8810   45.6030 C.2   119  THR119      0.2313
     54  O         52.9090   41.6310   44.7360 O.2   119  THR119     -0.2863
     55  CB        55.8130   42.8910   44.6310 C.3   119  THR119      0.1794
     56  OG1       55.7870   44.0410   45.4870 O.3   119  THR119     -0.2208
     57  CG2       55.0090   43.1910   43.3920 C.3   119  THR119      0.0378
     58  N         53.7520   29.1980   42.5080 N.3   134  ILE134     -0.1231
     59  CA        54.2000   30.5470   42.2170 C.3   134  ILE134      0.1692
     60  C         52.9720   31.3780   42.4760 C.2   134  ILE134      0.2592
     61  O         51.9020   31.0750   41.9570 O.2   134  ILE134     -0.2718
     62  CB        54.6040   30.7380   40.7510 C.3   134  ILE134      0.0266
     63  CG1       55.9520   30.0810   40.4820 C.3   134  ILE134      0.0019
     64  CG2       54.7080   32.2230   40.4360 C.3   134  ILE134      0.0020
     65  CD1       56.5730   30.4930   39.1550 C.3   134  ILE134      0.0001
     66  N         53.1010   32.4080   43.2970 N.am  135  ILE135     -0.1966
     67  CA        51.9590   33.2570   43.5790 C.3   135  ILE135      0.1727
     68  C         52.1360   34.5740   42.8290 C.2   135  ILE135      0.2617
     69  O         53.0590   35.3400   43.1070 O.2   135  ILE135     -0.2715
     70  CB        51.8270   33.5150   45.0880 C.3   135  ILE135      0.0290
     71  CG1       51.9470   32.1960   45.8520 C.3   135  ILE135      0.0022
     72  CG2       50.4830   34.1550   45.3850 C.3   135  ILE135      0.0023
     73  CD1       50.8400   31.2210   45.5670 C.3   135  ILE135      0.0001
     74  N         51.2590   34.8210   41.8630 N.am  136  GLY136     -0.1940
     75  CA        51.3460   36.0370   41.0760 C.3   136  GLY136      0.2014
     76  C         51.2900   37.3020   41.9020 C.2   136  GLY136      0.2639
     77  O         50.7450   37.2920   43.0010 O.2   136  GLY136     -0.2714
     78  N         51.8450   38.3930   41.3830 N.am  137  SER137     -0.1949
     79  CA        51.8280   39.6500   42.1200 C.3   137  SER137      0.1924
     80  C         50.3950   40.1100   42.3150 C.2   137  SER137      0.2314
     81  O         49.5460   39.9630   41.4330 O.2   137  SER137     -0.2863
     82  CB        52.6060   40.7470   41.3870 C.3   137  SER137      0.2116
     83  OG        53.6210   40.2090   40.5630 O.3   137  SER137     -0.2180
     84  N         50.5520   27.6600   39.4330 N.3   150  ILE150     -0.1245
     85  CA        50.8090   29.0810   39.2390 C.3   150  ILE150      0.1561
     86  C         49.4780   29.7900   39.4200 C.2   150  ILE150      0.2260
     87  O         48.5700   29.6140   38.6130 O.2   150  ILE150     -0.2867
     88  CB        51.3310   29.3720   37.8230 C.3   150  ILE150      0.0252
     89  CG1       52.7650   28.8730   37.6900 C.3   150  ILE150      0.0019
     90  CG2       51.2520   30.8600   37.5340 C.3   150  ILE150      0.0019
     91  CD1       53.4040   29.2330   36.3810 C.3   150  ILE150      0.0001
     92  N         47.0720   33.4100   40.3810 N.3   152  GLY152     -0.1210
     93  CA        47.0600   34.8500   40.2940 C.3   152  GLY152      0.1956
     94  C         45.6680   35.3900   40.1510 C.2   152  GLY152      0.2612
     95  O         44.7770   34.7010   39.6350 O.2   152  GLY152     -0.2717
     96  N         45.4590   36.6230   40.5860 N.am  153  GLY153     -0.1956
     97  CA        44.1520   37.2120   40.4670 C.3   153  GLY153      0.1869
     98  C         43.4520   37.4050   41.7790 C.2   153  GLY153      0.2309
     99  O         43.8190   36.8320   42.7960 O.2   153  GLY153     -0.2863
    100  N         46.7650   29.2820   36.9720 N.3   159  ILE159     -0.1231
    101  CA        46.8980   29.6340   35.5780 C.3   159  ILE159      0.1692
    102  C         47.3980   28.4070   34.8640 C.2   159  ILE159      0.2591
    103  O         47.0780   28.1830   33.7040 O.2   159  ILE159     -0.2718
    104  CB        47.9050   30.7590   35.3940 C.3   159  ILE159      0.0266
    105  CG1       47.4740   31.9640   36.2220 C.3   159  ILE159      0.0019
    106  CG2       48.0140   31.1220   33.9310 C.3   159  ILE159      0.0020
    107  CD1       48.4620   33.1120   36.1990 C.3   159  ILE159      0.0001
    108  N         48.1790   27.6090   35.5820 N.am  160  ARG160     -0.1980
    109  CA        48.7530   26.3840   35.0490 C.3   160  ARG160      0.1597
    110  C         49.7670   25.8710   36.0410 C.2   160  ARG160      0.2287
    111  O         50.0760   26.5430   37.0160 O.2   160  ARG160     -0.2864
    112  CB        49.4650   26.6640   33.7480 C.3   160  ARG160      0.0334
    113  CG        50.3160   27.8770   33.8360 C.3   160  ARG160      0.0492
    114  CD        50.9590   28.1450   32.5190 C.3   160  ARG160      0.2205
    115  NE        52.3590   27.7450   32.5260 N.pl3 160  ARG160     -0.0865
    116  CZ        53.3720   28.6070   32.5780 C.cat 160  ARG160      0.5346
    117  NH1       53.1180   29.9170   32.6210 N.pl3 160  ARG160      0.1354
    118  NH2       54.6320   28.1630   32.5750 N.pl3 160  ARG160      0.1354
@<TRIPOS>BOND
     1   114   115    1
     2   114   113    1
     3   115   116    2
     4   118   116    1
     5   116   117    1
     6   103   102    2
     7   112   113    1
     8   112   109    1
     9   106   104    1
    10   102   101    1
    11   102   108   am
    12   109   108    1
    13   109   110    1
    14   104   101    1
    15   104   105    1
    16   101   100    1
    17   110   111    2
    18   107   105    1
    19    91    89    1
    20    90    88    1
    21    89    88    1
    22    88    85    1
    23    87    86    2
    24    38    37   ar
    25    38    36   ar
    26    37    35   ar
    27    65    63    1
    28    85    86    1
    29    85    84    1
    30    95    94    2
    31    36    34   ar
    32    94    93    1
    33    94    96   am
    34    35    32   ar
    35    93    92    1
    36    64    62    1
    37    97    96    1
    38    97    98    1
    39    63    62    1
    40    83    82    1
    41    62    59    1
    42    75    74    1
    43    75    76    1
    44    34    32   ar
    45    34    33   ar
    46    78    76   am
    47    78    79    1
    48    82    79    1
    49    32    30   ar
    50    81    80    2
    51    98    99    2
    52    74    68   am
    53    76    77    2
    54    61    60    2
    55    79    80    1
    56    59    60    1
    57    59    58    1
    58    60    66   am
    59    33    31   ar
    60    30    29    1
    61    30    31   ar
    62    68    69    2
    63    68    67    1
    64    66    67    1
    65    57    55    1
    66    29    26    1
    67    67    70    1
    68    48    47    1
    69    48    49    1
    70    28    27    2
    71    51    49   am
    72    51    52    1
    73    55    52    1
    74    55    56    1
    75    47    41   am
    76    54    53    2
    77    26    27    1
    78    26    25    1
    79    49    50    2
    80    27    39   am
    81    70    72    1
    82    70    71    1
    83    52    53    1
    84    41    42    2
    85    41    40    1
    86    73    71    1
    87    39    40    1
    88    40    43    1
    89    16    15    1
    90    16    17    1
    91    43    45    1
    92    43    44    1
    93     6     5    1
    94    15     9   am
    95    19    17   am
    96    19    20    1
    97    23    20    1
    98    23    24    1
    99    22    21    2
   100    17    18    2
   101    44    46    1
   102     5     2    1
   103    20    21    1
   104     4     3    2
   105     9     8    1
   106     9    10    2
   107     7     8    1
   108     8    11    1
   109     3     2    1
   110     2     1    1
   111    11    13    1
   112    11    12    1
   113    12    14    1
