@<TRIPOS>MOLECULE
tmp/2xawC00.pdb
 164 156 0 0 0
SMALL
GASTEIGER

@<TRIPOS>ATOM
      1  N        -41.4200   16.0460   18.7700 N.3   331  LYS331     -0.1245
      2  CA       -42.0800   14.8730   19.3050 C.3   331  LYS331      0.1561
      3  C        -42.4850   13.8910   18.2170 C.2   331  LYS331      0.2260
      4  O        -42.1300   12.7040   18.2900 O.2   331  LYS331     -0.2867
      5  CB       -43.2900   15.2320   20.1450 C.3   331  LYS331      0.0271
      6  CG       -43.8020   14.0420   20.9210 C.3   331  LYS331      0.0035
      7  CD       -45.1080   14.3750   21.5560 C.3   331  LYS331      0.0206
      8  CE       -45.3110   13.5980   22.8420 C.3   331  LYS331      0.1093
      9  NZ       -46.0200   14.4470   23.8440 N.3   331  LYS331     -0.1314
     10  N        -39.8940   11.2460   17.0380 N.3   334  TYR334     -0.1227
     11  CA       -39.5660   10.2480   18.0730 C.3   334  TYR334      0.1736
     12  C        -40.6480    9.1910   18.1340 C.2   334  TYR334      0.2596
     13  O        -40.3520    7.9940   18.1830 O.2   334  TYR334     -0.2718
     14  CB       -39.4530   10.8900   19.4540 C.3   334  TYR334      0.0548
     15  CG       -38.2290   11.7350   19.6480 C.ar  334  TYR334     -0.0200
     16  CD1      -36.9530   11.1720   19.6130 C.ar  334  TYR334     -0.0009
     17  CD2      -38.3430   13.1070   19.8950 C.ar  334  TYR334     -0.0009
     18  CE1      -35.8090   11.9640   19.8020 C.ar  334  TYR334      0.0417
     19  CE2      -37.2110   13.9090   20.0930 C.ar  334  TYR334      0.0417
     20  CZ       -35.9460   13.3370   20.0400 C.ar  334  TYR334      0.1957
     21  OH       -34.8250   14.1340   20.2280 O.3   334  TYR334     -0.2866
     22  N        -41.9010    9.6560   18.1320 N.am  335  THR335     -0.1953
     23  CA       -43.0600    8.7820   18.1790 C.3   335  THR335      0.1897
     24  C        -43.0110    7.8090   17.0040 C.2   335  THR335      0.2313
     25  O        -43.3090    6.6260   17.1650 O.2   335  THR335     -0.2863
     26  CB       -44.3590    9.5800   18.1680 C.3   335  THR335      0.1794
     27  OG1      -44.1400   10.8290   18.8280 O.3   335  THR335     -0.2208
     28  CG2      -45.4360    8.8250   18.8980 C.3   335  THR335      0.0378
     29  N        -40.2840    6.7370   15.6360 N.3   337  LEU337     -0.1231
     30  CA       -39.2260    5.7910   15.9920 C.3   337  LEU337      0.1693
     31  C        -39.7430    4.6910   16.9310 C.2   337  LEU337      0.2592
     32  O        -39.5790    3.5030   16.6250 O.2   337  LEU337     -0.2718
     33  CB       -37.9960    6.5030   16.5810 C.3   337  LEU337      0.0284
     34  CG       -36.9220    5.5850   17.1960 C.3   337  LEU337      0.0019
     35  CD1      -36.2000    4.7960   16.1210 C.3   337  LEU337      0.0001
     36  CD2      -35.9310    6.3270   18.0730 C.3   337  LEU337      0.0001
     37  N        -40.3670    5.0930   18.0460 N.am  338  LEU338     -0.1966
     38  CA       -40.8890    4.1620   19.0620 C.3   338  LEU338      0.1728
     39  C        -42.0170    3.2670   18.5230 C.2   338  LEU338      0.2616
     40  O        -42.0090    2.0510   18.7440 O.2   338  LEU338     -0.2715
     41  CB       -41.3940    4.9070   20.3050 C.3   338  LEU338      0.0311
     42  CG       -40.6790    6.1180   20.8970 C.3   338  LEU338      0.0022
     43  CD1      -41.4680    6.6310   22.0600 C.3   338  LEU338      0.0001
     44  CD2      -39.2630    5.7950   21.3310 C.3   338  LEU338      0.0001
     45  N        -42.9790    3.8770   17.8210 N.am  339  LYS339     -0.1963
     46  CA       -44.0320    3.1580   17.1030 C.3   339  LYS339      0.1728
     47  C        -43.4820    2.3520   15.9040 C.2   339  LYS339      0.2616
     48  O        -44.2540    1.7800   15.1370 O.2   339  LYS339     -0.2715
     49  CB       -45.1320    4.1350   16.6460 C.3   339  LYS339      0.0311
     50  CG       -46.0790    4.6110   17.7620 C.3   339  LYS339      0.0038
     51  CD       -47.1880    5.5800   17.2670 C.3   339  LYS339      0.0206
     52  CE       -48.3900    4.8760   16.5810 C.3   339  LYS339      0.1093
     53  NZ       -49.5340    4.5450   17.4920 N.3   339  LYS339     -0.1314
     54  N        -42.1520    2.3160   15.7570 N.am  340  GLY340     -0.1955
     55  CA       -41.4450    1.5750   14.7020 C.3   340  GLY340      0.1869
     56  C        -41.8700    1.8590   13.2710 C.2   340  GLY340      0.2309
     57  O        -41.8050    0.9750   12.4110 O.2   340  GLY340     -0.2863
     58  N        -36.2710    3.9600   12.5450 N.3   386  VAL386     -0.1245
     59  CA       -35.1100    3.3660   13.1960 C.3   386  VAL386      0.1561
     60  C        -33.8590    3.6420   12.3890 C.2   386  VAL386      0.2260
     61  O        -32.8990    4.2050   12.9080 O.2   386  VAL386     -0.2867
     62  CB       -35.2010    1.8500   13.4200 C.3   386  VAL386      0.0252
     63  CG1      -34.5010    1.5030   14.7340 C.3   386  VAL386      0.0019
     64  CG2      -36.6370    1.3820   13.4640 C.3   386  VAL386      0.0019
     65  N        -30.6750    5.8450   13.5020 N.3   390  SER390     -0.1217
     66  CA       -29.4240    5.1100   13.6400 C.3   390  SER390      0.1889
     67  C        -28.3240    5.8130   12.8910 C.2   390  SER390      0.2288
     68  O        -27.2010    5.9510   13.4120 O.2   390  SER390     -0.2866
     69  CB       -29.5690    3.6970   13.1120 C.3   390  SER390      0.2089
     70  OG       -30.6830    3.1000   13.7260 O.3   390  SER390     -0.2183
     71  N        -41.2690   21.0020   31.4400 N.3   574  LYS574     -0.1245
     72  CA       -41.7550   19.6550   31.0780 C.3   574  LYS574      0.1561
     73  C        -42.1960   18.9180   32.3430 C.2   574  LYS574      0.2260
     74  O        -41.4850   18.9240   33.3420 O.2   574  LYS574     -0.2867
     75  CB       -40.6800   18.8850   30.2890 C.3   574  LYS574      0.0271
     76  CG       -40.9970   17.4420   29.9260 C.3   574  LYS574      0.0035
     77  CD       -41.8080   17.3310   28.6550 C.3   574  LYS574      0.0206
     78  CE       -42.3460   15.9180   28.4980 C.3   574  LYS574      0.1093
     79  NZ       -41.3140   14.8690   28.1810 N.3   574  LYS574     -0.1314
     80  N        -42.7370   15.6960   33.4730 N.3   576  ASP576     -0.1239
     81  CA       -42.1090   14.4990   34.0330 C.3   576  ASP576      0.1674
     82  C        -41.0460   14.8670   35.0450 C.2   576  ASP576      0.2266
     83  O        -40.6380   14.0420   35.8660 O.2   576  ASP576     -0.2867
     84  CB       -41.4930   13.6280   32.9370 C.3   576  ASP576      0.1410
     85  CG       -42.4200   13.4360   31.7310 C.2   576  ASP576      0.3668
     86  OD1      -43.2110   14.3690   31.4150 O.co2 576  ASP576     -0.2456
     87  OD2      -42.3420   12.3620   31.0800 O.co2 576  ASP576     -0.2456
     88  N        -23.8310    0.0650   22.3670 N.3   700  PRO700     -0.2102
     89  CA       -24.9260   -0.3930   21.5170 C.3   700  PRO700      0.1504
     90  C        -25.8740    0.7140   21.1290 C.2   700  PRO700      0.2576
     91  O        -26.1400    1.6090   21.9250 O.2   700  PRO700     -0.2718
     92  CB       -25.6470   -1.4190   22.3820 C.3   700  PRO700      0.0282
     93  CG       -25.3240   -1.0350   23.7690 C.3   700  PRO700      0.0208
     94  CD       -24.0420   -0.2590   23.7800 C.3   700  PRO700      0.0893
     95  N        -26.3890    0.6440   19.9100 N.am  701  MET701     -0.1966
     96  CA       -27.3090    1.6530   19.4330 C.3   701  MET701      0.1736
     97  C        -28.4980    1.7830   20.3570 C.2   701  MET701      0.2616
     98  O        -29.0490    2.8720   20.4930 O.2   701  MET701     -0.2715
     99  CB       -27.8100    1.3180   18.0400 C.3   701  MET701      0.0427
    100  CG       -28.6240    2.4430   17.4060 C.3   701  MET701      0.0599
    101  SD       -27.6880    3.9820   17.3160 S.3   701  MET701     -0.1393
    102  CE       -26.5420    3.6050   15.9910 C.3   701  MET701      0.0692
    103  N        -28.8960    0.6740   20.9820 N.am  702  GLN702     -0.1977
    104  CA       -30.0050    0.6900   21.9330 C.3   702  GLN702      0.1601
    105  C        -29.7240    1.7390   23.0020 C.2   702  GLN702      0.2287
    106  O        -30.5820    2.5550   23.3420 O.2   702  GLN702     -0.2864
    107  CB       -30.2000   -0.6930   22.5740 C.3   702  GLN702      0.0394
    108  CG       -31.5990   -0.9500   23.1440 C.3   702  GLN702      0.0908
    109  CD       -32.6760   -1.0930   22.0550 C.2   702  GLN702      0.2608
    110  OE1      -32.4200   -1.6090   20.9620 O.2   702  GLN702     -0.2717
    111  NE2      -33.8900   -0.6370   22.3580 N.am  702  GLN702     -0.0878
    112  N        -29.7370    5.4360   21.8430 N.3   705  LEU705     -0.1231
    113  CA       -31.1120    5.8920   21.6490 C.3   705  LEU705      0.1693
    114  C        -31.8900    6.0540   22.9660 C.2   705  LEU705      0.2591
    115  O        -32.7490    6.9460   23.0680 O.2   705  LEU705     -0.2718
    116  CB       -31.8770    5.0050   20.6490 C.3   705  LEU705      0.0284
    117  CG       -31.4610    5.1230   19.1700 C.3   705  LEU705      0.0019
    118  CD1      -31.9110    3.9240   18.3620 C.3   705  LEU705      0.0001
    119  CD2      -31.9470    6.4180   18.5150 C.3   705  LEU705      0.0001
    120  N        -31.5960    5.2290   23.9770 N.am  706  LYS706     -0.1980
    121  CA       -32.3280    5.3700   25.2340 C.3   706  LYS706      0.1596
    122  C        -31.9940    6.6980   25.8940 C.2   706  LYS706      0.2287
    123  O        -32.8760    7.3610   26.4590 O.2   706  LYS706     -0.2864
    124  CB       -32.1200    4.1960   26.2130 C.3   706  LYS706      0.0298
    125  CG       -33.1450    4.2260   27.4330 C.3   706  LYS706      0.0038
    126  CD       -33.0540    2.9880   28.3730 C.3   706  LYS706      0.0206
    127  CE       -33.9930    3.0920   29.6290 C.3   706  LYS706      0.1093
    128  NZ       -33.4590    3.8080   30.8580 N.3   706  LYS706     -0.1314
    129  N        -33.6520    9.4910   24.1940 N.3   709  LEU709     -0.1231
    130  CA       -35.0350    9.5150   24.6760 C.3   709  LEU709      0.1693
    131  C        -35.1980   10.1130   26.0710 C.2   709  LEU709      0.2592
    132  O        -36.0510   10.9920   26.2770 O.2   709  LEU709     -0.2718
    133  CB       -35.6520    8.1290   24.5970 C.3   709  LEU709      0.0284
    134  CG       -35.9360    7.7360   23.1480 C.3   709  LEU709      0.0019
    135  CD1      -36.1580    6.2370   23.0440 C.3   709  LEU709      0.0001
    136  CD2      -37.1220    8.5340   22.5850 C.3   709  LEU709      0.0001
    137  N        -34.3710    9.6440   27.0090 N.am  710  THR710     -0.1953
    138  CA       -34.2880   10.1980   28.3620 C.3   710  THR710      0.1897
    139  C        -34.1310   11.7090   28.3410 C.2   710  THR710      0.2313
    140  O        -34.7550   12.4020   29.1350 O.2   710  THR710     -0.2863
    141  CB       -33.0930    9.6170   29.0960 C.3   710  THR710      0.1794
    142  OG1      -33.2000    8.1960   29.0880 O.3   710  THR710     -0.2208
    143  CG2      -33.0240   10.1110   30.5230 C.3   710  THR710      0.0378
    144  N        -35.0490   13.8340   25.9560 N.3   712  TYR712     -0.1227
    145  CA       -36.3020   14.4280   25.5290 C.3   712  TYR712      0.1736
    146  C        -37.3340   14.3730   26.6530 C.2   712  TYR712      0.2595
    147  O        -37.9850   15.3780   26.9390 O.2   712  TYR712     -0.2718
    148  CB       -36.8430   13.7670   24.2520 C.3   712  TYR712      0.0548
    149  CG       -38.0970   14.4370   23.7420 C.ar  712  TYR712     -0.0200
    150  CD1      -38.0310   15.5910   22.9700 C.ar  712  TYR712     -0.0009
    151  CD2      -39.3450   13.9370   24.0600 C.ar  712  TYR712     -0.0009
    152  CE1      -39.1980   16.2310   22.5140 C.ar  712  TYR712      0.0417
    153  CE2      -40.5050   14.5600   23.6160 C.ar  712  TYR712      0.0417
    154  CZ       -40.4410   15.7090   22.8470 C.ar  712  TYR712      0.1957
    155  OH       -41.6180   16.3190   22.4210 O.3   712  TYR712     -0.2866
    156  N        -37.4540   13.2080   27.2940 N.am  713  LYS713     -0.1980
    157  CA       -38.4500   12.9750   28.3410 C.3   713  LYS713      0.1596
    158  C        -38.3700   14.0300   29.4480 C.2   713  LYS713      0.2287
    159  O        -39.4000   14.4700   29.9920 O.2   713  LYS713     -0.2864
    160  CB       -38.3040   11.5670   28.9260 C.3   713  LYS713      0.0298
    161  CG       -39.5520   11.1120   29.6600 C.3   713  LYS713      0.0038
    162  CD       -39.3280    9.9050   30.5730 C.3   713  LYS713      0.0206
    163  CE       -40.5500    9.6550   31.4730 C.3   713  LYS713      0.1093
    164  NZ       -41.8620    9.7300   30.7550 N.3   713  LYS713     -0.1314
@<TRIPOS>BOND
     1    60    61    2
     2    60    59    1
     3    57    56    2
     4    58    59    1
     5    67    68    2
     6    67    66    1
     7    69    66    1
     8    69    70    1
     9    59    62    1
    10    56    55    1
    11    62    64    1
    12    62    63    1
    13    65    66    1
    14    55    54    1
    15    48    47    2
    16    29    30    1
    17    54    47   am
    18    47    46    1
    19   102   101    1
    20    30    33    1
    21    30    31    1
    22    35    34    1
    23    52    51    1
    24    52    53    1
    25    33    34    1
    26    32    31    2
    27    49    46    1
    28    49    50    1
    29    31    37   am
    30    24    25    2
    31    24    23    1
    32    10    11    1
    33    46    45    1
    34    34    36    1
    35    51    50    1
    36   101   100    1
    37   100    99    1
    38    45    39   am
    39    99    96    1
    40    37    38    1
    41    11    12    1
    42    11    14    1
    43    22    12   am
    44    22    23    1
    45    12    13    2
    46    26    23    1
    47    26    27    1
    48    26    28    1
    49     3     4    2
    50     3     2    1
    51   118   117    1
    52   119   117    1
    53    39    40    2
    54    39    38    1
    55     1     2    1
    56    38    41    1
    57   117   116    1
    58     2     5    1
    59    96    95    1
    60    96    97    1
    61    14    15    1
    62    16    15   ar
    63    16    18   ar
    64    15    17   ar
    65    18    20   ar
    66    17    19   ar
    67    95    90   am
    68    20    19   ar
    69    20    21    1
    70     5     6    1
    71    41    42    1
    72    97    98    2
    73    97   103   am
    74   116   113    1
    75    42    44    1
    76    42    43    1
    77     6     7    1
    78   110   109    2
    79   103   104    1
    80    90    89    1
    81    90    91    2
    82    89    88    1
    83    89    92    1
    84     7     8    1
    85   113   112    1
    86   113   114    1
    87   104   107    1
    88   104   105    1
    89   109   111   am
    90   109   108    1
    91    88    94    1
    92    92    93    1
    93   155   154    1
    94   152   154   ar
    95   152   150   ar
    96   107   108    1
    97   136   134    1
    98     8     9    1
    99   154   153   ar
   100   114   115    2
   101   114   120   am
   102   150   149   ar
   103   105   106    2
   104   135   134    1
   105   134   133    1
   106   153   151   ar
   107   149   151   ar
   108   149   148    1
   109    93    94    1
   110   120   121    1
   111   129   130    1
   112   148   145    1
   113   133   130    1
   114   130   131    1
   115   121   122    1
   116   121   124    1
   117   145   144    1
   118   145   146    1
   119   122   123    2
   120   131   132    2
   121   131   137   am
   122   124   125    1
   123   146   147    2
   124   146   156   am
   125   137   138    1
   126   156   157    1
   127   125   126    1
   128    79    78    1
   129   157   160    1
   130   157   158    1
   131   139   138    1
   132   139   140    2
   133   138   141    1
   134   126   127    1
   135    78    77    1
   136    77    76    1
   137   160   161    1
   138   142   141    1
   139   141   143    1
   140   158   159    2
   141   127   128    1
   142   161   162    1
   143    76    75    1
   144    75    72    1
   145   162   163    1
   146   164   163    1
   147    72    71    1
   148    72    73    1
   149    87    85   ar
   150    86    85   ar
   151    85    84    1
   152    73    74    2
   153    84    81    1
   154    80    81    1
   155    81    82    1
   156    82    83    2
